@<TRIPOS>MOLECULE
3il6_B83_A_1.pdb
 33 36 0 0 0
SMALL
GASTEIGER

@<TRIPOS>ATOM
      1  C1      -139.8340  138.9180   93.6360 C.ar  401  B83401      0.0951
      2  C2      -139.2360  138.5250   92.3670 C.ar  401  B83401      0.0800
      3  C3      -139.0470  139.5350   91.3580 C.ar  401  B83401      0.0168
      4  C4      -139.4350  140.8810   91.5770 C.ar  401  B83401      0.0013
      5  C5      -140.0190  141.2590   92.8070 C.ar  401  B83401      0.0003
      6  C6      -140.2150  140.2930   93.8290 C.ar  401  B83401      0.0079
      7  C7      -140.1090  138.0050   94.8170 C.2   401  B83401      0.3890
      8  O8      -139.7580  136.7100   94.6420 O.co2 401  B83401     -0.2405
      9  O9      -140.6030  138.3570   95.8710 O.co2 401  B83401     -0.2405
     10  N10     -138.8720  137.1640   92.1570 N.am  401  B83401     -0.1752
     11  C11     -138.2790  136.5190   91.0890 C.2   401  B83401      0.2691
     12  O12     -137.8850  137.0300   90.0320 O.2   401  B83401     -0.2680
     13  C13     -138.1730  135.0370   91.2590 C.ar  401  B83401      0.0585
     14  C14     -137.9430  134.3930   92.5080 C.ar  401  B83401      0.0060
     15  C15     -137.8890  132.9630   92.5740 C.ar  401  B83401      0.0178
     16  C16     -138.0640  132.1340   91.3940 C.ar  401  B83401      0.0829
     17  C17     -138.2890  132.8290   90.1410 C.ar  401  B83401      0.1586
     18  C18     -138.3440  134.2520   90.0900 C.ar  401  B83401      0.0433
     19  O19     -138.4590  132.0650   88.9760 O.3   401  B83401     -0.4522
     20  C20     -137.5740  132.1680   87.8810 C.ar  401  B83401      0.1454
     21  C21     -136.2580  132.7620   87.9190 C.ar  401  B83401      0.0375
     22  C22     -135.4610  132.8060   86.7430 C.ar  401  B83401      0.0031
     23  C23     -135.9570  132.2620   85.5270 C.ar  401  B83401      0.0002
     24  C24     -137.2510  131.6730   85.4830 C.ar  401  B83401      0.0031
     25  C25     -138.0560  131.6270   86.6560 C.ar  401  B83401      0.0375
     26  N26     -138.0260  130.7120   91.4340 N.pl3 401  B83401     -0.3051
     27  C27     -136.7660  130.0950   90.9160 C.3   401  B83401      0.0908
     28  C28     -136.9910  128.5800   90.6790 C.3   401  B83401      0.0198
     29  C29     -137.4040  127.9070   92.0110 C.3   401  B83401      0.0034
     30  C30     -138.6800  128.5700   92.5680 C.3   401  B83401      0.0198
     31  C31     -138.4350  130.0920   92.7570 C.3   401  B83401      0.0908
     32  C32     -139.0860  127.9230   93.8940 C.3   401  B83401      0.0018
     33  C33     -135.7200  127.9360   90.1380 C.3   401  B83401      0.0018
@<TRIPOS>BOND
     1    24    23   ar
     2    24    25   ar
     3    23    22   ar
     4    25    20   ar
     5    22    21   ar
     6    20    21   ar
     7    20    19    1
     8    19    17    1
     9    12    11    2
    10    18    17   ar
    11    18    13   ar
    12    33    28    1
    13    17    16   ar
    14    28    27    1
    15    28    29    1
    16    27    26    1
    17    11    13    1
    18    11    10   am
    19    13    14   ar
    20     3     4   ar
    21     3     2   ar
    22    16    26    1
    23    16    15   ar
    24    26    31    1
    25     4     5   ar
    26    29    30    1
    27    10     2    1
    28     2     1   ar
    29    14    15   ar
    30    30    31    1
    31    30    32    1
    32     5     6   ar
    33     1     6   ar
    34     1     7    1
    35     8     7   ar
    36     7     9   ar
