@<TRIPOS>MOLECULE
3ilf_GLA_A_1.pdb
 12 12 0 0 0
SMALL
GASTEIGER

@<TRIPOS>ATOM
      1  C1        17.2400    3.4300    9.2530 C.2     1  GLA1        0.3505
      2  C2        16.2220    3.8320   10.2700 C.3     1  GLA1        0.2823
      3  C3        16.0440    5.2140    9.6230 C.3     1  GLA1        0.2270
      4  C4        17.3320    6.0380    9.7980 C.3     1  GLA1        0.2276
      5  C5        18.4240    5.3410    8.9470 C.3     1  GLA1        0.2344
      6  C6        19.8330    6.0000    9.0360 C.3     1  GLA1        0.2281
      7  O1        16.8090    3.1020    7.9410 O.2     1  GLA1       -0.2472
      8  O2        15.0390    3.0000   10.1780 O.3     1  GLA1       -0.2082
      9  O3        15.1370    6.0290   10.4410 O.3     1  GLA1       -0.2169
     10  O4        17.6360    6.1050   11.2270 O.3     1  GLA1       -0.2163
     11  O5        18.5480    3.9530    9.3140 O.3     1  GLA1       -0.4450
     12  O6        20.2880    5.8290   10.3550 O.3     1  GLA1       -0.2163
@<TRIPOS>BOND
     1     7     1    2
     2     5     6    1
     3     5    11    1
     4     5     4    1
     5     6    12    1
     6     1    11    1
     7     1     2    1
     8     3     4    1
     9     3     2    1
    10     3     9    1
    11     4    10    1
    12     8     2    1
