@<TRIPOS>MOLECULE
3ilf_L6S_A_1.pdb
 15 15 0 0 0
SMALL
GASTEIGER

@<TRIPOS>ATOM
      1  O1S       14.3380    9.1750    4.9230 O.2     2  L6S2       -0.3452
      2  O2S       12.4060   10.2930    5.8550 O.3     2  L6S2       -0.2682
      3  O3S       12.2550    7.9320    5.1420 O.2     2  L6S2       -0.3452
      4  C1        13.6870    5.9020   10.1700 C.3     2  L6S2        0.1777
      5  C2        12.7270    5.7820   11.2690 C.3     2  L6S2        0.2141
      6  C3        12.5390    7.2300   11.6840 C.3     2  L6S2        0.2172
      7  C4        12.3970    8.2670   10.6050 C.3     2  L6S2        0.2142
      8  C5        13.1520    7.8940    9.3380 C.3     2  L6S2        0.1801
      9  C6        12.5950    8.7460    8.2080 C.3     2  L6S2        0.2045
     10  O2        13.1540    5.0140   12.3850 O.3     2  L6S2       -0.2176
     11  O3        11.6220    7.3890   12.7780 O.3     2  L6S2       -0.2175
     12  O4        11.0030    7.8490   10.3780 O.3     2  L6S2       -0.2176
     13  O5        13.1590    6.4850    9.0220 O.3     2  L6S2       -0.3481
     14  O6        13.5320    8.6210    7.1330 O.3     2  L6S2       -0.2384
     15  S1        13.1120    9.0360    5.6790 S.3     2  L6S2       -0.0001
@<TRIPOS>BOND
     1     1    15    2
     2     3    15    2
     3    15     2    1
     4    15    14    1
     5    14     9    1
     6     9     8    1
     7    13     8    1
     8    13     4    1
     9     8     7    1
    10     4     5    1
    11    12     7    1
    12     7     6    1
    13     5     6    1
    14     5    10    1
    15     6    11    1
