@<TRIPOS>MOLECULE
3ilf_GAL_A_1.pdb
 11 11 0 0 0
SMALL
GASTEIGER

@<TRIPOS>ATOM
      1  C1        10.1110    9.0380   10.4460 C.3     3  GAL3        0.1777
      2  C2         8.8100    8.4750    9.9110 C.3     3  GAL3        0.2141
      3  C3         7.7320    9.5360   10.1560 C.3     3  GAL3        0.2173
      4  C4         7.6900    9.9630   11.6000 C.3     3  GAL3        0.2142
      5  C5         9.1090   10.5380   11.8990 C.3     3  GAL3        0.1810
      6  C6         9.2290   11.2720   13.2500 C.3     3  GAL3        0.2141
      7  O2         8.9180    8.2320    8.5270 O.3     3  GAL3       -0.2176
      8  O3         6.6230    9.0230    9.2680 O.3     3  GAL3       -0.2175
      9  O4         7.3550    8.8660   12.5150 O.3     3  GAL3       -0.2176
     10  O5        10.0390    9.4300   11.8150 O.3     3  GAL3       -0.3481
     11  O6        10.5620   11.5900   13.6300 O.3     3  GAL3       -0.2176
@<TRIPOS>BOND
     1     7     2    1
     2     8     3    1
     3     2     3    1
     4     2     1    1
     5     3     4    1
     6     1    10    1
     7     4     5    1
     8     4     9    1
     9    10     5    1
    10     5     6    1
    11     6    11    1
