@<TRIPOS>MOLECULE
3ilj_APC_A_1.pdb
 31 33 0 0 0
SMALL
GASTEIGER

@<TRIPOS>ATOM
      1  PG         1.6240   22.3780   10.6480 P.3   171  APC171      0.5389
      2  O1G        1.6780   20.9030   10.3100 O.3   171  APC171     -0.1143
      3  O2G        0.2670   23.0190   10.4220 O.3   171  APC171     -0.1143
      4  O3G        2.7410   23.1500    9.9860 O.2   171  APC171     -0.2220
      5  PB         3.0630   22.0680   13.1570 P.3   171  APC171      0.3895
      6  O1B        4.2130   21.7920   12.2030 O.2   171  APC171     -0.2544
      7  O2B        3.2810   23.0550   14.2640 O.3   171  APC171     -0.1388
      8  O3B        1.8140   22.5300   12.2710 O.3   171  APC171     -0.2026
      9  PA         3.7090   19.9090   15.1120 P.3   171  APC171      0.3820
     10  O1A        5.0680   19.8420   14.4920 O.2   171  APC171     -0.2548
     11  O2A        3.5760   20.6200   16.4100 O.3   171  APC171     -0.1392
     12  C3A        2.5320   20.5320   13.9070 C.3   171  APC171      0.2357
     13  O5'        3.2940   18.3770   15.2790 O.3   171  APC171     -0.2896
     14  C5'        1.8840   18.1060   15.4200 C.3   171  APC171      0.1836
     15  C4'        1.6710   16.6180   15.4410 C.3   171  APC171      0.1822
     16  O4'        1.9360   16.0620   14.1360 O.3   171  APC171     -0.3135
     17  C3'        2.5770   15.8100   16.3670 C.3   171  APC171      0.2184
     18  O3'        2.1540   15.7630   17.6940 O.3   171  APC171     -0.2174
     19  C2'        2.6970   14.4590   15.6940 C.3   171  APC171      0.2570
     20  O2'        2.0380   13.4560   16.4960 O.3   171  APC171     -0.2130
     21  C1'        1.9580   14.6530   14.3800 C.3   171  APC171      0.3186
     22  N9         2.4690   13.9800   13.1920 N.pl3 171  APC171     -0.1439
     23  C8         1.7060   13.1850   12.3760 C.3   171  APC171      0.3377
     24  N7         2.3650   12.7030   11.3430 N.2   171  APC171     -0.2095
     25  C5         3.6380   13.2370   11.5100 C.2   171  APC171      0.2526
     26  C6         4.7770   13.0740   10.7130 C.2   171  APC171      0.4393
     27  N6         4.7170   12.3200    9.6010 N.pl3 171  APC171      0.2180
     28  N1         5.9090   13.7090   11.0930 N.2   171  APC171      0.0021
     29  C2         5.8540   14.4470   12.2120 C.3   171  APC171      0.5254
     30  N3         4.8340   14.6720   13.0430 N.2   171  APC171     -0.0055
     31  C4         3.7370   14.0330   12.6400 C.2   171  APC171      0.3518
@<TRIPOS>BOND
     1    27    26    1
     2     4     1    2
     3     2     1    1
     4     3     1    1
     5     1     8    1
     6    26    28    2
     7    26    25    1
     8    28    29    1
     9    24    25    2
    10    24    23    1
    11    25    31    1
    12     6     5    2
    13    29    30    1
    14     8     5    1
    15    23    22    1
    16    31    30    2
    17    31    22    1
    18     5    12    1
    19     5     7    1
    20    22    21    1
    21    12     9    1
    22    16    21    1
    23    16    15    1
    24    21    19    1
    25    10     9    2
    26     9    13    1
    27     9    11    1
    28    13    14    1
    29    14    15    1
    30    15    17    1
    31    19    17    1
    32    19    20    1
    33    17    18    1
