@<TRIPOS>MOLECULE
3ilo_PH2_A_1.pdb
 14 15 0 0 0
SMALL
GASTEIGER

@<TRIPOS>ATOM
      1  N1        -5.5630    6.4340    7.8570 N.2   181  PH2181     -0.3830
      2  C2        -5.6470    6.7360    6.6340 C.2   181  PH2181      0.1470
      3  C3        -5.2860    8.1140    6.0850 C.3   181  PH2181      0.1940
      4  N4        -4.2250    8.6900    6.8980 N.2   181  PH2181     -0.1992
      5  N5        -3.2820    9.1160    8.9520 N.2   181  PH2181     -0.2672
      6  C6        -3.2140    8.7920   10.2210 C.1   181  PH2181      0.2609
      7  N6        -2.3570    9.4760   11.0350 N.pl3 181  PH2181     -0.0220
      8  N7        -3.9240    7.7970   10.7940 N.2   181  PH2181     -0.2466
      9  C8        -4.8130    6.9370   10.0730 C.1   181  PH2181      0.2569
     10  O8        -5.4420    6.0850   10.6740 O.2   181  PH2181     -0.2052
     11  C9        -4.8780    7.2900    8.6950 C.2   181  PH2181      0.2989
     12  C10       -4.1110    8.3430    8.2100 C.1   181  PH2181      0.1401
     13  C11       -6.1170    5.6690    5.7020 C.3   181  PH2181      0.2380
     14  O4        -6.3530    6.1020    4.4090 O.3   181  PH2181     -0.2126
@<TRIPOS>BOND
     1    14    13    1
     2    13     2    1
     3     3     2    1
     4     3     4    1
     5     2     1    2
     6     4    12    2
     7     1    11    2
     8    12    11    1
     9    12     5    2
    10    11     9    1
    11     5     6    2
    12     9    10    2
    13     9     8    2
    14     6     8    2
    15     6     7    1
