@<TRIPOS>MOLECULE
3ilo_APC_A_1.pdb
 31 33 0 0 0
SMALL
GASTEIGER

@<TRIPOS>ATOM
      1  PG        -6.2170    2.0270    3.6360 P.3   171  APC171      0.5389
      2  O1G       -6.8690    0.7930    3.0590 O.3   171  APC171     -0.1143
      3  O2G       -5.0830    2.5720    2.7950 O.2   171  APC171     -0.2220
      4  O3G       -5.7820    1.8150    5.0650 O.3   171  APC171     -0.1143
      5  PB        -8.8690    3.1810    3.9780 P.3   171  APC171      0.3895
      6  O1B       -8.8710    2.3530    5.2440 O.3   171  APC171     -0.1388
      7  O2B       -9.3930    4.5810    4.0440 O.2   171  APC171     -0.2544
      8  O3B       -7.3250    3.2390    3.5690 O.3   171  APC171     -0.2026
      9  PA       -11.4330    2.1930    2.7400 P.3   171  APC171      0.3820
     10  O1A      -11.8590    2.3610    4.1590 O.3   171  APC171     -0.1392
     11  O2A      -12.0950    3.0930    1.7670 O.2   171  APC171     -0.2548
     12  C3A       -9.6420    2.3090    2.6120 C.3   171  APC171      0.2357
     13  O5'      -11.7680    0.6750    2.3780 O.3   171  APC171     -0.2896
     14  C5'      -11.5280    0.2170    1.0270 C.3   171  APC171      0.1836
     15  C4'      -11.6430   -1.2860    0.9800 C.3   171  APC171      0.1822
     16  O4'      -10.4940   -1.8900    1.6240 O.3   171  APC171     -0.3135
     17  C3'      -12.8120   -1.9320    1.7230 C.3   171  APC171      0.2184
     18  O3'      -14.0460   -1.8570    1.0730 O.3   171  APC171     -0.2174
     19  C2'      -12.3250   -3.3410    1.9860 C.3   171  APC171      0.2570
     20  O2'      -12.9740   -4.2490    1.0750 O.3   171  APC171     -0.2130
     21  C1'      -10.8370   -3.2780    1.6740 C.3   171  APC171      0.3186
     22  N9        -9.9110   -4.0050    2.5460 N.pl3 171  APC171     -0.1439
     23  C8        -8.9540   -4.8760    2.0910 C.3   171  APC171      0.3377
     24  N7        -8.2180   -5.4170    3.0420 N.2   171  APC171     -0.2095
     25  C5        -8.7390   -4.8520    4.2060 C.2   171  APC171      0.2526
     26  C6        -8.3670   -5.0330    5.5520 C.2   171  APC171      0.4393
     27  N6        -7.3610   -5.8450    5.9120 N.pl3 171  APC171      0.2180
     28  N1        -9.0530   -4.3480    6.4910 N.2   171  APC171      0.0021
     29  C2       -10.0410   -3.5470    6.0710 C.3   171  APC171      0.5254
     30  N3       -10.4830   -3.2940    4.8430 N.2   171  APC171     -0.0055
     31  C4        -9.7880   -3.9820    3.9320 C.2   171  APC171      0.3518
@<TRIPOS>BOND
     1    15    14    1
     2    15    16    1
     3    15    17    1
     4    14    13    1
     5    18    17    1
     6    20    19    1
     7    16    21    1
     8    21    19    1
     9    21    22    1
    10    17    19    1
    11    11     9    2
    12    23    22    1
    13    23    24    1
    14    13     9    1
    15    22    31    1
    16    12     9    1
    17    12     5    1
    18     9    10    1
    19     3     1    2
    20    24    25    2
    21     2     1    1
    22     8     1    1
    23     8     5    1
    24     1     4    1
    25    31    25    1
    26    31    30    2
    27     5     7    2
    28     5     6    1
    29    25    26    1
    30    30    29    1
    31    26    27    1
    32    26    28    2
    33    29    28    1
