@<TRIPOS>MOLECULE
3ilr_SGN_A_1.pdb
 20 20 0 0 0
SMALL
GASTEIGER

@<TRIPOS>ATOM
      1  C1        25.4710   18.6460   23.8570 C.3   377  SGN377      0.2895
      2  C2        26.3910   19.2590   22.8330 C.3   377  SGN377      0.1858
      3  C3        26.9270   18.1850   21.8960 C.3   377  SGN377      0.2073
      4  C4        27.6020   17.0950   22.7400 C.3   377  SGN377      0.2133
      5  C5        26.5960   16.5490   23.7660 C.3   377  SGN377      0.1826
      6  C6        27.2360   15.5300   24.6970 C.3   377  SGN377      0.2046
      7  N         25.6420   20.2890   22.1460 N.3   377  SGN377     -0.1129
      8  O1        24.3210   18.1030   23.2310 O.3   377  SGN377     -0.1882
      9  O3        27.8260   18.8400   21.0230 O.3   377  SGN377     -0.2186
     10  O4        28.1800   16.0590   21.9440 O.3   377  SGN377     -0.2176
     11  O5        26.1390   17.6300   24.5360 O.3   377  SGN377     -0.3245
     12  O6        28.5950   15.4920   24.3260 O.3   377  SGN377     -0.2384
     13  S1        26.0390   21.8130   22.4340 S.3   377  SGN377     -0.1288
     14  O1S       24.8220   22.6380   22.4880 O.3   377  SGN377     -0.2918
     15  O2S       26.7310   21.9030   23.7250 O.3   377  SGN377     -0.2918
     16  O3S       26.8830   22.1510   21.3030 O.3   377  SGN377     -0.2918
     17  S2        29.3990   14.1730   24.3150 S.3   377  SGN377     -0.0001
     18  O4S       30.6060   14.4810   25.0880 O.3   377  SGN377     -0.2682
     19  O5S       28.5930   13.1540   24.9890 O.2   377  SGN377     -0.3452
     20  O6S       29.6960   13.8450   22.9120 O.2   377  SGN377     -0.3452
@<TRIPOS>BOND
     1     9     3    1
     2    16    13    1
     3     3     4    1
     4     3     2    1
     5    10     4    1
     6     7    13    1
     7     7     2    1
     8    13    14    1
     9    13    15    1
    10     4     5    1
    11     2     1    1
    12    20    17    2
    13     8     1    1
    14     5    11    1
    15     5     6    1
    16     1    11    1
    17    17    12    1
    18    17    19    2
    19    17    18    1
    20    12     6    1
