@<TRIPOS>MOLECULE
3ilr_IXD_A_1.pdb
 15 15 0 0 0
SMALL
GASTEIGER

@<TRIPOS>ATOM
      1  S         27.9030   14.4090   18.0140 S.3     2  IXD2       -0.0001
      2  C1        29.1280   16.1950   21.0040 C.3     2  IXD2        0.1772
      3  C2        29.4570   15.6030   19.6310 C.3     2  IXD2        0.2028
      4  O2        28.6520   14.4460   19.3760 O.3     2  IXD2       -0.2385
      5  C3        30.9550   15.3250   19.4190 C.3     2  IXD2        0.1868
      6  O3        31.2030   13.9650   19.0290 O.3     2  IXD2       -0.2203
      7  C4        31.7620   15.6810   20.6430 C.3     2  IXD2        0.0768
      8  C5        31.4790   16.8400   21.2400 C.3     2  IXD2        0.2204
      9  O5        30.0890   17.2230   21.2860 O.3     2  IXD2       -0.3422
     10  C6        32.5070   17.6950   21.8170 C.2     2  IXD2        0.3914
     11  O1S       27.1190   13.1570   17.8430 O.2     2  IXD2       -0.3452
     12  O2S       27.0690   15.6360   17.9300 O.3     2  IXD2       -0.2682
     13  O3S       28.8760   14.4830   16.8990 O.2     2  IXD2       -0.3452
     14  O61       33.6440   17.2400   22.0720 O.co2   2  IXD2       -0.2430
     15  O62       32.2140   18.8740   22.0440 O.co2   2  IXD2       -0.2430
@<TRIPOS>BOND
     1    13     1    2
     2    11     1    2
     3    12     1    1
     4     1     4    1
     5     6     5    1
     6     4     3    1
     7     5     3    1
     8     5     7    1
     9     3     2    1
    10     7     8    1
    11     2     9    1
    12     8     9    1
    13     8    10    1
    14    10    15   ar
    15    10    14   ar
