@<TRIPOS>MOLECULE
3ilt_TRU_B_1.pdb
 20 21 0 0 0
SMALL
GASTEIGER

@<TRIPOS>ATOM
      1  S1        17.9710    3.3040   28.5650 S.O2  800  TRU800      0.0798
      2  O17       17.0210    2.7460   27.6000 O.2   800  TRU800     -0.1515
      3  O16       18.4880    4.5790   28.0590 O.2   800  TRU800     -0.1515
      4  N10       19.1360    2.3200   28.7710 N.3   800  TRU800     -0.0518
      5  C9        19.9090    2.3280   30.0940 C.3   800  TRU800      0.2293
      6  C18       20.8480    1.0360   30.1180 C.3   800  TRU800      0.1991
      7 CL20       21.9400    1.0640   28.7040 Cl    800  TRU800     -0.0933
      8 CL19       19.8380   -0.4390   30.0590 Cl    800  TRU800     -0.0933
      9  N8        18.9600    2.2480   31.3280 N.2   800  TRU800     -0.2488
     10  C3        17.7270    3.0960   31.3970 C.2   800  TRU800      0.0966
     11  C4        17.0400    3.2180   32.6420 C.2   800  TRU800      0.0292
     12  C5        15.8130    3.9340   32.7090 C.2   800  TRU800      0.0644
     13 CL11       15.0130    4.1910   34.2860 Cl    800  TRU800     -0.0847
     14  C6        15.2330    4.4660   31.5210 C.3   800  TRU800      0.2047
     15  S12       13.9210    5.2660   31.5940 S.O2  800  TRU800      0.0810
     16  N15       12.8000    4.3470   31.7960 N.3   800  TRU800      0.0352
     17  O14       13.7380    5.9700   30.3920 O.2   800  TRU800     -0.1542
     18  O13       13.9850    6.1760   32.6670 O.2   800  TRU800     -0.1542
     19  C7        15.8860    4.2790   30.2610 C.2   800  TRU800      0.0255
     20  C2        17.1210    3.5780   30.2000 C.2   800  TRU800      0.1386
@<TRIPOS>BOND
     1     2     1    2
     2     3     1    2
     3     1     4    1
     4     1    20    1
     5     7     6    1
     6     4     5    1
     7     8     6    1
     8     5     6    1
     9     5     9    1
    10    20    19    2
    11    20    10    1
    12    19    14    1
    13    17    15    2
    14     9    10    2
    15    10    11    1
    16    14    15    1
    17    14    12    1
    18    15    16    1
    19    15    18    2
    20    11    12    2
    21    12    13    1
