@<TRIPOS>MOLECULE
3ilt_GLU_B_1.pdb
 10 9 0 0 0
SMALL
GASTEIGER

@<TRIPOS>ATOM
      1  N         18.9890   17.2230   26.4740 N.3   400  GLU400     -0.1208
      2  CA        19.1350   18.1350   25.3540 C.3   400  GLU400      0.1949
      3  C         20.5840   18.2130   24.9450 C.2   400  GLU400      0.3819
      4  O         20.9170   19.0100   24.0780 O.co2 400  GLU400     -0.2441
      5  CB        18.6220   19.5260   25.7030 C.3   400  GLU400      0.0424
      6  CG        17.1180   19.6960   25.5580 C.3   400  GLU400      0.1161
      7  CD        16.6740   19.7060   24.1010 C.2   400  GLU400      0.3649
      8  OE1       15.4510   19.5860   23.8410 O.co2 400  GLU400     -0.2457
      9  OE2       17.5550   19.8400   23.2230 O.co2 400  GLU400     -0.2457
     10  OXT       21.4380   17.4930   25.4760 O.co2 400  GLU400     -0.2441
@<TRIPOS>BOND
     1     9     7   ar
     2     8     7   ar
     3     4     3   ar
     4     7     6    1
     5     3     2    1
     6     3    10   ar
     7     2     5    1
     8     2     1    1
     9     6     5    1
