@<TRIPOS>MOLECULE
3ilu_GLU_B_1.pdb
 10 9 0 0 0
SMALL
GASTEIGER

@<TRIPOS>ATOM
      1  N          4.0100  -38.6420  -27.2970 N.3   400  GLU400     -0.1208
      2  CA         3.7650  -37.6840  -26.2190 C.3   400  GLU400      0.1949
      3  C          2.2670  -37.5690  -25.9770 C.2   400  GLU400      0.3819
      4  O          1.8450  -36.7280  -25.1800 O.co2 400  GLU400     -0.2441
      5  CB         4.3360  -36.2920  -26.5590 C.3   400  GLU400      0.0424
      6  CG         5.8370  -36.1900  -26.4650 C.3   400  GLU400      0.1161
      7  CD         6.3270  -36.0430  -25.0360 C.2   400  GLU400      0.3649
      8  OE1        7.5540  -36.1640  -24.8010 O.co2 400  GLU400     -0.2457
      9  OE2        5.4810  -35.7950  -24.1530 O.co2 400  GLU400     -0.2457
     10  OXT        1.4710  -38.3110  -26.5760 O.co2 400  GLU400     -0.2441
@<TRIPOS>BOND
     1     1     2    1
     2    10     3   ar
     3     5     6    1
     4     5     2    1
     5     6     7    1
     6     2     3    1
     7     3     4   ar
     8     7     8   ar
     9     7     9   ar
