@<TRIPOS>MOLECULE
3ilu_HFZ_B_1.pdb
 20 21 0 0 0
SMALL
GASTEIGER

@<TRIPOS>ATOM
      1  N01        6.8890  -53.9740  -27.6060 N.3   800  HFZ800      0.0392
      2  S02        5.5070  -52.9690  -27.7320 S.O2  800  HFZ800      0.0932
      3  O03        4.7420  -52.9030  -26.2660 O.2   800  HFZ800     -0.1503
      4  O04        5.9700  -51.4460  -28.1820 O.2   800  HFZ800     -0.1503
      5  C05        4.3660  -53.6560  -28.9830 C.2   800  HFZ800      0.1268
      6  C06        3.2130  -54.4180  -28.5630 C.2   800  HFZ800      0.0246
      7  C07        2.3060  -54.9580  -29.5490 C.3   800  HFZ800      0.2098
      8  C08        2.5210  -54.6730  -30.9840 C.2   800  HFZ800      0.0830
      9  C09        3.6870  -53.9630  -31.4040 C.2   800  HFZ800      0.0216
     10  C10        4.6220  -53.4430  -30.4100 C.2   800  HFZ800      0.0910
     11  C11        5.8440  -52.6210  -30.8650 C.3   800  HFZ800      0.4199
     12  F12        5.9950  -52.7360  -32.2210 F     800  HFZ800     -0.1658
     13  F13        6.9630  -53.0880  -30.2430 F     800  HFZ800     -0.1658
     14  F14        5.6560  -51.3060  -30.5380 F     800  HFZ800     -0.1658
     15  N15        1.6390  -55.2880  -32.0160 N.2   800  HFZ800     -0.2516
     16  C16        0.2000  -55.6010  -31.7130 C.3   800  HFZ800      0.2391
     17  N17        0.0350  -56.3450  -30.4790 N.3   800  HFZ800     -0.0544
     18  S18        0.8940  -55.8310  -29.0570 S.O2  800  HFZ800      0.0668
     19  O19        1.2820  -57.0000  -28.2620 O.2   800  HFZ800     -0.1554
     20  O20        0.0320  -54.9580  -28.2510 O.2   800  HFZ800     -0.1554
@<TRIPOS>BOND
     1    12    11    1
     2    15    16    1
     3    15     8    2
     4    16    17    1
     5     9     8    1
     6     9    10    2
     7     8     7    1
     8    11    14    1
     9    11    10    1
    10    11    13    1
    11    17    18    1
    12    10     5    1
    13     7    18    1
    14     7     6    1
    15    18    19    2
    16    18    20    2
    17     5     6    2
    18     5     2    1
    19     4     2    2
    20     2     1    1
    21     2     3    2
