@<TRIPOS>MOLECULE
3ilz_B72_A_1.pdb
 24 25 0 0 0
SMALL
GASTEIGER

@<TRIPOS>ATOM
      1  O1        25.4500   35.5030   38.0430 O.co2   1  B721       -0.2415
      2  C20       24.6510   36.0900   37.3860 C.2     1  B721        0.4084
      3  O2        23.7260   36.9660   37.9300 O.co2   1  B721       -0.2415
      4  C19       24.9020   36.1460   35.8840 C.3     1  B721        0.3186
      5  O3        25.3920   37.4440   35.5560 O.3     1  B721       -0.4637
      6  C1        25.6130   37.7470   34.2010 C.ar    1  B721        0.1387
      7  C2        26.3330   39.0540   33.9930 C.ar    1  B721        0.0323
      8  C3        26.5820   39.4410   32.5460 C.ar    1  B721       -0.0228
      9  C17       27.3350   40.7470   32.3190 C.3     1  B721        0.0308
     10  C4        26.8450   38.2500   31.5830 C.ar    1  B721       -0.0255
     11  C5        26.1890   36.8660   31.8570 C.ar    1  B721       -0.0228
     12  C6        25.8890   36.5610   33.3160 C.ar    1  B721        0.0323
     13  C18       26.4700   35.6840   30.9280 C.3     1  B721        0.0308
     14  C7        27.0230   38.6030   30.1100 C.3     1  B721        0.0520
     15  C8        28.5480   38.6500   29.8610 C.ar    1  B721       -0.0179
     16  C13       29.0520   39.7790   29.0910 C.ar    1  B721       -0.0051
     17  C12       30.4810   39.8400   28.7560 C.ar    1  B721        0.0161
     18  C14       30.9900   41.0390   27.9320 C.3     1  B721        0.0255
     19  C16       30.1830   41.1610   26.6390 C.3     1  B721        0.0048
     20  C15       31.0290   42.3220   28.7780 C.3     1  B721        0.0048
     21  C11       31.3770   38.7720   29.1960 C.ar    1  B721        0.1917
     22  O4        32.6850   38.8050   28.7710 O.3     1  B721       -0.2869
     23  C10       30.8520   37.5930   29.9920 C.ar    1  B721        0.0414
     24  C9        29.4490   37.5360   30.3330 C.ar    1  B721       -0.0007
@<TRIPOS>BOND
     1    19    18    1
     2    18    17    1
     3    18    20    1
     4    17    16   ar
     5    17    21   ar
     6    22    21    1
     7    16    15   ar
     8    21    23   ar
     9    15    14    1
    10    15    24   ar
    11    23    24   ar
    12    14    10    1
    13    13    11    1
    14    10    11   ar
    15    10     8   ar
    16    11    12   ar
    17     9     8    1
    18     8     7   ar
    19    12     6   ar
    20     7     6   ar
    21     6     5    1
    22     5     4    1
    23     4     2    1
    24     2     3   ar
    25     2     1   ar
