@<TRIPOS>MOLECULE
3im0_BDP_A_1.pdb
 12 12 0 0 0
SMALL
GASTEIGER

@<TRIPOS>ATOM
      1  C1         3.6590  -14.8310    8.4960 C.3   301  BDP301      0.1783
      2  C2         5.0130  -14.7510    9.2130 C.3   301  BDP301      0.2141
      3  C3         5.7400  -16.0560    9.3830 C.3   301  BDP301      0.2178
      4  C4         4.7740  -17.2160    9.6410 C.3   301  BDP301      0.2227
      5  C5         3.4060  -17.0960    9.0440 C.3   301  BDP301      0.2512
      6  C6         2.4670  -18.2410    9.3320 C.2   301  BDP301      0.3940
      7  O2         5.6630  -13.6520    8.5790 O.3   301  BDP301     -0.2176
      8  O3         6.7770  -16.1830   10.3930 O.3   301  BDP301     -0.2175
      9  O4         5.4050  -18.4370    9.2560 O.3   301  BDP301     -0.2171
     10  O5         2.8090  -15.8210    9.0220 O.3   301  BDP301     -0.3403
     11  O6A        2.9210  -19.4130    9.1790 O.co2 301  BDP301     -0.2429
     12  O6B        1.2750  -18.0380    9.6980 O.co2 301  BDP301     -0.2429
@<TRIPOS>BOND
     1     1    10    1
     2     1     2    1
     3     7     2    1
     4    10     5    1
     5     5     6    1
     6     5     4    1
     7    11     6   ar
     8     2     3    1
     9     9     4    1
    10     6    12   ar
    11     3     4    1
    12     3     8    1
