@<TRIPOS>MOLECULE
3imc_BZ3_A_1.pdb
 11 12 0 0 0
SMALL
GASTEIGER

@<TRIPOS>ATOM
      1  CAA       10.8110    9.4790   -4.9270 C.3   702  BZ3702      0.2525
      2  CAB       15.0230   10.6810   -0.2970 C.2   702  BZ3702      0.0946
      3  CAC       14.4980    9.8200   -4.7700 C.2   702  BZ3702      0.0378
      4  CAD       13.7050   10.4860   -0.6880 C.2   702  BZ3702      0.0046
      5  CAE       15.5050   10.0790   -3.8390 C.2   702  BZ3702      0.0184
      6  CAF       12.8240    9.9860   -3.0220 C.2   702  BZ3702      0.0208
      7  NAG       15.8520   10.5520   -1.3710 N.2   702  BZ3702     -0.2478
      8  OAH       12.1910    9.5130   -5.2970 O.2   702  BZ3702     -0.4717
      9  CAI       13.1670    9.7640   -4.3610 C.2   702  BZ3702      0.1352
     10  CAJ       13.8330   10.2430   -2.0880 C.3   702  BZ3702      0.0886
     11  CAK       15.1500   10.2940   -2.4980 C.2   702  BZ3702      0.0670
@<TRIPOS>BOND
     1     8     1    1
     2     8     9    1
     3     3     9    1
     4     3     5    2
     5     9     6    2
     6     5    11    1
     7     6    10    1
     8    11    10    1
     9    11     7    2
    10    10     4    1
    11     7     2    1
    12     4     2    2
