@<TRIPOS>MOLECULE
3imd_FYQ_A_1.pdb
 38 38 0 0 0
SMALL
GASTEIGER

@<TRIPOS>ATOM
      1  CAN       -0.6390  -12.5960  -16.0750 C.ar    1  FYQ1       -0.0011
      2  CAP       -0.9550  -12.0660  -17.3190 C.ar    1  FYQ1        0.0371
      3  CBH       -0.5880  -10.7670  -17.6520 C.ar    1  FYQ1        0.1490
      4  CAQ        0.0910   -9.9950  -16.7150 C.ar    1  FYQ1        0.0371
      5  CAO        0.4100  -10.5230  -15.4680 C.ar    1  FYQ1       -0.0011
      6  CBG        0.0540  -11.8280  -15.1460 C.ar    1  FYQ1       -0.0215
      7  OAZ       -0.8700  -10.3320  -18.9100 O.3     1  FYQ1       -0.3998
      8  PBL       -0.4570   -8.8110  -19.2420 P.3     1  FYQ1        0.5887
      9  OAK       -1.3400   -7.7990  -18.6230 O.3     1  FYQ1       -0.1039
     10  OAM       -0.4990   -8.7170  -20.8470 O.2     1  FYQ1       -0.2114
     11  OAL        1.0860   -8.6150  -18.8390 O.3     1  FYQ1       -0.1039
     12  CAV        0.5060  -12.4790  -13.8360 C.3     1  FYQ1        0.0360
     13  CBI        1.9630  -12.9340  -13.9570 C.3     1  FYQ1        0.0917
     14  CBE        2.4020  -13.7400  -12.7310 C.2     1  FYQ1        0.2421
     15  OAI        2.1420  -14.9380  -12.6290 O.2     1  FYQ1       -0.2733
     16  CAU        2.1210  -13.8000  -15.2090 C.3     1  FYQ1        0.0963
     17  CBD        3.5980  -13.9280  -15.5870 C.2     1  FYQ1        0.2419
     18  NAW        4.0570  -15.1770  -15.6520 N.am    1  FYQ1       -0.2035
     19  CAA        5.4580  -15.3520  -16.0610 C.3     1  FYQ1        0.1385
     20  OAH        4.2760  -12.9300  -15.8150 O.2     1  FYQ1       -0.2733
     21  NAX        3.0750  -13.0570  -11.8090 N.am    1  FYQ1       -0.1978
     22  CBK        3.5890  -13.6990  -10.5890 C.3     1  FYQ1        0.1732
     23  CBF        2.4720  -14.2730   -9.7130 C.2     1  FYQ1        0.2616
     24  OAJ        2.6690  -15.2850   -9.0410 O.2     1  FYQ1       -0.2715
     25  CAS        4.4140  -12.6970   -9.7790 C.3     1  FYQ1        0.0408
     26  CAR        5.6030  -12.1730  -10.5870 C.3     1  FYQ1        0.0908
     27  CBA        6.5560  -13.3020  -10.9850 C.2     1  FYQ1        0.2608
     28  OAE        6.9280  -13.4320  -12.1510 O.2     1  FYQ1       -0.2717
     29  NAB        6.9400  -14.0960   -9.9890 N.am    1  FYQ1       -0.0878
     30  N          1.3140  -13.6200   -9.7280 N.am    1  FYQ1       -0.1958
     31  CA         0.1800  -14.0800   -8.9100 C.3     1  FYQ1        0.1836
     32  C         -0.8290  -14.8680   -9.7480 C.2     1  FYQ1        0.2811
     33  O         -1.9870  -15.0220   -9.3630 O.2     1  FYQ1       -0.2698
     34  CB        -0.5000  -12.8900   -8.2280 C.3     1  FYQ1        0.1196
     35  CG        -1.0030  -11.8590   -9.2410 C.2     1  FYQ1        0.2630
     36  OD1       -0.4760  -11.7430  -10.3450 O.2     1  FYQ1       -0.2716
     37  ND2       -2.0240  -11.1150   -8.8230 N.am    1  FYQ1       -0.0877
     38  NAD       -0.3520  -15.3790  -10.8800 N.am    1  FYQ1       -0.0863
@<TRIPOS>BOND
     1    10     8    2
     2     8     7    1
     3     8    11    1
     4     8     9    1
     5     7     3    1
     6     3     2   ar
     7     3     4   ar
     8     2     1   ar
     9     4     5   ar
    10     1     6   ar
    11    19    18    1
    12    20    17    2
    13    18    17   am
    14    17    16    1
    15     5     6   ar
    16    16    13    1
    17     6    12    1
    18    13    12    1
    19    13    14    1
    20    14    15    2
    21    14    21   am
    22    28    27    2
    23    21    22    1
    24    27    26    1
    25    27    29   am
    26    38    32   am
    27    22    25    1
    28    22    23    1
    29    26    25    1
    30    36    35    2
    31    32    33    2
    32    32    31    1
    33    30    23   am
    34    30    31    1
    35    23    24    2
    36    35    37   am
    37    35    34    1
    38    31    34    1
