@<TRIPOS>MOLECULE
3ime_BZ2_A_1.pdb
 12 13 0 0 0
SMALL
GASTEIGER

@<TRIPOS>ATOM
      1  OAA       15.3390   12.9190    3.5300 O.co2 301  BZ2301     -0.2371
      2  OAB       15.7680   11.0450    2.4290 O.co2 301  BZ2301     -0.2371
      3  CAC       13.8440    9.1690    8.7100 C.ar  301  BZ2301      0.0002
      4  CAD       13.9770    7.9680    8.0180 C.ar  301  BZ2301      0.0031
      5  CAE       14.0620   10.3450    8.0220 C.ar  301  BZ2301      0.0031
      6  CAF       14.3200    7.9390    6.6700 C.ar  301  BZ2301      0.0375
      7  CAG       14.6790   11.3020    5.8100 C.ar  301  BZ2301      0.0474
      8  OAH       14.8910    9.4210    4.6550 O.2   301  BZ2301     -0.4468
      9  CAI       15.3550   11.6630    3.4240 C.2   301  BZ2301      0.4216
     10  CAJ       14.9560   10.7940    4.6140 C.ar  301  BZ2301      0.2246
     11  CAK       14.4080   10.3210    6.6680 C.ar  301  BZ2301      0.0378
     12  CAL       14.5400    9.1220    5.9710 C.ar  301  BZ2301      0.1456
@<TRIPOS>BOND
     1     2     9   ar
     2     9     1   ar
     3     9    10    1
     4    10     8   ar
     5    10     7   ar
     6     8    12   ar
     7     7    11   ar
     8    12    11   ar
     9    12     6   ar
    10    11     5   ar
    11     6     4   ar
    12     4     3   ar
    13     5     3   ar
