@<TRIPOS>MOLECULE
3img_BZ3_A_1.pdb
 11 12 0 0 0
SMALL
GASTEIGER

@<TRIPOS>ATOM
      1  CAA       11.0130    9.2480   -4.8860 C.3   401  BZ3401      0.2525
      2  CAB       15.1540   10.6640   -0.3500 C.2   401  BZ3401      0.0985
      3  CAC       14.6520    9.7400   -4.7730 C.2   401  BZ3401      0.0171
      4  CAD       13.8920   10.5310   -0.7930 C.2   401  BZ3401      0.0219
      5  CAE       15.6410    9.9650   -3.8110 C.3   401  BZ3401      0.0749
      6  CAF       12.9360   10.0220   -3.0710 C.2   401  BZ3401      0.0378
      7  NAG       15.9890   10.4900   -1.3840 N.2   401  BZ3401     -0.2478
      8  OAH       12.3530    9.5300   -5.3910 O.2   401  BZ3401     -0.4717
      9  CAI       13.2960    9.7580   -4.4110 C.2   401  BZ3401      0.1349
     10  CAJ       13.9300   10.2620   -2.1070 C.2   401  BZ3401      0.0184
     11  CAK       15.2770   10.2350   -2.4830 C.2   401  BZ3401      0.0636
@<TRIPOS>BOND
     1     8     1    1
     2     8     9    1
     3     3     9    2
     4     3     5    1
     5     9     6    1
     6     5    11    1
     7     6    10    2
     8    11    10    1
     9    11     7    2
    10    10     4    1
    11     7     2    1
    12     4     2    2
