@<TRIPOS>MOLECULE
3img_BZ2_A_1.pdb
 12 13 0 0 0
SMALL
GASTEIGER

@<TRIPOS>ATOM
      1  OAA       16.0320   10.7790    2.8320 O.co2 301  BZ2301     -0.2371
      2  OAB       15.4770   12.6410    3.8640 O.co2 301  BZ2301     -0.2371
      3  CAC       13.3530    9.1350    8.9380 C.ar  301  BZ2301      0.0002
      4  CAD       13.7440    7.9040    8.4150 C.ar  301  BZ2301      0.0031
      5  CAE       13.5680   10.2970    8.2120 C.ar  301  BZ2301      0.0031
      6  CAF       14.3410    7.8240    7.1670 C.ar  301  BZ2301      0.0375
      7  CAG       14.4810   11.1450    6.0760 C.ar  301  BZ2301      0.0474
      8  OAH       15.1180    9.2240    5.1920 O.2   301  BZ2301     -0.4468
      9  CAI       15.5480   11.3960    3.8060 C.2   301  BZ2301      0.4216
     10  CAJ       15.0490   10.5830    5.0150 C.ar  301  BZ2301      0.2246
     11  CAK       14.1700   10.2110    6.9660 C.ar  301  BZ2301      0.0378
     12  CAL       14.5590    8.9860    6.4340 C.ar  301  BZ2301      0.1456
@<TRIPOS>BOND
     1     1     9   ar
     2     9     2   ar
     3     9    10    1
     4    10     8   ar
     5    10     7   ar
     6     8    12   ar
     7     7    11   ar
     8    12    11   ar
     9    12     6   ar
    10    11     5   ar
    11     6     4   ar
    12     5     3   ar
    13     4     3   ar
