@<TRIPOS>MOLECULE
3imj_AYI_A_1.pdb
 37 38 0 0 0
SMALL
GASTEIGER

@<TRIPOS>ATOM
      1  CAB        5.9550  -19.4100   13.4210 C.3     1  AYI1        0.1385
      2  OAH        3.6420  -18.0920   13.9180 O.2     1  AYI1       -0.2733
      3  OAJ       -0.3500  -20.7060   12.6250 O.2     1  AYI1       -0.2733
      4  OAK        6.6000  -14.2610   10.5180 O.2     1  AYI1       -0.2114
      5  OAL        5.7700  -11.8400   10.6480 O.3     1  AYI1       -0.1039
      6  OAM        5.2710  -13.4660   12.5680 O.3     1  AYI1       -0.1039
      7  CAN        2.3180  -14.9180   11.3470 C.ar    1  AYI1        0.0371
      8  CAO        4.1640  -16.1010   10.3640 C.ar    1  AYI1        0.0371
      9  CAP        1.6990  -16.1290   11.6360 C.ar    1  AYI1       -0.0011
     10  CAQ        3.5440  -17.3120   10.6530 C.ar    1  AYI1       -0.0011
     11  NAT        4.6600  -19.8110   12.8540 N.am    1  AYI1       -0.2035
     12  OAW        4.0710  -13.7120   10.2900 O.3     1  AYI1       -0.3998
     13  CAZ        3.5980  -19.0810   13.1880 C.2     1  AYI1        0.2418
     14  CBB       -0.2350  -19.6150   13.1800 C.2     1  AYI1        0.2421
     15  CBC        3.5510  -14.9000   10.7050 C.ar    1  AYI1        0.1490
     16  CBD        2.3070  -17.3300   11.2880 C.ar    1  AYI1       -0.0213
     17  CBH        2.2720  -19.5720   12.6070 C.3     1  AYI1        0.0916
     18  CBI        1.0320  -18.7720   13.0050 C.3     1  AYI1        0.0917
     19  CBJ        1.5940  -18.6530   11.5860 C.3     1  AYI1        0.0406
     20  PBK        5.4930  -13.3910   10.9760 P.3     1  AYI1        0.5887
     21  CAA       -2.1190  -19.6950   17.2440 C.3     1  AYI1        0.0001
     22  OAI       -3.8080  -21.2240   12.9700 O.2     1  AYI1       -0.2715
     23  CAR       -2.5440  -18.4660   16.4390 C.3     1  AYI1        0.0022
     24  CAC       -4.6020  -19.5870   15.5250 C.3     1  AYI1        0.0023
     25  NAV       -1.1690  -19.0720   13.9560 N.am    1  AYI1       -0.1978
     26  CBA       -3.2230  -20.1420   13.0230 C.2     1  AYI1        0.2616
     27  CBE       -3.2970  -18.8700   15.1690 C.3     1  AYI1        0.0290
     28  CBG       -2.4310  -19.7560   14.2730 C.3     1  AYI1        0.1726
     29  C         -3.0590  -20.0430    9.7250 C.2     1  AYI1        0.2811
     30  N         -3.2550  -19.2430   12.0430 N.am    1  AYI1       -0.1958
     31  O         -3.3960  -20.0480    8.5420 O.2     1  AYI1       -0.2698
     32  CA        -4.0030  -19.5190   10.8080 C.3     1  AYI1        0.1836
     33  CB        -4.7230  -18.2610   10.3160 C.3     1  AYI1        0.1196
     34  CG        -3.7460  -17.1570    9.9090 C.2     1  AYI1        0.2630
     35  NAE       -1.8880  -20.4860   10.1720 N.am    1  AYI1       -0.0863
     36  OD1       -2.6720  -17.0130   10.4900 O.2     1  AYI1       -0.2716
     37  ND2       -4.1600  -16.3860    8.9060 N.am    1  AYI1       -0.0877
@<TRIPOS>BOND
     1    31    29    2
     2    37    34   am
     3    29    35   am
     4    29    32    1
     5    34    33    1
     6    34    36    2
     7    12    15    1
     8    12    20    1
     9    33    32    1
    10     8    10   ar
    11     8    15   ar
    12     4    20    2
    13     5    20    1
    14    10    16   ar
    15    15     7   ar
    16    32    30    1
    17    20     6    1
    18    16    19    1
    19    16     9   ar
    20     7     9   ar
    21    19    17    1
    22    19    18    1
    23    30    26   am
    24    17    18    1
    25    17    13    1
    26     3    14    2
    27    11    13   am
    28    11     1    1
    29    22    26    2
    30    18    14    1
    31    26    28    1
    32    14    25   am
    33    13     2    2
    34    25    28    1
    35    28    27    1
    36    27    24    1
    37    27    23    1
    38    23    21    1
