@<TRIPOS>MOLECULE
3imr_IW1_A_1.pdb
 19 20 0 0 0
SMALL
GASTEIGER

@<TRIPOS>ATOM
      1  OAA        0.5600   -0.3200   -1.7110 O.3   128  IW1128     -0.2855
      2 CLAB       -0.1700    2.7750   -8.9170 Cl    128  IW1128     -0.0822
      3 CLAC        0.3990   -2.5880   -9.7470 Cl    128  IW1128     -0.0822
      4 BRAD       -1.9300    1.5930   -2.1830 Br    128  IW1128     -0.0457
      5 BRAE        2.5280   -1.9060   -3.9240 Br    128  IW1128     -0.0457
      6  CAF       -0.6240    0.3950   -7.0860 C.2   128  IW1128      0.0001
      7  CAG        0.3080   -0.0330   -8.0340 C.2   128  IW1128      0.0017
      8  CAH       -0.3170    0.4740  -12.1450 C.ar  128  IW1128      0.0017
      9  CAI       -0.3380    1.5680  -11.2800 C.ar  128  IW1128      0.0114
     10  CAJ       -0.0870   -0.7970  -11.6390 C.ar  128  IW1128      0.0114
     11  CAK       -1.0910    0.8380   -4.7560 C.ar  128  IW1128      0.0099
     12  CAL        0.7100   -0.5650   -5.3790 C.ar  128  IW1128      0.0099
     13  CAM        0.2750   -0.1510   -3.0320 C.ar  128  IW1128      0.2079
     14  CAN       -0.1210    1.3880   -9.9320 C.ar  128  IW1128      0.0585
     15  CAO        0.1200   -0.9830  -10.2850 C.ar  128  IW1128      0.0585
     16  CAP       -0.7960    0.6710   -3.4090 C.ar  128  IW1128      0.0739
     17  CAQ        1.0210   -0.7610   -4.0580 C.ar  128  IW1128      0.0739
     18  CAR       -0.3460    0.2260   -5.7420 C.ar  128  IW1128      0.0012
     19  CAS        0.0960    0.1130   -9.4020 C.ar  128  IW1128      0.0212
@<TRIPOS>BOND
     1     8    10   ar
     2     8     9   ar
     3    10    15   ar
     4     9    14   ar
     5    15     3    1
     6    15    19   ar
     7    14    19   ar
     8    14     2    1
     9    19     7    1
    10     7     6    2
    11     6    18    1
    12    18    12   ar
    13    18    11   ar
    14    12    17   ar
    15    11    16   ar
    16    17     5    1
    17    17    13   ar
    18    16    13   ar
    19    16     4    1
    20    13     1    1
