@<TRIPOS>MOLECULE
3ims_IW2_A_1.pdb
 19 20 0 0 0
SMALL
GASTEIGER

@<TRIPOS>ATOM
      1  OAA       -0.0920    0.0010   -1.0570 O.3   128  IW2128     -0.2855
      2 CLAB       -0.6470    2.5620   -8.9600 Cl    128  IW2128     -0.0825
      3 CLAC        0.1110   -2.8010   -8.8300 Cl    128  IW2128     -0.0825
      4 BRAD        2.1210   -2.0020   -1.9360 Br    128  IW2128     -0.0457
      5 BRAE       -1.9120    1.9590   -2.4980 Br    128  IW2128     -0.0457
      6  CAF        0.3100   -0.0840  -11.7470 C.ar  128  IW2128      0.0017
      7  CAG       -0.0050    1.0720  -11.0500 C.ar  128  IW2128      0.0111
      8  CAH        0.3600   -1.2930  -11.0620 C.ar  128  IW2128      0.0111
      9  CAI        1.2310   -0.8840   -4.3550 C.ar  128  IW2128      0.0057
     10  CAJ       -0.4680    0.7740   -4.5850 C.ar  128  IW2128      0.0057
     11  CAK        0.7170   -0.0530   -6.6640 C.3   128  IW2128      0.0311
     12  CAL       -0.5740   -0.1810   -7.4840 C.3   128  IW2128      0.0327
     13  CAM       -0.2790    1.0400   -9.7020 C.ar  128  IW2128      0.0545
     14  CAN        0.0740   -1.3020   -9.6990 C.ar  128  IW2128      0.0545
     15  CAO        0.1030   -0.0220   -2.3980 C.ar  128  IW2128      0.2079
     16  CAP        1.0400   -0.8620   -2.9820 C.ar  128  IW2128      0.0736
     17  CAQ       -0.6370    0.8090   -3.2160 C.ar  128  IW2128      0.0736
     18  CAR        0.4870   -0.0510   -5.1570 C.ar  128  IW2128     -0.0207
     19  CAS       -0.2530   -0.1540   -8.9850 C.ar  128  IW2128     -0.0007
@<TRIPOS>BOND
     1     6     8   ar
     2     6     7   ar
     3     8    14   ar
     4     7    13   ar
     5    13    19   ar
     6    13     2    1
     7    14    19   ar
     8    14     3    1
     9    19    12    1
    10    12    11    1
    11    11    18    1
    12    18    10   ar
    13    18     9   ar
    14    10    17   ar
    15     9    16   ar
    16    17     5    1
    17    17    15   ar
    18    16    15   ar
    19    16     4    1
    20    15     1    1
