@<TRIPOS>MOLECULE
3imt_IW3_A_1.pdb
 18 19 0 0 0
SMALL
GASTEIGER

@<TRIPOS>ATOM
      1  NAA        0.2290   -0.2150  -12.7020 N.pl3 128  IW3128     -0.1281
      2  OAB       -0.0040    0.1240   -0.6810 O.3   128  IW3128     -0.2855
      3 BRAC       -2.0820    1.8680   -1.9900 Br    128  IW3128     -0.0457
      4 BRAD        2.2010   -1.7670   -1.5410 Br    128  IW3128     -0.0457
      5  CAE       -0.2940    0.4680   -7.1890 C.2   128  IW3128      0.0000
      6  CAF        0.3580   -0.3180   -6.2440 C.2   128  IW3128      0.0000
      7  CAG        0.4290   -1.0790  -10.4820 C.ar  128  IW3128      0.0181
      8  CAH       -0.3590    1.1210  -10.8510 C.ar  128  IW3128      0.0181
      9  CAI        0.2990   -0.9160   -9.0980 C.ar  128  IW3128      0.0014
     10  CAJ       -0.4830    1.2980   -9.4640 C.ar  128  IW3128      0.0014
     11  CAK       -0.7150    0.6560   -4.2580 C.ar  128  IW3128      0.0099
     12  CAL        1.1000   -0.9010   -4.0330 C.ar  128  IW3128      0.0099
     13  CAM        0.1070   -0.0680  -11.3730 C.ar  128  IW3128      0.0891
     14  CAN        0.0660    0.0310   -2.0630 C.ar  128  IW3128      0.2079
     15  CAO       -0.8020    0.7600   -2.8640 C.ar  128  IW3128      0.0739
     16  CAP        1.0160   -0.7910   -2.6500 C.ar  128  IW3128      0.0739
     17  CAQ       -0.1580    0.2870   -8.5750 C.ar  128  IW3128      0.0001
     18  CAR        0.2350   -0.1740   -4.8530 C.ar  128  IW3128      0.0012
@<TRIPOS>BOND
     1     1    13    1
     2    13     8   ar
     3    13     7   ar
     4     8    10   ar
     5     7     9   ar
     6    10    17   ar
     7     9    17   ar
     8    17     5    1
     9     5     6    2
    10     6    18    1
    11    18    11   ar
    12    18    12   ar
    13    11    15   ar
    14    12    16   ar
    15    15    14   ar
    16    15     3    1
    17    16    14   ar
    18    16     4    1
    19    14     2    1
