@<TRIPOS>MOLECULE
3imu_IW4_A_1.pdb
 18 19 0 0 0
SMALL
GASTEIGER

@<TRIPOS>ATOM
      1  NAA       -1.8050    0.4880   -0.9390 N.pl3 128  IW4128     -0.1281
      2  NAB        0.1420   -0.1050  -11.3860 N.pl3 128  IW4128     -0.1270
      3 BRAC        0.5640   -2.8270  -10.0440 Br    128  IW4128     -0.0476
      4 BRAD       -0.4870    2.7360  -10.5350 Br    128  IW4128     -0.0476
      5  CAE        0.4180   -0.6830   -5.0460 C.2   128  IW4128      0.0000
      6  CAF       -0.3920    0.1330   -5.8680 C.2   128  IW4128      0.0000
      7  CAG        1.3050   -1.2890   -1.4800 C.ar  128  IW4128      0.0014
      8  CAH        0.2350   -0.6930   -0.8230 C.ar  128  IW4128      0.0181
      9  CAI        1.3490   -1.2880   -2.8810 C.ar  128  IW4128      0.0001
     10  CAJ       -0.7210   -0.0790   -2.9630 C.ar  128  IW4128      0.0181
     11  CAK        0.0250   -1.0590   -7.9080 C.ar  128  IW4128      0.0081
     12  CAL       -0.4350    1.2600   -8.0580 C.ar  128  IW4128      0.0081
     13  CAM       -0.7810   -0.0910   -1.5670 C.ar  128  IW4128      0.0891
     14  CAN        0.1770   -1.1500   -9.2770 C.ar  128  IW4128      0.0518
     15  CAO       -0.2910    1.1970   -9.4510 C.ar  128  IW4128      0.0518
     16  CAP        0.0100   -0.0190  -10.0600 C.ar  128  IW4128      0.1014
     17  CAQ        0.3430   -0.6790   -3.6380 C.ar  128  IW4128      0.0013
     18  CAR       -0.2760    0.1270   -7.2650 C.ar  128  IW4128      0.0011
@<TRIPOS>BOND
     1     2    16    1
     2     4    15    1
     3    16    15   ar
     4    16    14   ar
     5     3    14    1
     6    15    12   ar
     7    14    11   ar
     8    12    18   ar
     9    11    18   ar
    10    18     6    1
    11     6     5    2
    12     5    17    1
    13    17    10   ar
    14    17     9   ar
    15    10    13   ar
    16     9     7   ar
    17    13     1    1
    18    13     8   ar
    19     7     8   ar
