@<TRIPOS>MOLECULE
3imv_IW5_A_1.pdb
 18 19 0 0 0
SMALL
GASTEIGER

@<TRIPOS>ATOM
      1  NAA        0.5890   -0.2900    0.5610 N.pl3 128  IW5128     -0.1281
      2  NAB        0.0570   -0.0130  -11.4290 N.pl3 128  IW5128     -0.1270
      3 BRAC       -0.5290    2.7920  -10.2420 Br    128  IW5128     -0.0476
      4 BRAD        0.5260   -2.7880  -10.2300 Br    128  IW5128     -0.0476
      5  CAE        0.4780   -0.6180   -5.0150 C.2   128  IW5128      0.0000
      6  CAF       -0.2570    0.2150   -5.8870 C.2   128  IW5128      0.0000
      7  CAG       -0.3480    0.3410   -1.5070 C.ar  128  IW5128      0.0181
      8  CAH        1.4920   -1.1960   -1.4470 C.ar  128  IW5128      0.0181
      9  CAI       -0.3870    0.2700   -2.9000 C.ar  128  IW5128      0.0014
     10  CAJ        1.4430   -1.2620   -2.8520 C.ar  128  IW5128      0.0014
     11  CAK       -0.3620    1.2110   -8.0220 C.ar  128  IW5128      0.0081
     12  CAL        0.1030   -1.1050   -7.9300 C.ar  128  IW5128      0.0081
     13  CAM        0.5890   -0.3810   -0.7720 C.ar  128  IW5128      0.0891
     14  CAN       -0.2820    1.1670   -9.3900 C.ar  128  IW5128      0.0518
     15  CAO        0.1810   -1.1660   -9.3240 C.ar  128  IW5128      0.0518
     16  CAP       -0.0100   -0.0070  -10.0760 C.ar  128  IW5128      0.1014
     17  CAQ        0.4990   -0.5430   -3.6030 C.ar  128  IW5128      0.0001
     18  CAR       -0.1830    0.0910   -7.2700 C.ar  128  IW5128      0.0011
@<TRIPOS>BOND
     1     2    16    1
     2     3    14    1
     3     4    15    1
     4    16    14   ar
     5    16    15   ar
     6    14    11   ar
     7    15    12   ar
     8    11    18   ar
     9    12    18   ar
    10    18     6    1
    11     6     5    2
    12     5    17    1
    13    17     9   ar
    14    17    10   ar
    15     9     7   ar
    16    10     8   ar
    17     7    13   ar
    18     8    13   ar
    19    13     1    1
