@<TRIPOS>MOLECULE
3imw_IW6_A_1.pdb
 21 22 0 0 0
SMALL
GASTEIGER

@<TRIPOS>ATOM
      1  CAA        2.6460   -2.4260   -2.5040 C.3   128  IW6128      0.2525
      2  CAB       -2.5500    2.2940   -3.0300 C.3   128  IW6128      0.2525
      3  NAC       -0.0160   -0.1060  -11.4260 N.pl3 128  IW6128     -0.1270
      4 BRAD        0.4850   -2.7630   -9.9570 Br    128  IW6128     -0.0476
      5 BRAE       -0.5900    2.7940  -10.5500 Br    128  IW6128     -0.0476
      6  CAF       -0.2300    0.5740   -5.8880 C.2   128  IW6128      0.0002
      7  CAG        0.1540   -0.3780   -4.9510 C.2   128  IW6128      0.0060
      8  CAH        0.0560    0.0620   -0.8170 C.ar  128  IW6128      0.0062
      9  CAI        0.9190   -0.8420   -1.3900 C.ar  128  IW6128      0.0371
     10  CAJ       -0.8210    0.8490   -1.5840 C.ar  128  IW6128      0.0371
     11  CAK        0.0970   -0.8670   -7.8200 C.ar  128  IW6128      0.0081
     12  CAL       -0.3530    1.4560   -8.1110 C.ar  128  IW6128      0.0081
     13  OAM        1.7130   -1.7940   -3.4240 O.3   128  IW6128     -0.4713
     14  OAN       -1.6350    1.4840   -3.7490 O.3   128  IW6128     -0.4713
     15  CAO       -0.1550    0.3710   -7.2680 C.ar  128  IW6128      0.0011
     16  CAP       -0.0510    0.0370  -10.0650 C.ar  128  IW6128      0.1014
     17  CAQ        0.1550   -1.0430   -9.1930 C.ar  128  IW6128      0.0518
     18  CAR       -0.3010    1.2610   -9.4650 C.ar  128  IW6128      0.0518
     19  CAS        0.0380   -0.1730   -3.5560 C.ar  128  IW6128      0.0679
     20  CAT        0.8940   -0.9460   -2.7820 C.ar  128  IW6128      0.1416
     21  CAU       -0.8190    0.7300   -2.9690 C.ar  128  IW6128      0.1416
@<TRIPOS>BOND
     1     3    16    1
     2     5    18    1
     3    16    18   ar
     4    16    17   ar
     5     4    17    1
     6    18    12   ar
     7    17    11   ar
     8    12    15   ar
     9    11    15   ar
    10    15     6    1
    11     6     7    2
    12     7    19    1
    13    14     2    1
    14    14    21    1
    15    19    21   ar
    16    19    20   ar
    17    13    20    1
    18    13     1    1
    19    21    10   ar
    20    20     9   ar
    21    10     8   ar
    22     9     8   ar
