@<TRIPOS>MOLECULE
3imx_B84_A_1.pdb
 37 41 0 0 0
SMALL
GASTEIGER

@<TRIPOS>ATOM
      1  S1         4.0870    5.9000  -16.1130 S.O2  466  B84466      0.0634
      2  O2         5.3290    5.4560  -16.6500 O.2   466  B84466     -0.1528
      3  O3         3.9680    6.4970  -14.8280 O.2   466  B84466     -0.1528
      4  N4         3.4180    6.9150  -17.2180 N.3   466  B84466     -0.1527
      5  C5         2.2550    7.7760  -16.8080 C.3   466  B84466      0.1131
      6  C8         2.2660    9.0710  -17.6240 C.3   466  B84466      0.0915
      7  N11        2.2840    8.7290  -19.0700 N.3   466  B84466     -0.2690
      8  C12        3.5840    8.0730  -19.3990 C.3   466  B84466      0.0915
      9  C15        3.6680    6.7030  -18.6960 C.3   466  B84466      0.1131
     10  C18        2.2520   10.0150  -19.7830 C.3   466  B84466      0.0897
     11  C22        3.0550    4.4950  -16.0250 C.ar  466  B84466      0.1222
     12  C23        3.2560    3.4340  -16.9090 C.ar  466  B84466      0.0196
     13  C25        2.4630    2.2980  -16.7930 C.ar  466  B84466     -0.0024
     14  C27        1.4660    2.2220  -15.8030 C.ar  466  B84466     -0.0137
     15  C28        1.2460    3.3010  -14.9250 C.ar  466  B84466     -0.0024
     16  C30        2.0430    4.4370  -15.0410 C.ar  466  B84466      0.0196
     17  C32        0.6830    0.9170  -15.6790 C.3   466  B84466      0.1008
     18  C34        1.0430    0.1760  -14.3460 C.3   466  B84466      0.0136
     19  C37        2.5760    0.0280  -14.1070 C.3   466  B84466      0.0008
     20  C39        2.8620   -0.5130  -12.7070 C.3   466  B84466      0.0000
     21  C42        4.1920   -1.2480  -12.8710 C.3   466  B84466      0.0000
     22  C45        4.0230   -1.9570  -14.2390 C.3   466  B84466      0.0000
     23  C48        3.2590   -0.9320  -15.1080 C.3   466  B84466      0.0000
     24  C51       -0.8030    1.0350  -15.7920 C.2   466  B84466      0.2517
     25  O52       -1.3540    2.1300  -15.8980 O.2   466  B84466     -0.2726
     26  N53       -1.5110   -0.1270  -15.7570 N.am  466  B84466     -0.1431
     27  C55       -2.8290   -0.1530  -16.0930 C.2   466  B84466      0.2395
     28  S56       -3.8690    1.2270  -16.5110 S.3   466  B84466     -0.0038
     29  C57       -5.3460    0.2950  -16.7970 C.2   466  B84466      0.1975
     30  N58       -6.5670    0.6060  -17.1510 N.2   466  B84466     -0.3582
     31  C59       -7.5300   -0.3160  -17.2980 C.2   466  B84466      0.2783
     32  C60       -7.2320   -1.6840  -17.0620 C.2   466  B84466      0.0744
     33  C62       -5.9450   -2.0640  -16.6850 C.2   466  B84466      0.0413
     34  C64       -4.9260   -1.0450  -16.5360 C.2   466  B84466      0.1698
     35  N65       -3.6330   -1.1830  -16.1870 N.2   466  B84466     -0.3755
     36  O66       -8.7900    0.0510  -17.6630 O.2   466  B84466     -0.4476
     37  C67       -8.7590    1.2720  -18.4420 C.3   466  B84466      0.2553
@<TRIPOS>BOND
     1    10     7    1
     2     8     7    1
     3     8     9    1
     4     7     6    1
     5     9     4    1
     6    37    36    1
     7    36    31    1
     8     6     5    1
     9    31    30    2
    10    31    32    1
    11     4     5    1
    12     4     1    1
    13    30    29    2
    14    32    33    2
    15    12    13   ar
    16    12    11   ar
    17    29    34    1
    18    29    28    1
    19    13    14   ar
    20    33    34    1
    21     2     1    2
    22    34    35    2
    23    28    27    1
    24    35    27    2
    25     1    11    1
    26     1     3    2
    27    27    26    1
    28    11    16   ar
    29    25    24    2
    30    14    17    1
    31    14    15   ar
    32    24    26   am
    33    24    17    1
    34    17    18    1
    35    23    22    1
    36    23    19    1
    37    16    15   ar
    38    18    19    1
    39    22    21    1
    40    19    20    1
    41    21    20    1
