@<TRIPOS>MOLECULE
3imx_GLC_A_1.pdb
 12 12 0 0 0
SMALL
GASTEIGER

@<TRIPOS>ATOM
      1  C1        -3.3860    0.6140    6.4760 C.3     1  GLC1        0.3027
      2  C2        -4.4650    0.3570    5.3850 C.3     1  GLC1        0.2435
      3  C3        -3.8390    0.2750    3.9330 C.3     1  GLC1        0.2203
      4  C4        -2.6880    1.3450    3.6590 C.3     1  GLC1        0.2194
      5  C5        -1.8090    1.7060    4.9390 C.3     1  GLC1        0.2148
      6  C6        -0.9480    3.0100    4.8350 C.2     1  GLC1        0.2394
      7  O1        -2.5210   -0.5030    6.6050 O.3     1  GLC1       -0.1869
      8  O2        -5.1350   -0.4940    5.6730 O.3     1  GLC1       -0.2148
      9  O3        -4.6180    0.2550    3.1120 O.3     1  GLC1       -0.2174
     10  O4        -2.1040    1.1370    2.7550 O.3     1  GLC1       -0.2172
     11  O5        -2.6050    1.7760    6.1600 O.3     1  GLC1       -0.3183
     12  O6        -1.4900    3.9890    4.5610 O.2     1  GLC1       -0.2855
@<TRIPOS>BOND
     1    10     4    1
     2     9     3    1
     3     4     3    1
     4     4     5    1
     5     3     2    1
     6    12     6    2
     7     6     5    1
     8     5    11    1
     9     2     8    1
    10     2     1    1
    11    11     1    1
    12     1     7    1
