@<TRIPOS>MOLECULE
3imy_B72_A_1.pdb
 24 25 0 0 0
SMALL
GASTEIGER

@<TRIPOS>ATOM
      1  O1        10.1970   22.7540   24.7310 O.co2 462  B72462     -0.2415
      2  C20        9.3990   22.7910   25.6110 C.2   462  B72462      0.4084
      3  O2         8.7770   24.0160   25.8710 O.co2 462  B72462     -0.2415
      4  C19        8.5890   21.5320   25.9490 C.3   462  B72462      0.3186
      5  O3         7.5060   21.8120   26.8010 O.3   462  B72462     -0.4637
      6  C1         6.6940   20.7720   27.3250 C.ar  462  B72462      0.1387
      7  C2         6.9350   20.3440   28.6790 C.ar  462  B72462      0.0323
      8  C3         6.1540   19.3520   29.2360 C.ar  462  B72462     -0.0228
      9  C17        6.3950   18.9220   30.6950 C.3   462  B72462      0.0308
     10  C4         5.0470   18.7430   28.3910 C.ar  462  B72462     -0.0255
     11  C5         4.7910   19.1410   27.0870 C.ar  462  B72462     -0.0228
     12  C6         5.6330   20.1910   26.5320 C.ar  462  B72462      0.0323
     13  C18        3.6710   18.5030   26.2360 C.3   462  B72462      0.0308
     14  C7         4.2360   17.5870   28.9990 C.3   462  B72462      0.0520
     15  C8         3.1090   18.0970   29.9010 C.ar  462  B72462     -0.0179
     16  C13        2.8020   17.3650   31.0800 C.ar  462  B72462     -0.0051
     17  C12        1.7120   17.7950   31.9030 C.ar  462  B72462      0.0161
     18  C14        1.3730   17.0540   33.1980 C.3   462  B72462      0.0255
     19  C16        1.5330   15.5430   33.1110 C.3   462  B72462      0.0048
     20  C15        2.0920   17.7180   34.3720 C.3   462  B72462      0.0048
     21  C11        0.9450   18.9380   31.5310 C.ar  462  B72462      0.1917
     22  O4        -0.1370   19.3140   32.3290 O.3   462  B72462     -0.2869
     23  C10        1.2690   19.6900   30.3190 C.ar  462  B72462      0.0414
     24  C9         2.3250   19.2810   29.5080 C.ar  462  B72462     -0.0007
@<TRIPOS>BOND
     1     1     2   ar
     2     2     3   ar
     3     2     4    1
     4     4     5    1
     5    13    11    1
     6    12    11   ar
     7    12     6   ar
     8     5     6    1
     9    11    10   ar
    10     6     7   ar
    11    10    14    1
    12    10     8   ar
    13     7     8   ar
    14    14    15    1
    15     8     9    1
    16    24    15   ar
    17    24    23   ar
    18    15    16   ar
    19    23    21   ar
    20    16    17   ar
    21    21    17   ar
    22    21    22    1
    23    17    18    1
    24    19    18    1
    25    18    20    1
