@<TRIPOS>MOLECULE
3in1_ADP_A_1.pdb
 27 29 0 0 0
SMALL
GASTEIGER

@<TRIPOS>ATOM
      1  PB        60.7080   72.1440   12.6320 P.3   510  ADP510      0.5373
      2  O1B       61.4360   72.8740   11.5690 O.2   510  ADP510     -0.2221
      3  O2B       61.6700   71.5290   13.5860 O.3   510  ADP510     -0.1143
      4  O3B       59.6070   73.0590   13.3520 O.3   510  ADP510     -0.1143
      5  PA        60.1470   69.7310   11.1310 P.3   510  ADP510      0.2231
      6  O1A       60.0470   69.9680    9.6820 O.2   510  ADP510     -0.5169
      7  O2A       61.5480   69.2830   11.4160 O.3   510  ADP510     -0.4370
      8  O3A       59.7720   71.0050   12.0160 O.3   510  ADP510     -0.2261
      9  O5'       58.9670   68.7460   11.7860 O.3   510  ADP510     -0.3111
     10  C5'       58.8260   67.3900   11.3180 C.3   510  ADP510      0.1813
     11  C4'       57.3860   66.9740   11.4850 C.3   510  ADP510      0.1821
     12  O4'       57.0620   67.1540   12.8760 O.3   510  ADP510     -0.3135
     13  C3'       56.3540   67.8410   10.7530 C.3   510  ADP510      0.2184
     14  O3'       56.2490   67.5350    9.3560 O.3   510  ADP510     -0.2174
     15  C2'       55.1040   67.5650   11.6470 C.3   510  ADP510      0.2570
     16  O2'       54.4420   66.3430   11.2900 O.3   510  ADP510     -0.2130
     17  C1'       55.7280   67.4980   13.0820 C.3   510  ADP510      0.3186
     18  N9        55.5580   68.8000   13.7180 N.pl3 510  ADP510     -0.1439
     19  C8        56.5200   69.7090   14.0680 C.3   510  ADP510      0.3377
     20  N7        56.1370   70.7470   14.7220 N.2   510  ADP510     -0.2095
     21  C5        54.8380   70.5590   14.8390 C.2   510  ADP510      0.2526
     22  C6        53.8870   71.3630   15.4650 C.2   510  ADP510      0.4393
     23  N6        54.1530   72.5180   16.0770 N.pl3 510  ADP510      0.2180
     24  N1        52.5810   70.9250   15.4430 N.2   510  ADP510      0.0021
     25  C2        52.2720   69.7150   14.8100 C.3   510  ADP510      0.5254
     26  N3        53.1120   68.8880   14.1910 N.2   510  ADP510     -0.0055
     27  C4        54.4020   69.3750   14.2420 C.2   510  ADP510      0.3518
@<TRIPOS>BOND
     1    14    13    1
     2     6     5    2
     3    13    11    1
     4    13    15    1
     5     5     7    1
     6     5     9    1
     7     5     8    1
     8    16    15    1
     9    10    11    1
    10    10     9    1
    11    11    12    1
    12     2     1    2
    13    15    17    1
    14     8     1    1
    15     1     4    1
    16     1     3    1
    17    12    17    1
    18    17    18    1
    19    18    19    1
    20    18    27    1
    21    19    20    1
    22    26    27    2
    23    26    25    1
    24    27    21    1
    25    20    21    2
    26    25    24    1
    27    21    22    1
    28    24    22    2
    29    22    23    1
