@<TRIPOS>MOLECULE
3in3_472_A_1.pdb
 26 29 0 0 0
SMALL
GASTEIGER

@<TRIPOS>ATOM
      1  C1        15.9720   -4.3250   17.6750 C.3     1  4721        0.2162
      2  N1        15.4020   -5.4950   17.0420 N.am    1  4721       -0.1363
      3  O1        14.3440   -6.3440   18.8890 O.2     1  4721       -0.2520
      4  C2        14.6420   -6.4050   17.7050 C.2     1  4721        0.3315
      5  N2        14.9100   -6.9790   15.4300 N.2     1  4721       -0.0835
      6  C3        14.2190   -7.4830   16.6710 C.3     1  4721        0.2672
      7  N3        16.3240   -5.2430   14.8800 N.pl3   1  4721        0.1440
      8  C4        15.5100   -5.8790   15.7540 C.2     1  4721        0.4499
      9  N4        15.7070  -11.5170   17.4180 N.ar    1  4721       -0.2423
     10  C5        14.7430   -8.8990   16.9680 C.ar    1  4721        0.0304
     11  N5         9.9800   -3.0480   13.9520 N.ar    1  4721       -0.2423
     12  C6        15.0120   -9.7760   15.9020 C.ar    1  4721        0.0205
     13  C7        15.4850  -11.0510   16.1700 C.ar    1  4721        0.0987
     14  C8        15.4480  -10.6700   18.4340 C.ar    1  4721        0.0987
     15  C9        14.9720   -9.3730   18.2660 C.ar    1  4721        0.0205
     16  C10       12.6790   -7.4410   16.5630 C.ar    1  4721        0.0273
     17  C11       11.8600   -8.5390   16.8830 C.ar    1  4721       -0.0002
     18  C12       10.4710   -8.4450   16.7690 C.ar    1  4721       -0.0002
     19  C13        9.8690   -7.2600   16.3370 C.ar    1  4721        0.0000
     20  C14       10.6530   -6.1450   16.0100 C.ar    1  4721        0.0013
     21  C15       12.0480   -6.2610   16.1320 C.ar    1  4721       -0.0001
     22  C16       10.0610   -4.8760   15.5630 C.ar    1  4721        0.0192
     23  C17        9.0300   -4.2530   16.2820 C.ar    1  4721        0.0031
     24  C18        8.4830   -3.0490   15.8410 C.ar    1  4721        0.0207
     25  C19        8.9860   -2.4860   14.6790 C.ar    1  4721        0.0989
     26  C20       10.4910   -4.2210   14.4100 C.ar    1  4721        0.0988
@<TRIPOS>BOND
     1    11    26   ar
     2    11    25   ar
     3    26    22   ar
     4    25    24   ar
     5     7     8    1
     6     5     8    2
     7     5     6    1
     8    22    20    1
     9    22    23   ar
    10     8     2    1
    11    24    23   ar
    12    12    13   ar
    13    12    10   ar
    14    20    21   ar
    15    20    19   ar
    16    21    16   ar
    17    13     9   ar
    18    19    18   ar
    19    16     6    1
    20    16    17   ar
    21     6    10    1
    22     6     4    1
    23    18    17   ar
    24    10    15   ar
    25     2     1    1
    26     2     4   am
    27     9    14   ar
    28     4     3    2
    29    15    14   ar
