@<TRIPOS>MOLECULE
3in4_BX2_A_1.pdb
 30 33 0 0 0
SMALL
GASTEIGER

@<TRIPOS>ATOM
      1  C1        16.3090  -13.2410   15.5770 C.3     1  BX21        0.0079
      2  N1        15.8040  -11.3220   17.4690 N.2     1  BX21       -0.4145
      3  O1        14.3490   -6.1890   18.8260 O.2     1  BX21       -0.2520
      4  C2        15.6960  -11.9340   15.0960 C.3     1  BX21        0.0589
      5  N2        15.4290   -5.3490   16.9710 N.am    1  BX21       -0.1363
      6  C3        15.4910  -10.9380   16.2090 C.2     1  BX21        0.1077
      7  N3        14.8550   -6.7880   15.3480 N.2     1  BX21       -0.0838
      8  C4        14.9940   -9.6730   15.9150 C.2     1  BX21        0.0235
      9  N4        16.4320   -5.1830   14.8490 N.pl3   1  BX21        0.1440
     10  C5        14.7990   -8.7380   16.9380 C.2     1  BX21        0.0141
     11  N5         9.8820   -2.9390   14.0970 N.ar    1  BX21       -0.2224
     12  C6        15.1230   -9.1390   18.2420 C.3     1  BX21        0.0805
     13  N6         8.3250   -3.1510   15.8840 N.ar    1  BX21       -0.2224
     14  C7        15.6180  -10.4230   18.4660 C.2     1  BX21        0.0904
     15  C8        15.9700  -10.8660   19.8630 C.3     1  BX21        0.0547
     16  C9        17.4740  -10.9630   20.0690 C.3     1  BX21        0.0075
     17  C10       14.2470   -7.3370   16.6190 C.3     1  BX21        0.2640
     18  C11       14.6650   -6.2530   17.6450 C.2     1  BX21        0.3312
     19  C12       15.5450   -5.7480   15.6900 C.2     1  BX21        0.4499
     20  C13       16.0040   -4.1780   17.5850 C.3     1  BX21        0.2162
     21  C14       12.7180   -7.3670   16.5030 C.ar    1  BX21        0.0270
     22  C15       11.9360   -8.4980   16.7650 C.ar    1  BX21       -0.0002
     23  C16       10.5480   -8.4390   16.6340 C.ar    1  BX21       -0.0002
     24  C17        9.9140   -7.2600   16.2460 C.ar    1  BX21        0.0001
     25  C18       10.6620   -6.1100   15.9770 C.ar    1  BX21        0.0028
     26  C19       12.0570   -6.1860   16.1130 C.ar    1  BX21       -0.0001
     27  C20       10.0240   -4.8560   15.5740 C.ar    1  BX21        0.0384
     28  C21       10.4490   -4.1010   14.4970 C.ar    1  BX21        0.1022
     29  C22        8.8380   -2.5170   14.8220 C.ar    1  BX21        0.1989
     30  C23        8.9370   -4.3070   16.2330 C.ar    1  BX21        0.1022
@<TRIPOS>BOND
     1    11    28   ar
     2    11    29   ar
     3    28    27   ar
     4    29    13   ar
     5     9    19    1
     6     4     1    1
     7     4     6    1
     8     7    19    2
     9     7    17    1
    10    27    25    1
    11    27    30   ar
    12    19     5    1
    13    13    30   ar
    14     8     6    1
    15     8    10    2
    16    25    26   ar
    17    25    24   ar
    18    26    21   ar
    19     6     2    2
    20    24    23   ar
    21    21    17    1
    22    21    22   ar
    23    17    10    1
    24    17    18    1
    25    23    22   ar
    26    10    12    1
    27     5    20    1
    28     5    18   am
    29     2    14    2
    30    18     3    2
    31    12    14    1
    32    14    15    1
    33    15    16    1
