@<TRIPOS>MOLECULE
3in5_ATP_A_1.pdb
 30 32 0 0 0
SMALL
GASTEIGER

@<TRIPOS>ATOM
      1  PG        47.3110   18.1840   70.5190 P.3     1  ATP1        0.5373
      2  O1G       46.2550   17.1100   70.2730 O.2     1  ATP1       -0.2221
      3  O2G       46.7910   19.4480   71.1510 O.3     1  ATP1       -0.1143
      4  O3G       48.5560   17.7450   71.2440 O.3     1  ATP1       -0.1143
      5  PB        47.0940   17.9990   67.7180 P.3     1  ATP1        0.2277
      6  O1B       46.8960   16.5100   67.8500 O.3     1  ATP1       -0.4368
      7  O2B       47.8640   18.4930   66.5310 O.2     1  ATP1       -0.5168
      8  O3B       47.7810   18.6160   69.0380 O.3     1  ATP1       -0.2258
      9  PA        44.2650   18.1030   67.3290 P.3     1  ATP1        0.2189
     10  O1A       44.1890   16.7450   67.9970 O.3     1  ATP1       -0.4371
     11  O2A       43.2480   19.1650   67.6470 O.2     1  ATP1       -0.5170
     12  O3A       45.6880   18.7740   67.6710 O.3     1  ATP1       -0.2700
     13  O5'       44.1880   17.9180   65.7460 O.3     1  ATP1       -0.3112
     14  C5'       44.5460   16.6860   65.1610 C.3     1  ATP1        0.1813
     15  C4'       45.2580   16.9390   63.8440 C.3     1  ATP1        0.1795
     16  O4'       44.3150   17.3160   62.8210 O.3     1  ATP1       -0.3155
     17  C3'       46.3380   18.0110   63.9120 C.3     1  ATP1        0.1883
     18  O3'       47.6150   17.4920   64.2720 O.3     1  ATP1       -0.2202
     19  C2'       46.2930   18.5230   62.4920 C.3     1  ATP1        0.1151
     20  C1'       44.8330   18.3860   62.0550 C.3     1  ATP1        0.2873
     21  N9        44.2270   19.6930   62.3920 N.pl3   1  ATP1       -0.1460
     22  C8        43.9610   20.1360   63.6270 C.3     1  ATP1        0.3377
     23  N7        43.4610   21.3860   63.6070 N.2     1  ATP1       -0.2095
     24  C5        43.4320   21.7570   62.3290 C.2     1  ATP1        0.2526
     25  C6        43.0350   22.9610   61.6140 C.2     1  ATP1        0.4393
     26  N6        42.5510   24.0160   62.2960 N.pl3   1  ATP1        0.2180
     27  N1        43.1670   22.9600   60.2770 N.2     1  ATP1        0.0021
     28  C2        43.6380   21.9220   59.5850 C.3     1  ATP1        0.5254
     29  N3        44.0090   20.7920   60.1990 N.2     1  ATP1       -0.0055
     30  C4        43.9350   20.6520   61.5360 C.2     1  ATP1        0.3518
@<TRIPOS>BOND
     1    28    29    1
     2    28    27    1
     3    29    30    2
     4    27    25    2
     5    30    24    1
     6    30    21    1
     7    25    26    1
     8    25    24    1
     9    20    21    1
    10    20    19    1
    11    20    16    1
    12    24    23    2
    13    21    22    1
    14    19    17    1
    15    16    15    1
    16    23    22    1
    17    15    17    1
    18    15    14    1
    19    17    18    1
    20    14    13    1
    21    13     9    1
    22     7     5    2
    23     9    11    2
    24     9    12    1
    25     9    10    1
    26    12     5    1
    27     5     6    1
    28     5     8    1
    29     8     1    1
    30     2     1    2
    31     1     3    1
    32     1     4    1
