@<TRIPOS>MOLECULE
3in6_FMN_A_1.pdb
 31 33 0 0 0
SMALL
GASTEIGER

@<TRIPOS>ATOM
      1  N1       -25.7800  -31.5210   13.9630 N.2   148  FMN148     -0.2890
      2  C2       -25.6740  -32.6630   13.1890 C.1   148  FMN148      0.3669
      3  O2       -26.1810  -32.6990   12.0630 O.2   148  FMN148     -0.1744
      4  N3       -24.9950  -33.7700   13.6850 N.2   148  FMN148     -0.2300
      5  C4       -24.4290  -33.7480   14.9520 C.1   148  FMN148      0.2513
      6  O4       -23.8340  -34.7590   15.3640 O.2   148  FMN148     -0.2057
      7  C4A      -24.5540  -32.5930   15.7410 C.2   148  FMN148      0.2700
      8  N5       -24.0090  -32.5350   17.0200 N.2   148  FMN148     -0.3878
      9  C5A      -24.1190  -31.3930   17.8050 C.2   148  FMN148      0.1320
     10  C6       -23.5440  -31.3720   19.0840 C.2   148  FMN148      0.0250
     11  C7       -23.6560  -30.2320   19.8830 C.2   148  FMN148     -0.0238
     12  C7M      -23.0360  -30.2360   21.2480 C.3   148  FMN148      0.0308
     13  C8       -24.3280  -29.0980   19.4060 C.2   148  FMN148     -0.0280
     14  C8M      -24.4460  -27.8530   20.2470 C.3   148  FMN148      0.0304
     15  C9       -24.8930  -29.1170   18.1230 C.2   148  FMN148     -0.0041
     16  C9A      -24.7980  -30.2700   17.3110 C.3   148  FMN148      0.1497
     17  N10      -25.3480  -30.3190   16.0210 N.pl3 148  FMN148     -0.2691
     18  C10      -25.2340  -31.4750   15.2430 C.2   148  FMN148      0.2416
     19  C1'      -26.1030  -29.1380   15.4520 C.3   148  FMN148      0.1294
     20  C2'      -25.2610  -28.2880   14.5010 C.3   148  FMN148      0.2044
     21  O2'      -24.0640  -27.8780   15.1260 O.3   148  FMN148     -0.2185
     22  C3'      -26.0970  -27.0880   14.0380 C.3   148  FMN148      0.2164
     23  O3'      -27.1090  -27.5580   13.1690 O.3   148  FMN148     -0.2175
     24  C4'      -25.2790  -25.9900   13.3490 C.3   148  FMN148      0.2147
     25  O4'      -26.0690  -24.8310   13.1990 O.3   148  FMN148     -0.2176
     26  C5'      -24.7900  -26.4060   11.9720 C.3   148  FMN148      0.1892
     27  O5'      -23.9880  -25.3830   11.4350 O.3   148  FMN148     -0.2674
     28  P        -23.8560  -25.1430    9.8400 P.3   148  FMN148      0.5327
     29  O1P      -25.1310  -24.5870    9.2670 O.3   148  FMN148     -0.1145
     30  O2P      -23.5230  -26.4240    9.0920 O.2   148  FMN148     -0.2224
     31  O3P      -22.7920  -24.1020    9.7290 O.3   148  FMN148     -0.1145
@<TRIPOS>BOND
     1    30    28    2
     2    29    28    1
     3    31    28    1
     4    28    27    1
     5    27    26    1
     6    26    24    1
     7     3     2    2
     8    23    22    1
     9     2     4    2
    10     2     1    2
    11    25    24    1
    12    24    22    1
    13     4     5    2
    14     1    18    2
    15    22    20    1
    16    20    21    1
    17    20    19    1
    18     5     6    2
    19     5     7    1
    20    18     7    1
    21    18    17    1
    22    19    17    1
    23     7     8    2
    24    17    16    1
    25     8     9    2
    26    16     9    1
    27    16    15    1
    28     9    10    1
    29    15    13    2
    30    10    11    2
    31    13    11    1
    32    13    14    1
    33    11    12    1
