@<TRIPOS>MOLECULE
3in7_AYQ_A_1.pdb
 38 39 0 0 0
SMALL
GASTEIGER

@<TRIPOS>ATOM
      1  CAA       -4.3890  -16.3430   -3.2920 C.3     1  AYQ1        0.1385
      2  OAI       -3.1190  -14.4000   -1.8550 O.2     1  AYQ1       -0.2733
      3  OAJ        0.9240  -16.5580    0.2070 O.2     1  AYQ1       -0.2733
      4  OAM       -5.8890  -10.8430    0.4910 O.2     1  AYQ1       -0.2114
      5  OAK       -7.2950  -10.0340    2.6530 O.3     1  AYQ1       -0.1039
      6  OAL       -7.5040  -12.5650    1.7480 O.3     1  AYQ1       -0.1039
      7  CAN       -5.0490  -13.7940    1.8900 C.ar    1  AYQ1        0.0371
      8  CAO       -3.3820  -12.0690    1.8200 C.ar    1  AYQ1        0.0371
      9  CAP       -4.1190  -14.7140    1.4130 C.ar    1  AYQ1       -0.0011
     10  CAQ       -2.4540  -12.9870    1.3410 C.ar    1  AYQ1       -0.0011
     11  NAU       -3.5400  -16.6060   -2.1200 N.am    1  AYQ1       -0.2035
     12  OAX       -5.5350  -11.5960    2.7120 O.3     1  AYQ1       -0.3998
     13  CBC       -2.8930  -15.5770   -1.5810 C.2     1  AYQ1        0.2418
     14  CBD        0.6910  -15.4060   -0.1570 C.2     1  AYQ1        0.2421
     15  CBE       -4.6830  -12.4710    2.1080 C.ar    1  AYQ1        0.1490
     16  CBF       -2.8150  -14.3160    1.1450 C.ar    1  AYQ1       -0.0213
     17  CBI       -1.7710  -15.9720   -0.6170 C.3     1  AYQ1        0.0916
     18  CBJ       -0.7430  -14.8900   -0.2890 C.3     1  AYQ1        0.0917
     19  CBK       -1.7390  -15.3450    0.7800 C.3     1  AYQ1        0.0406
     20  PBL       -6.7810  -11.1280    1.8010 P.3     1  AYQ1        0.5887
     21  N          1.6350  -14.5170   -0.4510 N.am    1  AYQ1       -0.1978
     22  CA         3.0690  -14.8430   -0.4370 C.3     1  AYQ1        0.1732
     23  C          3.5130  -15.5880    0.8230 C.2     1  AYQ1        0.2616
     24  O          4.3530  -16.4820    0.7490 O.2     1  AYQ1       -0.2715
     25  CB         3.8960  -13.5650   -0.5850 C.3     1  AYQ1        0.0408
     26  CG         3.5540  -12.8080   -1.8700 C.3     1  AYQ1        0.0908
     27  CD         3.7900  -13.6630   -3.1160 C.2     1  AYQ1        0.2608
     28  OE1        3.0090  -13.6110   -4.0670 O.2     1  AYQ1       -0.2717
     29  NE2        4.8700  -14.4380   -3.0830 N.am    1  AYQ1       -0.0878
     30  NAV        2.9490  -15.2050    1.9670 N.am    1  AYQ1       -0.1958
     31  CBH        3.3420  -15.8410    3.2330 C.3     1  AYQ1        0.1836
     32  CBA        2.1850  -16.6260    3.8550 C.2     1  AYQ1        0.2811
     33  OAG        2.1590  -16.8480    5.0640 O.2     1  AYQ1       -0.2698
     34  CAT        3.8170  -14.7660    4.2130 C.3     1  AYQ1        0.1196
     35  CAZ        2.6920  -13.7790    4.5290 C.2     1  AYQ1        0.2630
     36  OAF        1.7250  -13.6570    3.7780 O.2     1  AYQ1       -0.2716
     37  NAC        2.8530  -13.0880    5.6530 N.am    1  AYQ1       -0.0877
     38  NAD        1.2580  -17.0470    2.9990 N.am    1  AYQ1       -0.0863
@<TRIPOS>BOND
     1    28    27    2
     2     1    11    1
     3    27    29   am
     4    27    26    1
     5    11    13   am
     6    26    25    1
     7     2    13    2
     8    13    17    1
     9    17    18    1
    10    17    19    1
    11    25    22    1
    12    21    22    1
    13    21    14   am
    14    22    23    1
    15    18    14    1
    16    18    19    1
    17    14     3    2
    18     4    20    2
    19    24    23    2
    20    19    16    1
    21    23    30   am
    22    16    10   ar
    23    16     9   ar
    24    10     8   ar
    25     9     7   ar
    26     6    20    1
    27    20     5    1
    28    20    12    1
    29     8    15   ar
    30     7    15   ar
    31    30    31    1
    32    15    12    1
    33    38    32   am
    34    31    32    1
    35    31    34    1
    36    36    35    2
    37    32    33    2
    38    34    35    1
    39    35    37   am
