@<TRIPOS>MOLECULE
3in8_FYI_A_1.pdb
 37 37 0 0 0
SMALL
GASTEIGER

@<TRIPOS>ATOM
      1  C1       -10.9350   10.6110   -2.0390 C.ar    1  FYI1       -0.0011
      2  C2       -10.6110   10.0000   -3.2490 C.ar    1  FYI1        0.0371
      3  C3        -9.9210   10.7080   -4.2320 C.ar    1  FYI1        0.1490
      4  C4        -9.5480   12.0250   -3.9800 C.ar    1  FYI1        0.0371
      5  C5        -9.8690   12.6390   -2.7730 C.ar    1  FYI1       -0.0011
      6  C6       -10.5730   11.9360   -1.8000 C.ar    1  FYI1       -0.0215
      7  O1        -9.6280   10.2170   -5.4690 O.3     1  FYI1       -0.3998
      8  P1       -10.0440    8.6980   -5.8200 P.3     1  FYI1        0.5887
      9  O2       -11.4330    8.3350   -5.4610 O.3     1  FYI1       -0.1039
     10  O3        -9.7960    8.5770   -7.4070 O.2     1  FYI1       -0.2114
     11  O4        -8.9480    7.7390   -5.1340 O.3     1  FYI1       -0.1039
     12  C7       -10.9860   12.6610   -0.5150 C.3     1  FYI1        0.0360
     13  C8       -12.4290   13.1770   -0.5320 C.3     1  FYI1        0.0917
     14  C9       -12.7710   13.8810    0.7830 C.2     1  FYI1        0.2421
     15  O5       -12.3700   15.0210    1.0150 O.2     1  FYI1       -0.2733
     16  C10      -12.6960   14.1620   -1.6750 C.3     1  FYI1        0.0963
     17  C11      -12.9220   13.4800   -3.0270 C.2     1  FYI1        0.2419
     18  N1       -12.4410   14.1530   -4.0700 N.am    1  FYI1       -0.2035
     19  C12      -12.6350   13.5760   -5.4090 C.3     1  FYI1        0.1385
     20  O7       -13.5210   12.4090   -3.1110 O.2     1  FYI1       -0.2733
     21  N2       -13.5170   13.1700    1.6250 N.am    1  FYI1       -0.1978
     22  C13      -13.9760   13.6860    2.9240 C.3     1  FYI1        0.1726
     23  C14      -12.8370   14.2500    3.7760 C.2     1  FYI1        0.2616
     24  O8       -12.9890   15.3090    4.3850 O.2     1  FYI1       -0.2715
     25  C15      -14.7190   12.5850    3.6850 C.3     1  FYI1        0.0290
     26  C16      -15.9260   12.0600    2.9010 C.3     1  FYI1        0.0022
     27  C17      -15.1360   13.0580    5.0810 C.3     1  FYI1        0.0023
     28  C18      -16.9420   13.1530    2.5580 C.3     1  FYI1        0.0001
     29  N3       -11.7140   13.5370    3.8060 N.am    1  FYI1       -0.1958
     30  C19      -10.5520   13.9600    4.6020 C.3     1  FYI1        0.1836
     31  C20       -9.5040   14.6610    3.7310 C.2     1  FYI1        0.2811
     32  O10       -8.3360   14.7560    4.1030 O.2     1  FYI1       -0.2698
     33  C21       -9.9400   12.7550    5.3210 C.3     1  FYI1        0.1196
     34  C22       -9.4340   11.6820    4.3520 C.2     1  FYI1        0.2630
     35  O11       -9.9090   11.5720    3.2240 O.2     1  FYI1       -0.2716
     36  N4        -8.4590   10.9130    4.8280 N.am    1  FYI1       -0.0877
     37  N5        -9.9540   15.1570    2.5820 N.am    1  FYI1       -0.0863
@<TRIPOS>BOND
     1    10     8    2
     2     8     7    1
     3     8     9    1
     4     8    11    1
     5     7     3    1
     6    19    18    1
     7     3     4   ar
     8     3     2   ar
     9    18    17   am
    10     4     5   ar
    11     2     1   ar
    12    20    17    2
    13    17    16    1
    14     5     6   ar
    15     1     6   ar
    16     6    12    1
    17    16    13    1
    18    13    12    1
    19    13    14    1
    20    14    15    2
    21    14    21   am
    22    21    22    1
    23    28    26    1
    24    37    31   am
    25    26    25    1
    26    22    25    1
    27    22    23    1
    28    35    34    2
    29    25    27    1
    30    31    32    2
    31    31    30    1
    32    23    29   am
    33    23    24    2
    34    29    30    1
    35    34    36   am
    36    34    33    1
    37    30    33    1
