@<TRIPOS>MOLECULE
3in9_H1S_A_1.pdb
 35 36 0 0 0
SMALL
GASTEIGER

@<TRIPOS>ATOM
      1  C1        37.4560    1.5660   12.9600 C.3   501  H1S501      0.1803
      2  C2        38.5690    1.2970   11.9430 C.3   501  H1S501      0.1795
      3  O3        38.0170    2.2920   14.0840 O.3   501  H1S501     -0.3158
      4  C4        36.3640    2.4100   12.2960 C.3   501  H1S501      0.2042
      5  O5        38.0440    0.6520   10.7710 O.3   501  H1S501     -0.3246
      6  C6        39.6120    0.3770   12.5800 C.3   501  H1S501      0.2045
      7  C7        37.1920    2.0980   15.2620 C.3   501  H1S501      0.3214
      8  C8        35.9150    1.7710   10.9810 C.3   501  H1S501      0.1857
      9  O9        35.2380    2.5040   13.1730 O.3   501  H1S501     -0.2187
     10  C10       37.1280    1.5160   10.0820 C.3   501  H1S501      0.2895
     11  O11       40.6920    0.1310   11.6760 O.3   501  H1S501     -0.2384
     12  C12       38.0630    1.9120   16.5070 C.3   501  H1S501      0.2471
     13  O13       36.3680    3.2550   15.4840 O.2   501  H1S501     -0.4439
     14  N14       34.9700    2.6720   10.3070 N.3   501  H1S501     -0.1129
     15  O15       37.7800    2.7520    9.7750 O.3   501  H1S501     -0.1882
     16  S16       41.8120   -0.6530   12.0950 S.3   501  H1S501     -0.0001
     17  C17       39.0730    3.0590   16.5850 C.3   501  H1S501      0.2129
     18  O18       37.2150    1.9750   17.6580 O.3   501  H1S501     -0.2341
     19  C19       37.0840    4.3930   15.6980 C.2   501  H1S501      0.2189
     20  S20       34.2940    1.9450    9.0130 S.3   501  H1S501     -0.1288
     21  O21       42.2720   -0.1850   13.4440 O.3   501  H1S501     -0.2682
     22  O22       41.4080   -2.0960   12.1770 O.2   501  H1S501     -0.3452
     23  O23       42.9290   -0.5010   11.1060 O.2   501  H1S501     -0.3452
     24  C24       38.3750    4.3720   16.2230 C.2   501  H1S501      0.0528
     25  O25       40.1390    2.8190   15.6610 O.3   501  H1S501     -0.2152
     26  S26       37.4960    0.8870   18.5440 S.3   501  H1S501      0.0001
     27  C27       36.4450    5.7430   15.3640 C.2   501  H1S501      0.4209
     28  O28       35.1950    2.0990    7.8240 O.3   501  H1S501     -0.2918
     29  O29       34.0870    0.4870    9.2960 O.3   501  H1S501     -0.2918
     30  O30       32.9710    2.5910    8.7250 O.3   501  H1S501     -0.2918
     31  O31       36.5540    0.9410   19.7090 O.3   501  H1S501     -0.2682
     32  O32       37.3160   -0.4120   17.8140 O.2   501  H1S501     -0.3452
     33  O33       38.9080    0.9920   19.0400 O.2   501  H1S501     -0.3452
     34  O34       35.3050    5.7410   14.8560 O.co2 501  H1S501     -0.2371
     35  O35       37.1020    6.7780   15.6170 O.co2 501  H1S501     -0.2371
@<TRIPOS>BOND
     1    28    20    1
     2    30    20    1
     3    20    29    1
     4    20    14    1
     5    15    10    1
     6    10     5    1
     7    10     8    1
     8    14     8    1
     9     5     2    1
    10     8     4    1
    11    23    16    2
    12    11    16    1
    13    11     6    1
    14     2     6    1
    15     2     1    1
    16    16    22    2
    17    16    21    1
    18     4     1    1
    19     4     9    1
    20     1     3    1
    21     3     7    1
    22    34    27   ar
    23     7    13    1
    24     7    12    1
    25    27    35   ar
    26    27    19    1
    27    13    19    1
    28    25    17    1
    29    19    24    2
    30    24    17    1
    31    12    17    1
    32    12    18    1
    33    18    26    1
    34    32    26    2
    35    26    33    2
    36    26    31    1
