@<TRIPOS>MOLECULE
3ina_SUS_A_1.pdb
 23 23 0 0 0
SMALL
GASTEIGER

@<TRIPOS>ATOM
      1  N         32.1800    7.8220   11.5330 N.3   506  SUS506     -0.1130
      2  C1        30.1300    6.4740   11.7810 C.3   506  SUS506      0.2893
      3  O1        30.9280    5.5490   12.5670 O.3   506  SUS506     -0.1882
      4  S1        32.5310    8.2090    9.9890 S.3   506  SUS506     -0.1288
      5  C2        30.7290    7.8850   11.7620 C.3   506  SUS506      0.1823
      6  S2        24.7510    7.7220   12.8960 S.3   506  SUS506     -0.0001
      7  C3        30.4310    8.6510   13.0530 C.3   506  SUS506      0.1685
      8  O3        30.8940   10.0000   12.9300 O.3   506  SUS506     -0.2420
      9  S3        31.8400   10.3480   13.9480 S.3   506  SUS506     -0.0002
     10  C4        28.9180    8.6330   13.2730 C.3   506  SUS506      0.0660
     11  C5        28.4830    7.1700   13.4060 C.3   506  SUS506      0.1524
     12  O5        28.7450    6.4790   12.1730 O.3   506  SUS506     -0.3271
     13  C6        26.9930    7.0760   13.7500 C.3   506  SUS506      0.2020
     14  O6        26.1610    7.5710   12.6960 O.3   506  SUS506     -0.2385
     15  O1S       31.8990    9.5200    9.6290 O.3   506  SUS506     -0.2918
     16  O2S       34.0210    8.3160    9.8550 O.3   506  SUS506     -0.2918
     17  O3S       32.0240    7.1450    9.0620 O.3   506  SUS506     -0.2918
     18  O4S       24.4960    8.9950   13.6470 O.2   506  SUS506     -0.3452
     19  O5S       24.0690    7.7900   11.5620 O.2   506  SUS506     -0.3452
     20  O6S       24.2200    6.5610   13.6810 O.3   506  SUS506     -0.2682
     21  O7S       33.1420    9.6440   13.7030 O.2   506  SUS506     -0.3452
     22  O8S       32.0730   11.8290   13.9180 O.2   506  SUS506     -0.3452
     23  O9S       31.3120    9.9620   15.2990 O.3   506  SUS506     -0.2682
@<TRIPOS>BOND
     1    17     4    1
     2    15     4    1
     3    16     4    1
     4     4     1    1
     5     1     5    1
     6    19     6    2
     7     5     2    1
     8     5     7    1
     9     2    12    1
    10     2     3    1
    11    12    11    1
    12    14     6    1
    13    14    13    1
    14     6    18    2
    15     6    20    1
    16     8     7    1
    17     8     9    1
    18     7    10    1
    19    10    11    1
    20    11    13    1
    21    21     9    2
    22    22     9    2
    23     9    23    1
