@<TRIPOS>MOLECULE
3ina_IDS_A_1.pdb
 16 16 0 0 0
SMALL
GASTEIGER

@<TRIPOS>ATOM
      1  C1        40.5410    2.3690   14.8710 C.3   503  IDS503      0.3017
      2  C2        40.6740    1.4300   13.6680 C.3   503  IDS503      0.2322
      3  C3        39.8890    0.1320   13.8760 C.3   503  IDS503      0.1895
      4  C4        38.4550    0.4040   14.3350 C.3   503  IDS503      0.0770
      5  C5        38.4850    1.3380   15.5460 C.3   503  IDS503      0.2228
      6  C6        37.0450    1.6440   15.9670 C.2   503  IDS503      0.3915
      7  O1        41.3010    1.8130   15.9750 O.3   503  IDS503     -0.1870
      8  O2        40.2210    2.1050   12.4930 O.3   503  IDS503     -0.2357
      9  O3        40.5470   -0.6870   14.8450 O.3   503  IDS503     -0.2202
     10  O5        39.1590    2.5640   15.2210 O.3   503  IDS503     -0.3174
     11  O61       36.5400    2.7280   15.6040 O.co2 503  IDS503     -0.2430
     12  O62       36.4470    0.7880   16.6540 O.co2 503  IDS503     -0.2430
     13  S         41.3480    2.5020   11.7050 S.3   503  IDS503      0.0000
     14  O1S       42.2830    3.3280   12.5380 O.3   503  IDS503     -0.2682
     15  O2S       42.0760    1.2910   11.2010 O.2   503  IDS503     -0.3452
     16  O3S       40.8630    3.3120   10.5390 O.2   503  IDS503     -0.3452
@<TRIPOS>BOND
     1    16    13    2
     2    15    13    2
     3    13     8    1
     4    13    14    1
     5     8     2    1
     6     2     3    1
     7     2     1    1
     8     3     4    1
     9     3     9    1
    10     4     5    1
    11     1    10    1
    12     1     7    1
    13    10     5    1
    14     5     6    1
    15    11     6   ar
    16     6    12   ar
