@<TRIPOS>MOLECULE
3ina_SGN_A_1.pdb
 19 19 0 0 0
SMALL
GASTEIGER

@<TRIPOS>ATOM
      1  C1        42.2540    3.0700   19.8400 C.3   502  SGN502      0.2893
      2  C2        41.1430    2.0250   19.7210 C.3   502  SGN502      0.1832
      3  C3        41.1220    1.4220   18.3160 C.3   502  SGN502      0.1772
      4  C4        41.0760    2.5010   17.2330 C.3   502  SGN502      0.0669
      5  C5        42.2060    3.5010   17.5010 C.3   502  SGN502      0.1524
      6  C6        42.1780    4.6530   16.4940 C.3   502  SGN502      0.2020
      7  N         41.3900    0.9370   20.6790 N.3   502  SGN502     -0.1129
      8  O1        43.5490    2.4310   19.7070 O.3   502  SGN502     -0.1882
      9  O3        39.9820    0.5690   18.1870 O.3   502  SGN502     -0.2213
     10  O5        42.0890    4.0660   18.8180 O.3   502  SGN502     -0.3271
     11  O6        40.9910    5.4410   16.6180 O.3   502  SGN502     -0.2385
     12  S1        40.6700    1.2480   22.1070 S.3   502  SGN502     -0.1288
     13  O1S       39.2120    1.5200   21.8830 O.3   502  SGN502     -0.2918
     14  O2S       40.8260    0.0540   23.0010 O.3   502  SGN502     -0.2918
     15  O3S       41.3170    2.4390   22.7490 O.3   502  SGN502     -0.2918
     16  S2        40.8680    6.6630   15.8850 S.3   502  SGN502     -0.0001
     17  O4S       39.4440    7.0260   16.1940 O.2   502  SGN502     -0.3452
     18  O5S       41.0480    6.1530   14.4850 O.2   502  SGN502     -0.3452
     19  O6S       41.9750    7.4460   16.5220 O.3   502  SGN502     -0.2682
@<TRIPOS>BOND
     1    18    16    2
     2    16    17    2
     3    16    19    1
     4    16    11    1
     5     6    11    1
     6     6     5    1
     7     4     5    1
     8     4     3    1
     9     5    10    1
    10     9     3    1
    11     3     2    1
    12    10     1    1
    13     8     1    1
    14     2     1    1
    15     2     7    1
    16     7    12    1
    17    13    12    1
    18    12    15    1
    19    12    14    1
