@<TRIPOS>MOLECULE
3ind_593_A_1.pdb
 24 28 0 0 0
SMALL
GASTEIGER

@<TRIPOS>ATOM
      1  C1        16.2590   -4.1920   17.5680 C.3     1  5931        0.2162
      2  N1        15.6120   -5.3650   16.9990 N.am    1  5931       -0.1366
      3  O1        14.8100   -6.3140   18.9480 O.2     1  5931       -0.2524
      4  C2        14.9550   -6.3110   17.7370 C.2     1  5931        0.3274
      5  N2        15.0090   -6.8570   15.4540 N.2     1  5931       -0.0879
      6  C3        14.4230   -7.3640   16.7410 C.3     1  5931        0.2482
      7  N3        16.3190   -5.0360   14.7640 N.pl3   1  5931        0.1440
      8  C4        15.5610   -5.7040   15.6830 C.2     1  5931        0.4496
      9  C5        14.9610   -8.7820   17.0190 C.ar    1  5931        0.0233
     10  C6        15.3160   -9.6540   15.9770 C.ar    1  5931       -0.0005
     11  C7        15.8020  -10.9400   16.2310 C.ar    1  5931       -0.0002
     12  C8        15.9450  -11.3890   17.5410 C.ar    1  5931       -0.0000
     13  C9        15.6010  -10.5490   18.5930 C.ar    1  5931       -0.0002
     14  C10       15.1140   -9.2630   18.3350 C.ar    1  5931       -0.0005
     15  C11       12.8390   -7.2930   16.6110 C.3     1  5931        0.0469
     16  C12       12.1320   -7.9440   17.8470 C.3     1  5931        0.0041
     17  C13       10.5990   -7.8510   17.7390 C.3     1  5931        0.0001
     18  C14       10.1800   -6.3760   17.6670 C.3     1  5931        0.0000
     19  C15       10.8200   -5.7120   16.4390 C.3     1  5931        0.0001
     20  C16       12.3510   -5.8080   16.5460 C.3     1  5931        0.0041
     21  C17       10.3670   -6.4330   15.1620 C.3     1  5931        0.0000
     22  C18       10.7720   -7.9110   15.2290 C.3     1  5931        0.0001
     23  C19       10.1360   -8.5670   16.4630 C.3     1  5931        0.0000
     24  C20       12.3050   -8.0130   15.3360 C.3     1  5931        0.0041
@<TRIPOS>BOND
     1     7     8    1
     2    21    22    1
     3    21    19    1
     4    22    24    1
     5    22    23    1
     6    24    15    1
     7     5     8    2
     8     5     6    1
     9     8     2    1
    10    10    11   ar
    11    10     9   ar
    12    11    12   ar
    13    19    20    1
    14    19    18    1
    15    23    17    1
    16    20    15    1
    17    15     6    1
    18    15    16    1
    19     6     9    1
    20     6     4    1
    21     2     1    1
    22     2     4   am
    23     9    14   ar
    24    12    13   ar
    25    18    17    1
    26     4     3    2
    27    17    16    1
    28    14    13   ar
