@<TRIPOS>MOLECULE
3ine_X17_A_1.pdb
 27 31 0 0 0
SMALL
GASTEIGER

@<TRIPOS>ATOM
      1  C1        16.0380  -11.1070   19.8410 C.3     1  X171        0.0342
      2  N1        15.7360   -5.4810   17.0510 N.am    1  X171       -0.1366
      3  O1        16.5840  -12.7150   17.6370 O.3     1  X171       -0.4717
      4  C2        15.8030  -10.6420   18.4280 C.ar    1  X171        0.0119
      5  N2        14.9920   -6.8470   15.4410 N.2     1  X171       -0.0879
      6  O2        14.9490   -6.4920   18.9720 O.2     1  X171       -0.2524
      7  C3        15.2950   -9.3510   18.2060 C.ar    1  X171       -0.0018
      8  N3        16.4120   -5.0920   14.8090 N.pl3   1  X171        0.1440
      9  C4        15.0550   -8.8580   16.9120 C.ar    1  X171        0.0232
     10  C5        15.3400   -9.7050   15.8300 C.ar    1  X171        0.0026
     11  C6        15.8490  -10.9960   16.0340 C.ar    1  X171        0.0364
     12  C7        16.0830  -11.4710   17.3320 C.ar    1  X171        0.1347
     13  C8        17.0960  -13.4720   16.5460 C.3     1  X171        0.2525
     14  C9        14.4930   -7.4370   16.7270 C.3     1  X171        0.2482
     15  C10       15.0710   -6.4410   17.7560 C.2     1  X171        0.3274
     16  C11       15.6490   -5.7600   15.7220 C.2     1  X171        0.4496
     17  C12       16.4100   -4.3480   17.6690 C.3     1  X171        0.2162
     18  C13       12.9040   -7.3890   16.7130 C.3     1  X171        0.0469
     19  C14       12.3930   -5.9120   16.6440 C.3     1  X171        0.0041
     20  C15       10.8580   -5.8460   16.6190 C.3     1  X171        0.0001
     21  C16       10.3050   -6.5020   17.8930 C.3     1  X171        0.0000
     22  C17       10.7370   -7.9730   17.9490 C.3     1  X171        0.0001
     23  C18       12.2770   -8.0400   17.9840 C.3     1  X171        0.0041
     24  C19       10.2220   -8.7070   16.7040 C.3     1  X171        0.0000
     25  C20       10.7840   -8.0580   15.4320 C.3     1  X171        0.0001
     26  C21       10.3410   -6.5900   15.3760 C.3     1  X171        0.0000
     27  C22       12.3240   -8.1360   15.4690 C.3     1  X171        0.0041
@<TRIPOS>BOND
     1     8    16    1
     2    26    25    1
     3    26    20    1
     4    25    27    1
     5    25    24    1
     6     5    16    2
     7     5    14    1
     8    27    18    1
     9    16     2    1
    10    10    11   ar
    11    10     9   ar
    12    11    12   ar
    13    13     3    1
    14    20    19    1
    15    20    21    1
    16    19    18    1
    17    24    22    1
    18    18    14    1
    19    18    23    1
    20    14     9    1
    21    14    15    1
    22     9     7   ar
    23     2    17    1
    24     2    15   am
    25    12     3    1
    26    12     4   ar
    27    15     6    2
    28    21    22    1
    29    22    23    1
    30     7     4   ar
    31     4     1    1
