@<TRIPOS>MOLECULE
3inf_X45_A_1.pdb
 29 32 0 0 0
SMALL
GASTEIGER

@<TRIPOS>ATOM
      1  C1        15.9340  -11.0450   19.3700 C.3     1  X451        0.0342
      2  N1        15.4270   -5.5280   16.6520 N.am    1  X451       -0.1363
      3  O1        16.6360  -12.6110   17.1770 O.3     1  X451       -0.4717
      4  C2        15.7030  -10.5920   17.9530 C.ar    1  X451        0.0119
      5  N2        14.8120   -6.8510   14.9570 N.2     1  X451       -0.0835
      6  O2        14.3490   -6.5030   18.4430 O.2     1  X451       -0.2520
      7  C3        15.1160   -9.3370   17.7260 C.ar    1  X451       -0.0015
      8  N3        16.3280   -5.1020   14.4830 N.pl3   1  X451        0.1440
      9  C4        14.8770   -8.8640   16.4280 C.ar    1  X451        0.0272
     10  N4        10.0820   -3.1160   13.6120 N.ar    1  X451       -0.2423
     11  C5        15.2430   -9.6880   15.3550 C.ar    1  X451        0.0029
     12  C6        15.8290  -10.9440   15.5650 C.ar    1  X451        0.0364
     13  C7        16.0630  -11.4050   16.8620 C.ar    1  X451        0.1347
     14  C8        17.3890  -13.2800   16.1700 C.3     1  X451        0.2525
     15  C9        14.2410   -7.4860   16.1880 C.3     1  X451        0.2671
     16  C10       14.6700   -6.4780   17.2670 C.2     1  X451        0.3315
     17  C11       15.5380   -5.8370   15.3300 C.2     1  X451        0.4499
     18  C12       16.0120   -4.3860   17.3490 C.3     1  X451        0.2162
     19  C13       12.7050   -7.5400   16.1110 C.ar    1  X451        0.0273
     20  C14       11.9170   -8.6580   16.4350 C.ar    1  X451       -0.0002
     21  C15       10.5180   -8.5940   16.3280 C.ar    1  X451       -0.0002
     22  C16        9.8750   -7.4250   15.9100 C.ar    1  X451        0.0000
     23  C17       10.6400   -6.2910   15.5810 C.ar    1  X451        0.0013
     24  C18       12.0400   -6.3760   15.6940 C.ar    1  X451       -0.0001
     25  C19       10.0500   -5.0160   15.1400 C.ar    1  X451        0.0192
     26  C20        8.9330   -4.4530   15.7750 C.ar    1  X451        0.0031
     27  C21        8.3990   -3.2400   15.3330 C.ar    1  X451        0.0207
     28  C22        9.0040   -2.6120   14.2550 C.ar    1  X451        0.0989
     29  C23       10.5810   -4.2950   14.0660 C.ar    1  X451        0.0988
@<TRIPOS>BOND
     1    10    29   ar
     2    10    28   ar
     3    29    25   ar
     4    28    27   ar
     5     8    17    1
     6     5    17    2
     7     5    15    1
     8    25    23    1
     9    25    26   ar
    10    17     2    1
    11    27    26   ar
    12    11    12   ar
    13    11     9   ar
    14    12    13   ar
    15    23    24   ar
    16    23    22   ar
    17    24    19   ar
    18    22    21   ar
    19    19    15    1
    20    19    20   ar
    21    14     3    1
    22    15     9    1
    23    15    16    1
    24    21    20   ar
    25     9     7   ar
    26     2    16   am
    27     2    18    1
    28    13     3    1
    29    13     4   ar
    30    16     6    2
    31     7     4   ar
    32     4     1    1
