@<TRIPOS>MOLECULE
3ing_NDP_A_1.pdb
 48 52 0 0 0
SMALL
GASTEIGER

@<TRIPOS>ATOM
      1  PA        36.1940   33.0600    3.2240 P.3   326  NDP326      0.2189
      2  O1A       37.4400   33.8240    3.4210 O.3   326  NDP326     -0.4371
      3  O2A       35.3230   33.4890    2.1040 O.2   326  NDP326     -0.5170
      4  O5B       36.5250   31.5010    2.9940 O.3   326  NDP326     -0.3112
      5  C5B       35.5790   30.5060    2.6590 C.3   326  NDP326      0.1813
      6  C4B       36.2860   29.2150    2.2770 C.3   326  NDP326      0.1820
      7  O4B       35.3750   28.2380    1.8440 O.3   326  NDP326     -0.3136
      8  C3B       37.2210   29.4060    1.0750 C.3   326  NDP326      0.2157
      9  O3B       38.2660   28.4460    1.0880 O.3   326  NDP326     -0.2175
     10  C2B       36.3190   29.1590   -0.0860 C.3   326  NDP326      0.2314
     11  O2B       36.9780   28.7740   -1.2600 O.3   326  NDP326     -0.2630
     12  C1B       35.5460   27.9840    0.4510 C.3   326  NDP326      0.3158
     13  N9A       34.2350   27.7770   -0.1510 N.pl3 326  NDP326     -0.1439
     14  C8A       33.3380   28.6660   -0.6750 C.3   326  NDP326      0.3377
     15  N7A       32.2250   27.9600   -1.0500 N.2   326  NDP326     -0.2095
     16  C5A       32.4270   26.6660   -0.7610 C.2   326  NDP326      0.2526
     17  C6A       31.6170   25.5680   -0.9650 C.2   326  NDP326      0.4393
     18  N6A       30.3230   25.7250   -1.2320 N.pl3 326  NDP326      0.2180
     19  N1A       32.1170   24.3870   -0.5470 N.2   326  NDP326      0.0021
     20  C2A       33.3760   24.2390   -0.0010 C.3   326  NDP326      0.5254
     21  N3A       34.1990   25.3280    0.2170 N.2   326  NDP326     -0.0055
     22  C4A       33.6770   26.5250   -0.1810 C.2   326  NDP326      0.3518
     23  O3        35.3380   33.0560    4.5840 O.3   326  NDP326     -0.2703
     24  PN        35.9080   33.2730    6.0720 P.3   326  NDP326      0.2189
     25  O1N       36.1020   34.7350    6.3120 O.3   326  NDP326     -0.4371
     26  O2N       37.0530   32.3260    6.2420 O.2   326  NDP326     -0.5170
     27  O5D       34.6640   32.8070    7.0050 O.3   326  NDP326     -0.3112
     28  C5D       34.3930   31.4050    6.9930 C.3   326  NDP326      0.1813
     29  C4D       33.1900   31.1250    7.8880 C.3   326  NDP326      0.1799
     30  O4D       33.5200   31.5470    9.1920 O.3   326  NDP326     -0.3327
     31  C3D       31.9510   31.8920    7.5110 C.3   326  NDP326      0.2158
     32  O3D       30.7640   31.0910    7.5410 O.3   326  NDP326     -0.2175
     33  C2D       31.9000   33.0320    8.5100 C.3   326  NDP326      0.2309
     34  O2D       30.5980   33.4960    8.7460 O.3   326  NDP326     -0.2158
     35  C1D       32.5060   32.3810    9.7310 C.3   326  NDP326      0.2263
     36  N1N       33.0380   33.3260   10.6970 N.pl3 326  NDP326     -0.2787
     37  C2N       33.9950   34.2250   10.3040 C.3   326  NDP326      0.1244
     38  C3N       34.4110   35.2660   11.1210 C.2   326  NDP326      0.0544
     39  C7N       35.5500   36.1070   10.6860 C.2   326  NDP326      0.2818
     40  O7N       36.3890   36.5520   11.6830 O.2   326  NDP326     -0.2670
     41  N7N       35.8300   36.3190    9.4070 N.am  326  NDP326     -0.0839
     42  C4N       34.0910   35.2630   12.6120 C.2   326  NDP326      0.0033
     43  C5N       33.0660   34.2140   12.9420 C.2   326  NDP326      0.0157
     44  C6N       32.6060   33.2970   12.0000 C.2   326  NDP326      0.0633
     45  P2B       38.1710   29.6170   -1.9210 P.3   326  NDP326      0.5328
     46  O1X       38.3140   28.8840   -3.2270 O.2   326  NDP326     -0.2224
     47  O2X       39.4190   29.7180   -0.9950 O.3   326  NDP326     -0.1145
     48  O3X       37.5870   30.9820   -2.1040 O.3   326  NDP326     -0.1145
@<TRIPOS>BOND
     1    46    45    2
     2    48    45    1
     3    45    11    1
     4    45    47    1
     5    11    10    1
     6    18    17    1
     7    15    16    2
     8    15    14    1
     9    17    16    1
    10    17    19    2
    11    16    22    1
    12    14    13    1
    13    19    20    1
    14    22    13    1
    15    22    21    2
    16    13    12    1
    17    10    12    1
    18    10     8    1
    19    20    21    1
    20    12     7    1
    21     8     9    1
    22     8     6    1
    23     7     6    1
    24     3     1    2
    25     6     5    1
    26     5     4    1
    27     4     1    1
    28     1     2    1
    29     1    23    1
    30    23    24    1
    31    24    26    2
    32    24    25    1
    33    24    27    1
    34    28    27    1
    35    28    29    1
    36    31    32    1
    37    31    29    1
    38    31    33    1
    39    29    30    1
    40    33    34    1
    41    33    35    1
    42    30    35    1
    43    41    39   am
    44    35    36    1
    45    37    36    1
    46    37    38    1
    47    39    38    1
    48    39    40    2
    49    36    44    1
    50    38    42    2
    51    44    43    2
    52    42    43    1
