@<TRIPOS>MOLECULE
3inh_569_A_1.pdb
 32 35 0 0 0
SMALL
GASTEIGER

@<TRIPOS>ATOM
      1  C1        16.0900   -4.3700   17.5830 C.3     1  5691        0.2162
      2  F1        18.0930  -12.2350   16.4360 F       1  5691       -0.1328
      3  N1        15.4120   -5.4950   16.9580 N.am    1  5691       -0.1363
      4  O1        14.4240   -6.4610   18.8290 O.2     1  5691       -0.2520
      5  C2        14.6650   -6.4230   17.6300 C.2     1  5691        0.3315
      6  F2        17.9810  -12.4460   18.6060 F       1  5691       -0.1328
      7  N2        14.6830   -6.8270   15.3100 N.2     1  5691       -0.0835
      8  O2        16.0930  -12.7310   17.4230 O.3     1  5691       -0.4045
      9  C3        14.1430   -7.4110   16.5790 C.3     1  5691        0.2671
     10  F3        17.8160  -14.2300   17.3400 F       1  5691       -0.1328
     11  N3        16.1750   -5.0820   14.7500 N.pl3   1  5691        0.1440
     12  C4        15.4190   -5.8030   15.6330 C.2     1  5691        0.4499
     13  F4         8.5020   -7.1070   16.3820 F       1  5691       -0.2042
     14  N4         9.8720   -3.0270   13.9290 N.ar    1  5691       -0.2224
     15  C5        14.6680   -8.8330   16.8400 C.ar    1  5691        0.0275
     16  N5         8.4630   -2.9550   15.8740 N.ar    1  5691       -0.2224
     17  C6        14.8740   -9.7320   15.7840 C.ar    1  5691        0.0029
     18  C7        15.3510  -11.0230   16.0250 C.ar    1  5691        0.0370
     19  C8        15.6310  -11.4470   17.3260 C.ar    1  5691        0.1468
     20  C9        15.4300  -10.5660   18.3860 C.ar    1  5691        0.0370
     21  C10       14.9540   -9.2730   18.1450 C.ar    1  5691        0.0029
     22  C11       17.4990  -12.9210   17.4340 C.3     1  5691        0.5753
     23  C12       12.6130   -7.3840   16.5410 C.ar    1  5691        0.0275
     24  C13       11.8080   -8.4680   16.9170 C.ar    1  5691        0.0021
     25  C14       10.4210   -8.3590   16.8550 C.ar    1  5691        0.0294
     26  C15        9.8380   -7.1720   16.4220 C.ar    1  5691        0.1402
     27  C16       10.6020   -6.0630   16.0380 C.ar    1  5691        0.0303
     28  C17       11.9950   -6.1960   16.1080 C.ar    1  5691        0.0021
     29  C18       10.0070   -4.8030   15.5800 C.ar    1  5691        0.0405
     30  C19       10.3870   -4.1860   14.3940 C.ar    1  5691        0.1022
     31  C20        8.9280   -2.4740   14.7080 C.ar    1  5691        0.1989
     32  C21        9.0220   -4.1170   16.2820 C.ar    1  5691        0.1022
@<TRIPOS>BOND
     1    14    30   ar
     2    14    31   ar
     3    30    29   ar
     4    31    16   ar
     5    11    12    1
     6     7    12    2
     7     7     9    1
     8    29    27    1
     9    29    32   ar
    10    12     3    1
    11    17    18   ar
    12    17    15   ar
    13    16    32   ar
    14    18    19   ar
    15    27    28   ar
    16    27    26   ar
    17    28    23   ar
    18    13    26    1
    19    26    25   ar
    20     2    22    1
    21    23     9    1
    22    23    24   ar
    23     9    15    1
    24     9     5    1
    25    15    21   ar
    26    25    24   ar
    27     3     1    1
    28     3     5   am
    29    19     8    1
    30    19    20   ar
    31    10    22    1
    32     8    22    1
    33    22     6    1
    34     5     4    2
    35    21    20   ar
