@<TRIPOS>MOLECULE
3inj_BXB_A_1.pdb
 21 23 0 0 0
SMALL
GASTEIGER

@<TRIPOS>ATOM
      1  C1         7.9230  -26.9310   42.9290 C.ar  1001  BXB1001     0.0761
      2  C2         8.0690  -26.9720   41.4620 C.ar  1001  BXB1001     0.0629
      3  C3         8.4370  -25.8250   40.7760 C.ar  1001  BXB1001     0.0116
      4  C4         8.6770  -24.6420   41.4760 C.ar  1001  BXB1001     0.0017
      5  C5         8.5610  -24.5480   42.8670 C.ar  1001  BXB1001     0.0116
      6  C6         8.2010  -25.6570   43.6210 C.ar  1001  BXB1001     0.0629
      7  C7         7.5510  -28.1480   43.7290 C.2   1001  BXB1001     0.2667
      8  N8         6.3210  -28.2650   44.2160 N.am  1001  BXB1001    -0.1967
      9  O9         8.4060  -29.0040   43.9230 O.2   1001  BXB1001    -0.2683
     10 CL10        7.7470  -28.5090   40.6160 Cl    1001  BXB1001    -0.0821
     11 CL11        8.0340  -25.5940   45.4070 Cl    1001  BXB1001    -0.0821
     12  C12        5.9870  -29.3510   45.1170 C.3   1001  BXB1001     0.1419
     13  C13        5.0290  -28.8890   46.1980 C.ar  1001  BXB1001     0.0027
     14  C14        3.7250  -29.4030   46.1910 C.ar  1001  BXB1001     0.0008
     15  C15        2.7580  -29.0470   47.1370 C.ar  1001  BXB1001     0.0399
     16  C16        3.1480  -28.1400   48.1060 C.ar  1001  BXB1001     0.1764
     17  C17        4.5000  -27.6000   48.1200 C.ar  1001  BXB1001     0.1762
     18  C18        5.4460  -27.9680   47.1720 C.ar  1001  BXB1001     0.0376
     19  O19        4.5960  -26.7520   49.1770 O.3   1001  BXB1001    -0.4346
     20  C20        3.3750  -26.8470   49.9520 C.3   1001  BXB1001     0.4294
     21  O21        2.4470  -27.6120   49.1510 O.3   1001  BXB1001    -0.4346
@<TRIPOS>BOND
     1    10     2    1
     2     3     2   ar
     3     3     4   ar
     4     2     1   ar
     5     4     5   ar
     6     5     6   ar
     7     1     6   ar
     8     1     7    1
     9     6    11    1
    10     7     9    2
    11     7     8   am
    12     8    12    1
    13    12    13    1
    14    14    13   ar
    15    14    15   ar
    16    13    18   ar
    17    15    16   ar
    18    18    17   ar
    19    16    17   ar
    20    16    21    1
    21    17    19    1
    22    21    20    1
    23    19    20    1
