@<TRIPOS>MOLECULE
3inl_BXB_A_1.pdb
 21 23 0 0 0
SMALL
GASTEIGER

@<TRIPOS>ATOM
      1  C1        62.6390   -9.2960   26.2250 C.ar  1001  BXB1001     0.0761
      2  C2        63.8590   -9.7210   25.4950 C.ar  1001  BXB1001     0.0629
      3  C3        64.1290   -9.1550   24.2560 C.ar  1001  BXB1001     0.0116
      4  C4        63.2830   -8.1960   23.6990 C.ar  1001  BXB1001     0.0017
      5  C5        62.1320   -7.7550   24.3450 C.ar  1001  BXB1001     0.0116
      6  C6        61.7880   -8.2660   25.5870 C.ar  1001  BXB1001     0.0629
      7  C7        62.2650   -9.8380   27.5810 C.2   1001  BXB1001     0.2667
      8  N8        61.3390  -10.7860   27.6870 N.am  1001  BXB1001    -0.1967
      9  O9        62.8220   -9.3900   28.5740 O.2   1001  BXB1001    -0.2683
     10 CL10       64.9670  -10.9590   26.1720 Cl    1001  BXB1001    -0.0821
     11 CL11       60.3040   -7.7090   26.4170 Cl    1001  BXB1001    -0.0821
     12  C12       60.8510  -11.2140   28.9830 C.3   1001  BXB1001     0.1419
     13  C13       59.3620  -11.4530   28.9160 C.ar  1001  BXB1001     0.0027
     14  C14       58.8710  -12.7680   28.9760 C.ar  1001  BXB1001     0.0008
     15  C15       57.5030  -13.0650   28.9120 C.ar  1001  BXB1001     0.0399
     16  C16       56.6440  -11.9900   28.7740 C.ar  1001  BXB1001     0.1764
     17  C17       57.1490  -10.6300   28.7090 C.ar  1001  BXB1001     0.1762
     18  C18       58.5050  -10.3600   28.7730 C.ar  1001  BXB1001     0.0376
     19  O19       56.0850   -9.7890   28.5810 O.3   1001  BXB1001    -0.4346
     20  C20       54.8710  -10.5590   28.7410 C.3   1001  BXB1001     0.4294
     21  O21       55.2830  -11.9460   28.6830 O.3   1001  BXB1001    -0.4346
@<TRIPOS>BOND
     1     4     3   ar
     2     4     5   ar
     3     3     2   ar
     4     5     6   ar
     5     2    10    1
     6     2     1   ar
     7     6     1   ar
     8     6    11    1
     9     1     7    1
    10     7     8   am
    11     7     9    2
    12     8    12    1
    13    19    17    1
    14    19    20    1
    15    21    20    1
    16    21    16    1
    17    17    18   ar
    18    17    16   ar
    19    18    13   ar
    20    16    15   ar
    21    15    14   ar
    22    13    14   ar
    23    13    12    1
