@<TRIPOS>MOLECULE
3inm_NDP_A_1.pdb
 48 52 0 0 0
SMALL
GASTEIGER

@<TRIPOS>ATOM
      1  PA        31.3330   44.1920    9.8940 P.3   501  NDP501      0.2189
      2  O1A       29.8690   44.0520    9.7220 O.2   501  NDP501     -0.5170
      3  O2A       31.8140   43.7150   11.2090 O.3   501  NDP501     -0.4371
      4  O5B       31.6570   45.7350    9.6890 O.3   501  NDP501     -0.3112
      5  C5B       31.9730   46.0940    8.3600 C.3   501  NDP501      0.1813
      6  C4B       31.7420   47.5580    8.1830 C.3   501  NDP501      0.1820
      7  O4B       30.3760   47.8590    8.4400 O.3   501  NDP501     -0.3136
      8  C3B       32.5090   48.3330    9.2320 C.3   501  NDP501      0.2157
      9  O3B       33.8500   48.5220    8.8860 O.3   501  NDP501     -0.2175
     10  C2B       31.7120   49.6020    9.3460 C.3   501  NDP501      0.2314
     11  O2B       32.0020   50.4860    8.2650 O.3   501  NDP501     -0.2630
     12  C1B       30.2910   49.0600    9.1710 C.3   501  NDP501      0.3158
     13  N9A       29.7610   48.7530   10.4940 N.pl3 501  NDP501     -0.1439
     14  C8A       29.3510   47.5300   10.9600 C.3   501  NDP501      0.3377
     15  N7A       28.9400   47.6730   12.2420 N.2   501  NDP501     -0.2095
     16  C5A       29.0950   48.9630   12.6020 C.2   501  NDP501      0.2526
     17  C6A       28.8460   49.6360   13.7870 C.2   501  NDP501      0.4393
     18  N6A       28.3810   48.9700   14.8440 N.pl3 501  NDP501      0.2180
     19  N1A       29.1270   50.9920   13.8700 N.2   501  NDP501      0.0021
     20  C2A       29.6340   51.6550   12.7640 C.3   501  NDP501      0.5254
     21  N3A       29.8950   50.9660   11.5970 N.2   501  NDP501     -0.0055
     22  C4A       29.6220   49.6480   11.5160 C.2   501  NDP501      0.3518
     23  O3        32.2040   43.7910    8.5710 O.3   501  NDP501     -0.2703
     24  PN        33.0890   42.5440    8.1100 P.3   501  NDP501      0.2189
     25  O1N       32.5350   42.0270    6.8370 O.2   501  NDP501     -0.5170
     26  O2N       34.4510   43.0550    8.1130 O.3   501  NDP501     -0.4371
     27  O5D       33.0590   41.4270    9.2530 O.3   501  NDP501     -0.3112
     28  C5D       34.0810   41.4150   10.2270 C.3   501  NDP501      0.1813
     29  C4D       34.0530   40.0930   10.9690 C.3   501  NDP501      0.1799
     30  O4D       32.7470   39.8560   11.5050 O.3   501  NDP501     -0.3327
     31  C3D       34.3800   38.9210   10.0690 C.3   501  NDP501      0.2158
     32  O3D       35.2210   38.0210   10.7880 O.3   501  NDP501     -0.2175
     33  C2D       33.0470   38.2680    9.8240 C.3   501  NDP501      0.2309
     34  O2D       33.1680   36.8770    9.6450 O.3   501  NDP501     -0.2158
     35  C1D       32.2840   38.5860   11.0820 C.3   501  NDP501      0.2263
     36  N1N       30.8260   38.6440   10.8630 N.pl3 501  NDP501     -0.2787
     37  C2N       30.0530   38.1710   11.8800 C.3   501  NDP501      0.1244
     38  C3N       28.6960   38.3590   11.9190 C.2   501  NDP501      0.0544
     39  C7N       27.9590   37.7900   13.0800 C.2   501  NDP501      0.2818
     40  O7N       26.6130   38.0810   13.2110 O.2   501  NDP501     -0.2670
     41  N7N       28.5840   37.0140   13.9490 N.am  501  NDP501     -0.0839
     42  C4N       27.9690   39.1500   10.8480 C.2   501  NDP501      0.0033
     43  C5N       28.9140   39.6420    9.7730 C.2   501  NDP501      0.0157
     44  C6N       30.2860   39.3820    9.8350 C.2   501  NDP501      0.0633
     45  P2B       33.2800   51.4810    8.2280 P.3   501  NDP501      0.5328
     46  O1X       33.2220   52.3010    6.9780 O.2   501  NDP501     -0.2224
     47  O2X       33.1980   52.4190    9.4100 O.3   501  NDP501     -0.1145
     48  O3X       34.5600   50.6940    8.2940 O.3   501  NDP501     -0.1145
@<TRIPOS>BOND
     1    25    24    2
     2    46    45    2
     3    24    26    1
     4    24    23    1
     5    24    27    1
     6     6     5    1
     7     6     7    1
     8     6     8    1
     9    45    11    1
    10    45    48    1
    11    45    47    1
    12    11    10    1
    13     5     4    1
    14     7    12    1
    15    23     1    1
    16     9     8    1
    17    12    10    1
    18    12    13    1
    19     8    10    1
    20    27    28    1
    21    34    33    1
    22     4     1    1
    23     2     1    2
    24    43    44    2
    25    43    42    1
    26    33    31    1
    27    33    35    1
    28    44    36    1
    29     1     3    1
    30    31    32    1
    31    31    29    1
    32    28    29    1
    33    13    14    1
    34    13    22    1
    35    42    38    2
    36    36    35    1
    37    36    37    1
    38    14    15    1
    39    29    30    1
    40    35    30    1
    41    22    21    2
    42    22    16    1
    43    21    20    1
    44    37    38    1
    45    38    39    1
    46    15    16    2
    47    16    17    1
    48    20    19    1
    49    39    40    2
    50    39    41   am
    51    17    19    2
    52    17    18    1
