@<TRIPOS>MOLECULE
3inm_AKG_A_1.pdb
 10 9 0 0 0
SMALL
GASTEIGER

@<TRIPOS>ATOM
      1  C1        24.5460   37.3300    9.0350 C.2   511  AKG511      0.4219
      2  O1        24.0310   36.5070    9.8270 O.co2 511  AKG511     -0.2373
      3  O2        23.8850   38.2440    8.5100 O.co2 511  AKG511     -0.2373
      4  C2        25.9510   37.1790    8.6940 C.2   511  AKG511      0.2526
      5  O5        26.5060   38.0040    7.9760 O.2   511  AKG511     -0.2843
      6  C3        26.6910   35.9750    9.2290 C.3   511  AKG511      0.0881
      7  C4        28.0840   35.8870    8.6190 C.3   511  AKG511      0.1224
      8  C5        28.7980   34.7590    9.3020 C.2   511  AKG511      0.3653
      9  O3        29.9970   34.5510    9.0110 O.co2 511  AKG511     -0.2456
     10  O4        28.1510   34.0890   10.1390 O.co2 511  AKG511     -0.2456
@<TRIPOS>BOND
     1     5     4    2
     2     3     1   ar
     3     7     6    1
     4     7     8    1
     5     4     1    1
     6     4     6    1
     7     9     8   ar
     8     1     2   ar
     9     8    10   ar
