@<TRIPOS>MOLECULE
3inn_ATP_A_1.pdb
 31 33 0 0 0
SMALL
GASTEIGER

@<TRIPOS>ATOM
      1  PG       -22.6050  -21.3130   36.2130 P.3   300  ATP300      0.5373
      2  O1G      -22.3830  -20.8800   37.6820 O.3   300  ATP300     -0.1143
      3  O2G      -22.1580  -20.2910   35.1690 O.2   300  ATP300     -0.2221
      4  O3G      -22.1750  -22.7120   35.8420 O.3   300  ATP300     -0.1143
      5  PB       -24.7480  -21.1140   34.4710 P.3   300  ATP300      0.2277
      6  O1B      -25.3620  -22.4000   33.9550 O.3   300  ATP300     -0.4368
      7  O2B      -23.5850  -20.5050   33.7210 O.2   300  ATP300     -0.5168
      8  O3B      -24.2070  -21.3980   35.9760 O.3   300  ATP300     -0.2258
      9  PA       -27.2780  -20.0800   33.6490 P.3   300  ATP300      0.2189
     10  O1A      -27.2460  -18.9150   32.6860 O.2   300  ATP300     -0.5170
     11  O2A      -28.5070  -20.3130   34.5130 O.3   300  ATP300     -0.4371
     12  O3A      -25.9450  -20.0160   34.5730 O.3   300  ATP300     -0.2700
     13  O5'      -27.0710  -21.4100   32.7830 O.3   300  ATP300     -0.3112
     14  C5'      -27.2100  -22.6930   33.3730 C.3   300  ATP300      0.1813
     15  C4'      -26.9060  -23.6680   32.2600 C.3   300  ATP300      0.1821
     16  O4'      -27.9490  -23.6420   31.2750 O.3   300  ATP300     -0.3135
     17  C3'      -25.6240  -23.2010   31.5870 C.3   300  ATP300      0.2184
     18  O3'      -24.7350  -24.2800   31.3660 O.3   300  ATP300     -0.2174
     19  C2'      -26.1000  -22.5960   30.2880 C.3   300  ATP300      0.2570
     20  O2'      -25.1760  -22.7160   29.2000 O.3   300  ATP300     -0.2130
     21  C1'      -27.3730  -23.3670   30.0170 C.3   300  ATP300      0.3186
     22  N9       -28.1890  -22.5440   29.1040 N.pl3 300  ATP300     -0.1439
     23  C8       -28.4490  -21.2260   29.1940 C.3   300  ATP300      0.3377
     24  N7       -29.1980  -20.8230   28.1310 N.2   300  ATP300     -0.2095
     25  C5       -29.3940  -21.9000   27.3430 C.2   300  ATP300      0.2526
     26  C6       -30.0900  -22.2140   26.0730 C.2   300  ATP300      0.4393
     27  N6       -30.7420  -21.2550   25.3970 N.pl3 300  ATP300      0.2180
     28  N1       -30.0480  -23.4850   25.6060 N.2   300  ATP300      0.0021
     29  C2       -29.3980  -24.4620   26.2530 C.3   300  ATP300      0.5254
     30  N3       -28.7540  -24.2470   27.4150 N.2   300  ATP300     -0.0055
     31  C4       -28.7160  -23.0230   27.9890 C.2   300  ATP300      0.3518
@<TRIPOS>BOND
     1    27    26    1
     2    28    26    2
     3    28    29    1
     4    26    25    1
     5    29    30    1
     6    25    31    1
     7    25    24    2
     8    30    31    2
     9    31    22    1
    10    24    23    1
    11    22    23    1
    12    22    21    1
    13    20    19    1
    14    21    19    1
    15    21    16    1
    16    19    17    1
    17    16    15    1
    18    18    17    1
    19    17    15    1
    20    15    14    1
    21    10     9    2
    22    13    14    1
    23    13     9    1
    24     9    11    1
    25     9    12    1
    26     7     5    2
    27     6     5    1
    28     5    12    1
    29     5     8    1
    30     3     1    2
    31     4     1    1
    32     8     1    1
    33     1     2    1
