@<TRIPOS>MOLECULE
3inr_GDU_A_1.pdb
 36 38 0 0 0
SMALL
GASTEIGER

@<TRIPOS>ATOM
      1  N1        -9.3400  -19.0730    3.6540 N.am  392  GDU392     -0.1766
      2  C2       -10.5270  -18.9880    4.4160 C.1   392  GDU392      0.2845
      3  N3       -10.9600  -20.0210    5.1880 N.2   392  GDU392     -0.2452
      4  C4       -10.2440  -21.1510    5.2750 C.1   392  GDU392      0.2182
      5  C5        -9.0480  -21.2810    4.5390 C.2   392  GDU392      0.1242
      6  C6        -8.6080  -20.2220    3.7180 C.2   392  GDU392      0.0929
      7  O2       -11.1830  -17.9290    4.3800 O.2   392  GDU392     -0.1918
      8  O4       -10.6260  -22.0620    6.0420 O.2   392  GDU392     -0.2085
      9  C1D       -8.9610  -17.9360    2.8200 C.3   392  GDU392      0.2401
     10  C2D       -8.1850  -16.9580    3.6650 C.3   392  GDU392      0.2319
     11  O2D       -8.4430  -15.5720    3.2780 O.3   392  GDU392     -0.2157
     12  C3D       -6.7340  -17.3300    3.4040 C.3   392  GDU392      0.2158
     13  C4D       -6.7880  -17.7180    1.9410 C.3   392  GDU392      0.1799
     14  O4D       -8.0750  -18.3460    1.7890 O.3   392  GDU392     -0.3320
     15  O3D       -5.9090  -16.1720    3.6650 O.3   392  GDU392     -0.2175
     16  C5D       -5.6970  -18.6520    1.4200 C.3   392  GDU392      0.1813
     17  O5D       -5.3940  -19.4850    2.5210 O.3   392  GDU392     -0.3112
     18  PA        -4.4640  -20.7290    2.5350 P.3   392  GDU392      0.2189
     19  O1A       -4.4540  -21.1900    3.9920 O.3   392  GDU392     -0.4371
     20  O2A       -5.0000  -21.7500    1.6350 O.2   392  GDU392     -0.5170
     21  O3A       -3.0810  -20.2090    1.9200 O.3   392  GDU392     -0.2703
     22  PB        -1.8330  -19.5050    2.7250 P.3   392  GDU392      0.2208
     23  O1B       -1.5470  -20.2890    4.0130 O.3   392  GDU392     -0.4371
     24  O2B       -2.2000  -18.0330    2.9090 O.2   392  GDU392     -0.5170
     25  O3B       -0.6980  -19.6250    1.5920 O.3   392  GDU392     -0.2857
     26  C1'       -1.2920  -19.4980    0.2680 C.3   392  GDU392      0.2742
     27  C2'       -0.8150  -20.5610   -0.7450 C.3   392  GDU392      0.2409
     28  C3'        0.7060  -20.3250   -0.9760 C.3   392  GDU392      0.2198
     29  C4'        1.0020  -18.8460   -1.2890 C.3   392  GDU392      0.2144
     30  C5'        0.3020  -17.8290   -0.3740 C.3   392  GDU392      0.1835
     31  C6'        0.3850  -16.3880   -0.8990 C.3   392  GDU392      0.2142
     32  O2'       -1.1750  -21.8700   -0.2560 O.3   392  GDU392     -0.2149
     33  O3'        1.3050  -21.1240   -2.0200 O.3   392  GDU392     -0.2174
     34  O4'        0.6220  -18.6320   -2.6440 O.3   392  GDU392     -0.2176
     35  O5'       -1.0800  -18.1560   -0.1970 O.3   392  GDU392     -0.3254
     36  O6'        0.3340  -15.5090    0.2440 O.3   392  GDU392     -0.2176
@<TRIPOS>BOND
     1    34    29    1
     2    33    28    1
     3    29    28    1
     4    29    30    1
     5    28    27    1
     6    31    30    1
     7    31    36    1
     8    27    32    1
     9    27    26    1
    10    30    35    1
    11    35    26    1
    12    26    25    1
    13    16    13    1
    14    16    17    1
    15    25    22    1
    16    20    18    2
    17    14    13    1
    18    14     9    1
    19    21    18    1
    20    21    22    1
    21    13    12    1
    22    17    18    1
    23    18    19    1
    24    22    24    2
    25    22    23    1
    26     9     1    1
    27     9    10    1
    28    11    10    1
    29    12    10    1
    30    12    15    1
    31     1     6    1
    32     1     2   am
    33     6     5    2
    34     7     2    2
    35     2     3    2
    36     5     4    1
    37     3     4    2
    38     4     8    2
