@<TRIPOS>MOLECULE
3int_GDU_B_1.pdb
 36 38 0 0 0
SMALL
GASTEIGER

@<TRIPOS>ATOM
      1  N1       -17.7430  -54.3770    4.6450 N.am  392  GDU392     -0.1766
      2  C2       -18.9060  -53.7190    5.0730 C.1   392  GDU392      0.2845
      3  N3       -19.2310  -52.5220    4.5820 N.2   392  GDU392     -0.2452
      4  C4       -18.4650  -51.9140    3.6810 C.1   392  GDU392      0.2182
      5  C5       -17.3130  -52.5390    3.2430 C.2   392  GDU392      0.1242
      6  C6       -16.9690  -53.7850    3.7470 C.2   392  GDU392      0.0929
      7  O2       -19.6540  -54.2420    5.9190 O.2   392  GDU392     -0.1918
      8  O4       -18.7770  -50.7980    3.2190 O.2   392  GDU392     -0.2085
      9  C1D      -17.3220  -55.6760    5.1640 C.3   392  GDU392      0.2401
     10  C2D      -17.6750  -56.8100    4.2340 C.3   392  GDU392      0.2319
     11  O2D      -17.5390  -58.0020    5.0000 O.3   392  GDU392     -0.2157
     12  C3D      -16.5670  -56.7340    3.2090 C.3   392  GDU392      0.2158
     13  C4D      -15.3550  -56.3530    4.0530 C.3   392  GDU392      0.1799
     14  O4D      -15.8960  -55.6780    5.1900 O.3   392  GDU392     -0.3320
     15  O3D      -16.4010  -57.9760    2.5270 O.3   392  GDU392     -0.2175
     16  C5D      -14.3360  -55.4790    3.3320 C.3   392  GDU392      0.1813
     17  O5D      -13.5490  -56.2990    2.4840 O.3   392  GDU392     -0.3112
     18  PA       -12.8890  -55.7180    1.1510 P.3   392  GDU392      0.2189
     19  O1A      -13.1740  -54.2700    0.9750 O.2   392  GDU392     -0.5170
     20  O2A      -11.4200  -55.9790    1.1780 O.3   392  GDU392     -0.4371
     21  O3A      -13.6220  -56.4890   -0.0320 O.3   392  GDU392     -0.2703
     22  PB       -13.0590  -56.5200   -1.5300 P.3   392  GDU392      0.2208
     23  O1B      -14.1890  -56.6310   -2.4980 O.2   392  GDU392     -0.5170
     24  O2B      -12.1080  -57.6620   -1.6750 O.3   392  GDU392     -0.4371
     25  O3B      -12.2810  -55.1440   -1.7640 O.3   392  GDU392     -0.2857
     26  C1'      -11.2610  -55.0380   -2.7490 C.3   392  GDU392      0.2742
     27  C2'       -9.8890  -55.1010   -2.1040 C.3   392  GDU392      0.2409
     28  C3'       -9.6750  -53.8820   -1.2300 C.3   392  GDU392      0.2198
     29  C4'       -9.7980  -52.6670   -2.1050 C.3   392  GDU392      0.2144
     30  C5'      -11.1680  -52.6300   -2.7310 C.3   392  GDU392      0.1835
     31  C6'      -11.2380  -51.4270   -3.6600 C.3   392  GDU392      0.2142
     32  O2'       -9.8110  -56.2770   -1.3100 O.3   392  GDU392     -0.2149
     33  O3'       -8.3780  -53.8720   -0.6510 O.3   392  GDU392     -0.2174
     34  O4'       -8.7620  -52.5260   -3.0590 O.3   392  GDU392     -0.2176
     35  O5'      -11.4120  -53.8250   -3.4720 O.3   392  GDU392     -0.3254
     36  O6'      -11.5380  -50.2570   -2.9080 O.3   392  GDU392     -0.2176
@<TRIPOS>BOND
     1    31    36    1
     2    31    30    1
     3    35    26    1
     4    35    30    1
     5    34    29    1
     6    26    27    1
     7    26    25    1
     8    30    29    1
     9    23    22    2
    10    29    28    1
    11    27    32    1
    12    27    28    1
    13    25    22    1
    14    24    22    1
    15    22    21    1
    16    28    33    1
    17    21    18    1
    18    19    18    2
    19    18    20    1
    20    18    17    1
    21    17    16    1
    22    15    12    1
    23    12    13    1
    24    12    10    1
    25     8     4    2
    26     5     4    1
    27     5     6    2
    28    16    13    1
    29     4     3    2
    30     6     1    1
    31    13    14    1
    32    10    11    1
    33    10     9    1
    34     3     2    2
    35     1     2   am
    36     1     9    1
    37     2     7    2
    38     9    14    1
