@<TRIPOS>MOLECULE
3int_UDP_A_1.pdb
 25 26 0 0 0
SMALL
GASTEIGER

@<TRIPOS>ATOM
      1  N1        -9.2900  -19.0800    3.8870 N.am  392  UDP392     -0.1766
      2  C2       -10.4900  -19.0050    4.5420 C.1   392  UDP392      0.2845
      3  N3       -10.9180  -20.0390    5.3010 N.2   392  UDP392     -0.2452
      4  C4       -10.1760  -21.1930    5.4520 C.1   392  UDP392      0.2182
      5  C5        -8.9360  -21.2990    4.7960 C.2   392  UDP392      0.1242
      6  C6        -8.4710  -20.1940    4.0620 C.2   392  UDP392      0.0929
      7  O2       -11.2010  -18.0150    4.4740 O.2   392  UDP392     -0.1918
      8  O4       -10.6570  -22.0620    6.1990 O.2   392  UDP392     -0.2085
      9  C1'       -8.9050  -17.9130    3.0890 C.3   392  UDP392      0.2401
     10  C2'       -8.1630  -17.0000    4.0280 C.3   392  UDP392      0.2319
     11  O2'       -8.5560  -15.6610    3.7910 O.3   392  UDP392     -0.2157
     12  C3'       -6.7110  -17.2720    3.6680 C.3   392  UDP392      0.2158
     13  C4'       -6.7810  -17.6360    2.1890 C.3   392  UDP392      0.1799
     14  O4'       -8.0190  -18.2560    2.0590 O.3   392  UDP392     -0.3320
     15  O3'       -5.9110  -16.1430    3.9000 O.3   392  UDP392     -0.2175
     16  C5'       -5.6980  -18.5790    1.6370 C.3   392  UDP392      0.1813
     17  O5'       -5.3670  -19.4710    2.6820 O.3   392  UDP392     -0.3111
     18  PA        -4.3760  -20.7190    2.6210 P.3   392  UDP392      0.2231
     19  O1A       -5.0010  -21.6760    1.7290 O.2   392  UDP392     -0.5169
     20  O2A       -4.2640  -21.2200    3.9940 O.3   392  UDP392     -0.4370
     21  O3A       -2.9960  -20.4230    1.8320 O.3   392  UDP392     -0.2261
     22  PB        -1.7330  -19.6100    2.5080 P.3   392  UDP392      0.5373
     23  O1B       -2.2200  -19.0960    3.8340 O.3   392  UDP392     -0.1143
     24  O2B       -1.3410  -18.5660    1.4680 O.2   392  UDP392     -0.2221
     25  O3B       -0.4890  -20.3880    2.7920 O.3   392  UDP392     -0.1143
@<TRIPOS>BOND
     1    24    22    2
     2    16    13    1
     3    16    17    1
     4    19    18    2
     5    21    22    1
     6    21    18    1
     7    14    13    1
     8    14     9    1
     9    13    12    1
    10    22    25    1
    11    22    23    1
    12    18    17    1
    13    18    20    1
    14     9     1    1
    15     9    10    1
    16    12    15    1
    17    12    10    1
    18    11    10    1
    19     1     6    1
    20     1     2   am
    21     6     5    2
    22     7     2    2
    23     2     3    2
    24     5     4    1
    25     3     4    2
    26     4     8    2
