@<TRIPOS>MOLECULE
3inv_C50_A_1.pdb
 23 24 0 0 0
SMALL
GASTEIGER

@<TRIPOS>ATOM
      1  N1       -30.3450   16.0990   52.0780 N.2   601  C50601     -0.1755
      2  C2       -29.2090   16.7820   52.1680 C.1   601  C50601      0.1863
      3  N3       -29.1290   17.9000   53.0230 N.2   601  C50601     -0.2967
      4  C4       -30.1520   18.2620   53.7950 C.2   601  C50601      0.3223
      5  N5       -31.3240   17.5940   53.7990 N.4   601  C50601     -0.1779
      6  C6       -31.5630   16.4730   52.8340 C.3   601  C50601      0.1882
      7  N7       -28.1560   16.4100   51.4440 N.pl3 601  C50601     -0.0347
      8  N8       -29.9990   19.3210   54.5610 N.pl3 601  C50601     -0.0732
      9  O9       -32.3880   18.0680   54.5480 O.3   601  C50601     -0.2523
     10  C10      -32.5150   17.6260   55.9140 C.3   601  C50601      0.1779
     11  C11      -33.7910   18.2990   56.4610 C.3   601  C50601      0.0822
     12  C12      -35.0880   17.5810   55.9760 C.3   601  C50601      0.2081
     13  O13      -34.9590   16.2010   56.3730 O.3   601  C50601     -0.4745
     14  C14      -35.9660   15.2860   56.1520 C.ar  601  C50601      0.1498
     15  C15      -35.7530   14.0310   56.6630 C.ar  601  C50601      0.1020
     16  C16      -36.7750   12.9590   56.5150 C.ar  601  C50601      0.0712
     17  C17      -37.9440   13.2140   55.8570 C.ar  601  C50601      0.0125
     18  C18      -38.1910   14.5670   55.2900 C.ar  601  C50601      0.0040
     19  C19      -37.2510   15.5600   55.4310 C.ar  601  C50601      0.0378
     20 CL20      -34.2430   13.6880   57.5170 Cl    601  C50601     -0.0782
     21 CL21      -36.4780   11.3530   57.1940 Cl    601  C50601     -0.0813
     22  C22      -32.1170   15.2080   53.5280 C.3   601  C50601      0.0510
     23  C23      -32.6110   16.9450   51.8040 C.3   601  C50601      0.0510
@<TRIPOS>BOND
     1     7     2    1
     2    23     6    1
     3     1     2    2
     4     1     6    1
     5     2     3    2
     6     6    22    1
     7     6     5    1
     8     3     4    2
     9     4     5    1
    10     4     8    1
    11     5     9    1
    12     9    10    1
    13    18    19   ar
    14    18    17   ar
    15    19    14   ar
    16    17    16   ar
    17    10    11    1
    18    12    13    1
    19    12    11    1
    20    14    13    1
    21    14    15   ar
    22    16    15   ar
    23    16    21    1
    24    15    20    1
