@<TRIPOS>MOLECULE
3inv_NDP_A_1.pdb
 48 52 0 0 0
SMALL
GASTEIGER

@<TRIPOS>ATOM
      1  PA       -37.1140   26.8500   57.8730 P.3   602  NDP602      0.2189
      2  O1A      -35.9670   27.7230   57.7790 O.2   602  NDP602     -0.5170
      3  O2A      -36.9930   25.3510   57.8870 O.3   602  NDP602     -0.4371
      4  O5B      -37.8810   27.2650   59.2560 O.3   602  NDP602     -0.3112
      5  C5B      -38.0490   28.6430   59.5360 C.3   602  NDP602      0.1813
      6  C4B      -38.5240   28.6350   60.9620 C.3   602  NDP602      0.1820
      7  O4B      -37.3320   28.4520   61.7850 O.3   602  NDP602     -0.3136
      8  C3B      -39.1750   29.8470   61.4630 C.3   602  NDP602      0.2157
      9  O3B      -40.5080   30.1700   60.9890 O.3   602  NDP602     -0.2175
     10  C2B      -38.9140   29.8930   62.8960 C.3   602  NDP602      0.2314
     11  O2B      -39.7550   29.1340   63.7370 O.3   602  NDP602     -0.2630
     12  C1B      -37.4670   29.4180   62.8350 C.3   602  NDP602      0.3158
     13  N9A      -36.4790   30.5100   62.7650 N.pl3 602  NDP602     -0.1439
     14  C8A      -35.5890   30.8290   61.7180 C.3   602  NDP602      0.3377
     15  N7A      -34.8700   31.8870   62.0200 N.2   602  NDP602     -0.2095
     16  C5A      -35.2650   32.2870   63.2650 C.2   602  NDP602      0.2526
     17  C6A      -34.8860   33.3410   64.1220 C.2   602  NDP602      0.4393
     18  N6A      -33.9430   34.1950   63.7320 N.pl3 602  NDP602      0.2180
     19  N1A      -35.4840   33.4770   65.3370 N.2   602  NDP602      0.0021
     20  C2A      -36.4500   32.5900   65.7180 C.3   602  NDP602      0.5254
     21  N3A      -36.8860   31.5520   64.9770 N.2   602  NDP602     -0.0055
     22  C4A      -36.2410   31.4590   63.7430 C.2   602  NDP602      0.3518
     23  O3       -38.2010   27.1730   56.7900 O.3   602  NDP602     -0.2703
     24  PN       -38.2800   27.7210   55.2880 P.3   602  NDP602      0.2189
     25  O1N      -39.6900   28.0480   55.0410 O.2   602  NDP602     -0.5170
     26  O2N      -37.1960   28.7370   55.1310 O.3   602  NDP602     -0.4371
     27  O5D      -37.7420   26.4210   54.5320 O.3   602  NDP602     -0.3112
     28  C5D      -38.5030   25.1730   54.5660 C.3   602  NDP602      0.1813
     29  C4D      -38.4850   24.5630   53.1300 C.3   602  NDP602      0.1799
     30  O4D      -37.1640   24.0890   52.9730 O.3   602  NDP602     -0.3327
     31  C3D      -39.3410   23.2780   53.1010 C.3   602  NDP602      0.2158
     32  O3D      -40.0590   23.1720   51.8850 O.3   602  NDP602     -0.2175
     33  C2D      -38.4140   22.1300   53.3770 C.3   602  NDP602      0.2309
     34  O2D      -38.8850   20.9870   52.7160 O.3   602  NDP602     -0.2158
     35  C1D      -37.1630   22.7250   52.6040 C.3   602  NDP602      0.2263
     36  N1N      -35.8790   22.1510   53.0520 N.pl3 602  NDP602     -0.2787
     37  C2N      -35.0510   21.7180   52.0010 C.3   602  NDP602      0.1244
     38  C3N      -33.7680   21.1620   52.3600 C.2   602  NDP602      0.0544
     39  C7N      -32.8670   20.7050   51.2930 C.2   602  NDP602      0.2818
     40  O7N      -31.7260   20.2230   51.4960 O.2   602  NDP602     -0.2670
     41  N7N      -33.2630   20.7950   50.0010 N.am  602  NDP602     -0.0839
     42  C4N      -33.4280   21.0850   53.7250 C.2   602  NDP602      0.0033
     43  C5N      -34.2580   21.5100   54.7390 C.2   602  NDP602      0.0157
     44  C6N      -35.4920   22.0500   54.4100 C.2   602  NDP602      0.0633
     45  P2B      -41.1040   29.6240   64.3520 P.3   602  NDP602      0.5328
     46  O1X      -41.9590   29.9540   63.1920 O.2   602  NDP602     -0.2224
     47  O2X      -41.6290   28.5140   65.1660 O.3   602  NDP602     -0.1145
     48  O3X      -40.8520   30.8770   65.2010 O.3   602  NDP602     -0.1145
@<TRIPOS>BOND
     1    41    39   am
     2    39    40    2
     3    39    38    1
     4    32    31    1
     5    37    38    1
     6    37    36    1
     7    38    42    2
     8    35    30    1
     9    35    36    1
    10    35    33    1
    11    34    33    1
    12    30    29    1
    13    36    44    1
    14    31    29    1
    15    31    33    1
    16    29    28    1
    17    42    43    1
    18    44    43    2
    19    27    28    1
    20    27    24    1
    21    25    24    2
    22    26    24    1
    23    24    23    1
    24    23     1    1
    25     2     1    2
    26     1     3    1
    27     1     4    1
    28     4     5    1
    29     5     6    1
    30     6     8    1
    31     6     7    1
    32     9     8    1
    33     8    10    1
    34    14    15    1
    35    14    13    1
    36     7    12    1
    37    15    16    2
    38    13    12    1
    39    13    22    1
    40    12    10    1
    41    10    11    1
    42    46    45    2
    43    16    22    1
    44    16    17    1
    45    18    17    1
    46    11    45    1
    47    22    21    2
    48    17    19    2
    49    45    47    1
    50    45    48    1
    51    21    20    1
    52    19    20    1
