@<TRIPOS>MOLECULE
3inv_UMP_A_1.pdb
 20 21 0 0 0
SMALL
GASTEIGER

@<TRIPOS>ATOM
      1  N1        14.0040   22.7630   63.3390 N.am  603  UMP603     -0.1790
      2  C2        12.8570   23.5210   62.9860 C.1   603  UMP603      0.2844
      3  N3        12.1490   24.0330   64.0780 N.2   603  UMP603     -0.2452
      4  C4        12.4680   23.8630   65.4400 C.1   603  UMP603      0.2182
      5  C5        13.6690   23.0580   65.7200 C.2   603  UMP603      0.1242
      6  C6        14.3900   22.5400   64.6290 C.2   603  UMP603      0.0928
      7  O2        12.4790   23.7410   61.8440 O.2   603  UMP603     -0.1918
      8  O4        11.7840   24.3580   66.3270 O.2   603  UMP603     -0.2085
      9  C1'       14.8890   22.1490   62.3040 C.3   603  UMP603      0.2090
     10  C2'       15.7270   23.1150   61.4380 C.3   603  UMP603      0.0874
     11  C3'       16.9370   22.3060   60.9920 C.3   603  UMP603      0.1857
     12  C4'       17.2860   21.3150   62.1190 C.3   603  UMP603      0.1774
     13  O3'       16.5030   21.5600   59.8350 O.3   603  UMP603     -0.2203
     14  O4'       15.9580   21.2190   62.8040 O.3   603  UMP603     -0.3339
     15  C5'       18.2740   21.9310   63.1150 C.3   603  UMP603      0.1858
     16  O5'       19.6080   21.9820   62.5250 O.3   603  UMP603     -0.2675
     17  P         20.5020   23.2830   62.4960 P.3   603  UMP603      0.5327
     18  OP1       19.8140   24.4040   61.8550 O.3   603  UMP603     -0.1145
     19  OP2       20.8160   23.6030   63.9150 O.3   603  UMP603     -0.1145
     20  OP3       21.7050   23.0060   61.7220 O.2   603  UMP603     -0.2224
@<TRIPOS>BOND
     1    13    11    1
     2    11    10    1
     3    11    12    1
     4    10     9    1
     5    20    17    2
     6     7     2    2
     7    18    17    1
     8    12    14    1
     9    12    15    1
    10     9    14    1
    11     9     1    1
    12    17    16    1
    13    17    19    1
    14    16    15    1
    15     2     1   am
    16     2     3    2
    17     1     6    1
    18     3     4    2
    19     6     5    2
    20     4     5    1
    21     4     8    2
