@<TRIPOS>MOLECULE
3inw_JZB_A_1.pdb
 33 35 0 0 0
SMALL
GASTEIGER

@<TRIPOS>ATOM
      1 CL         70.4140   12.8440   22.3830 Cl    2001  JZB2001    -0.0792
      2  C1        66.5550   12.1350   23.2610 C.ar  2001  JZB2001     0.0851
      3  N1        72.4670   10.4410   23.6340 N.2   2001  JZB2001    -0.0865
      4  O1        68.7300    9.4650   26.5790 O.3   2001  JZB2001    -0.4450
      5  C2        67.7460   12.5390   22.6310 C.ar  2001  JZB2001     0.2090
      6  N2        74.7590   14.1990   24.7150 N.am  2001  JZB2001    -0.2764
      7  O2        67.5550   11.0870   27.4550 O.2   2001  JZB2001    -0.2448
      8  C3        68.9710   12.3080   23.1760 C.ar  2001  JZB2001     0.0933
      9  O3        67.7120   13.0780   21.4110 O.3   2001  JZB2001    -0.2856
     10  C4        69.0910   11.7010   24.4060 C.ar  2001  JZB2001     0.0070
     11  O4        65.5730   11.1700   25.1860 O.3   2001  JZB2001    -0.2862
     12  C5        67.9400   11.3040   25.1040 C.ar  2001  JZB2001     0.1119
     13  O5        73.1770   11.5610   24.0300 O.2   2001  JZB2001    -0.3675
     14  C6        66.6810   11.5350   24.5280 C.ar  2001  JZB2001     0.2048
     15  O6        76.2430   12.6200   25.0330 O.2   2001  JZB2001    -0.2707
     16  C7        70.5080   11.4300   24.9200 C.3   2001  JZB2001     0.0766
     17  C8        68.0560   10.6180   26.4470 C.2   2001  JZB2001     0.3441
     18  C9        71.2220   10.3490   24.0580 C.2   2001  JZB2001     0.1011
     19  C10       70.2920    9.2070   23.7480 C.2   2001  JZB2001     0.0137
     20  C11       68.7960    8.8330   27.8340 C.3   2001  JZB2001     0.2134
     21  C12       68.5700    7.3250   27.6080 C.3   2001  JZB2001     0.0731
     22  C13       69.5610    6.8080   26.5630 C.2   2001  JZB2001    -0.0268
     23  C14       69.0400    6.3420   25.4090 C.2   2001  JZB2001    -0.0302
     24  C15       69.8590    5.7920   24.2660 C.3   2001  JZB2001     0.0304
     25  C16       70.6730    7.9950   23.4000 C.2   2001  JZB2001    -0.0245
     26  C17       69.7180    6.8380   23.1230 C.3   2001  JZB2001     0.0307
     27  C18       74.5020   11.9010   23.5340 C.3   2001  JZB2001     0.3225
     28  C19       75.2060   12.9080   24.4660 C.2   2001  JZB2001     0.2732
     29  C20       73.4830   14.7160   24.1620 C.3   2001  JZB2001     0.0935
     30  C21       72.4770   14.9100   25.2680 C.3   2001  JZB2001     0.0216
     31  C22       73.0910   15.8880   26.2900 C.3   2001  JZB2001     0.0035
     32  C23       74.2330   15.1350   26.9660 C.3   2001  JZB2001     0.0216
     33  C24       75.2690   15.0120   25.8580 C.3   2001  JZB2001     0.0935
@<TRIPOS>BOND
     1     9     5    1
     2     1     8    1
     3     5     8   ar
     4     5     2   ar
     5    26    25    1
     6    26    24    1
     7     8    10   ar
     8     2    14   ar
     9    25    19    2
    10    27    13    1
    11    27    28    1
    12     3    13    1
    13     3    18    2
    14    19    18    1
    15    18    16    1
    16    29     6    1
    17    29    30    1
    18    24    23    1
    19    10    16    1
    20    10    12   ar
    21    28     6   am
    22    28    15    2
    23    14    12   ar
    24    14    11    1
    25     6    33    1
    26    12    17    1
    27    30    31    1
    28    23    22    2
    29    33    32    1
    30    31    32    1
    31    17     4    1
    32    17     7    2
    33    22    21    1
    34     4    20    1
    35    21    20    1
