@<TRIPOS>MOLECULE
3inx_JZC_A_1.pdb
 32 34 0 0 0
SMALL
GASTEIGER

@<TRIPOS>ATOM
      1  C1        66.0120   12.1170   23.2050 C.ar  2001  JZC2001     0.0842
      2  N1        71.8090   10.7420   23.1990 N.2   2001  JZC2001    -0.0865
      3  O1        67.9330    9.3890   26.5810 O.3   2001  JZC2001    -0.4454
      4  C2        67.2130   12.3330   22.5260 C.ar  2001  JZC2001     0.1986
      5  N2        73.8220   14.1530   24.8330 N.am  2001  JZC2001    -0.2764
      6  O2        66.7220   11.1220   27.3180 O.2   2001  JZC2001    -0.2448
      7  C3        68.4390   11.9590   23.0560 C.ar  2001  JZC2001     0.0386
      8  O3        67.2250   12.9120   21.2900 O.3   2001  JZC2001    -0.2865
      9  C4        68.5190   11.3460   24.3140 C.ar  2001  JZC2001    -0.0035
     10  O4        64.8900   11.3050   25.1830 O.3   2001  JZC2001    -0.2862
     11  C5        67.3030   11.1160   25.0210 C.ar  2001  JZC2001     0.1111
     12  O5        72.3100   11.8670   23.6850 O.2   2001  JZC2001    -0.3675
     13  C6        66.0610   11.5280   24.4890 C.ar  2001  JZC2001     0.2048
     14  O6        75.3710   12.6720   25.1680 O.2   2001  JZC2001    -0.2707
     15  C7        69.9230   10.9420   24.7850 C.3   2001  JZC2001     0.0758
     16  C8        67.2730   10.5220   26.3790 C.2   2001  JZC2001     0.3441
     17  C9        70.7130   10.2330   23.6650 C.2   2001  JZC2001     0.1011
     18  C10       70.2950    8.9280   23.0780 C.2   2001  JZC2001     0.0137
     19  C11       67.9510    8.7390   27.8700 C.3   2001  JZC2001     0.2088
     20  C12       67.8290    7.2180   27.6550 C.3   2001  JZC2001     0.0475
     21  C13       68.7880    6.7370   26.5740 C.3   2001  JZC2001     0.0038
     22  C14       68.1950    6.3310   25.4250 C.3   2001  JZC2001     0.0005
     23  C15       69.0210    5.8670   24.2280 C.3   2001  JZC2001     0.0047
     24  C16       69.2690    8.2360   23.5840 C.2   2001  JZC2001    -0.0248
     25  C17       68.8560    6.8660   23.0580 C.3   2001  JZC2001     0.0261
     26  C18       73.7510   11.9620   23.5090 C.3   2001  JZC2001     0.3225
     27  C19       74.3600   12.9340   24.5380 C.2   2001  JZC2001     0.2732
     28  C20       72.5760   14.6350   24.1850 C.3   2001  JZC2001     0.0935
     29  C21       71.4530   14.8930   25.2010 C.3   2001  JZC2001     0.0216
     30  C22       71.9770   15.8970   26.2290 C.3   2001  JZC2001     0.0035
     31  C23       73.1550   15.2770   26.9830 C.3   2001  JZC2001     0.0216
     32  C24       74.3010   14.9110   26.0330 C.3   2001  JZC2001     0.0935
@<TRIPOS>BOND
     1     8     4    1
     2     4     7   ar
     3     4     1   ar
     4     7     9   ar
     5    25    24    1
     6    25    23    1
     7    18    24    2
     8    18    17    1
     9     2    17    2
    10     2    12    1
    11     1    13   ar
    12    26    12    1
    13    26    27    1
    14    17    15    1
    15    28     5    1
    16    28    29    1
    17    23    22    1
    18     9    15    1
    19     9    11   ar
    20    13    11   ar
    21    13    10    1
    22    27     5   am
    23    27    14    2
    24     5    32    1
    25    11    16    1
    26    29    30    1
    27    22    21    1
    28    32    31    1
    29    30    31    1
    30    16     3    1
    31    16     6    2
    32    21    20    1
    33     3    19    1
    34    20    19    1
