@<TRIPOS>MOLECULE
3iny_7DG_A_1.pdb
 11 12 0 0 0
SMALL
GASTEIGER

@<TRIPOS>ATOM
      1  N9       -16.8210    6.2130   53.9440 N.2   293  7DG293     -0.1844
      2  C8       -17.9780    6.7500   53.4120 C.2   293  7DG293      0.1079
      3  C7       -17.6420    7.7130   52.4120 C.2   293  7DG293      0.0286
      4  C5       -16.1790    7.7390   52.3270 C.3   293  7DG293      0.2395
      5  C6       -15.2010    8.4980   51.5110 C.1   293  7DG293      0.2104
      6  O6       -15.5480    9.3390   50.6650 O.2   293  7DG293     -0.2120
      7  N1       -13.9130    8.2060   51.7960 N.2   293  7DG293     -0.2525
      8  C2       -13.5610    7.2890   52.7640 C.1   293  7DG293      0.2602
      9  N2       -12.2790    6.9930   53.0290 N.pl3 293  7DG293     -0.0221
     10  N3       -14.3790    6.5730   53.5510 N.2   293  7DG293     -0.2733
     11  C4       -15.6790    6.7620   53.3620 C.1   293  7DG293      0.0976
@<TRIPOS>BOND
     1     6     5    2
     2     5     7    2
     3     5     4    1
     4     7     8    2
     5     4     3    1
     6     4    11    1
     7     3     2    2
     8     8     9    1
     9     8    10    2
    10    11    10    2
    11    11     1    2
    12     2     1    1
