@<TRIPOS>MOLECULE
3io3_ADP_A_1.pdb
 27 29 0 0 0
SMALL
GASTEIGER

@<TRIPOS>ATOM
      1  PB        25.2700   40.7070   64.6220 P.3   590  ADP590      0.5373
      2  O1B       26.2640   39.5820   64.5610 O.2   590  ADP590     -0.2221
      3  O2B       25.9210   41.9670   65.1220 O.3   590  ADP590     -0.1143
      4  O3B       23.9690   40.4060   65.3370 O.3   590  ADP590     -0.1143
      5  PA        23.5400   41.1800   62.3290 P.3   590  ADP590      0.2231
      6  O1A       22.8400   39.8660   62.1310 O.2   590  ADP590     -0.5169
      7  O2A       22.8170   42.2520   63.1010 O.3   590  ADP590     -0.4370
      8  O3A       24.9770   40.9460   63.0330 O.3   590  ADP590     -0.2261
      9  O5'       23.9880   41.6880   60.8570 O.3   590  ADP590     -0.3111
     10  C5'       24.6720   42.9270   60.6880 C.3   590  ADP590      0.1813
     11  C4'       23.9460   43.6390   59.5640 C.3   590  ADP590      0.1821
     12  O4'       24.1430   42.8670   58.3690 O.3   590  ADP590     -0.3135
     13  C3'       22.4430   43.7310   59.7900 C.3   590  ADP590      0.2184
     14  O3'       22.0520   45.0610   59.4280 O.3   590  ADP590     -0.2174
     15  C2'       21.8200   42.6180   58.9420 C.3   590  ADP590      0.2570
     16  O2'       20.5770   42.9120   58.2840 O.3   590  ADP590     -0.2130
     17  C1'       22.8760   42.4150   57.8750 C.3   590  ADP590      0.3186
     18  N9        23.1270   41.0220   57.4410 N.pl3 590  ADP590     -0.1439
     19  C8        23.5570   39.9660   58.1590 C.3   590  ADP590      0.3377
     20  N7        23.7460   38.8800   57.3740 N.2   590  ADP590     -0.2095
     21  C5        23.4670   39.2450   56.1020 C.2   590  ADP590      0.2526
     22  C6        23.4750   38.5770   54.7800 C.2   590  ADP590      0.4393
     23  N6        23.8220   37.2720   54.6370 N.pl3 590  ADP590      0.2180
     24  N1        23.1130   39.3220   53.7190 N.2   590  ADP590      0.0021
     25  C2        22.7580   40.6200   53.8370 C.3   590  ADP590      0.5254
     26  N3        22.7340   41.2940   54.9930 N.2   590  ADP590     -0.0055
     27  C4        23.0640   40.6570   56.1440 C.2   590  ADP590      0.3518
@<TRIPOS>BOND
     1    24    25    1
     2    24    22    2
     3    25    26    1
     4    23    22    1
     5    22    21    1
     6    26    27    2
     7    21    27    1
     8    21    20    2
     9    27    18    1
    10    20    19    1
    11    18    17    1
    12    18    19    1
    13    17    12    1
    14    17    15    1
    15    16    15    1
    16    12    11    1
    17    15    13    1
    18    14    13    1
    19    11    13    1
    20    11    10    1
    21    10     9    1
    22     9     5    1
    23     6     5    2
    24     5     8    1
    25     5     7    1
    26     8     1    1
    27     2     1    2
    28     1     3    1
    29     1     4    1
