@<TRIPOS>MOLECULE
3io7_1P5_A_1.pdb
 29 32 0 0 0
SMALL
GASTEIGER

@<TRIPOS>ATOM
      1  N3        14.8660   16.6100    4.0650 N.am    1  1P51       -0.2794
      2  C4        14.5510   15.6640    2.9800 C.3     1  1P51        0.0935
      3  C5        15.4050   15.9210    1.7360 C.3     1  1P51        0.0233
      4  C6        15.9240   16.3910    4.8910 C.2     1  1P51        0.2292
      5  C8        16.8280   15.2000    4.7700 C.3     1  1P51        0.1234
      6  C10       18.2800   15.6330    5.0340 C.3     1  1P51        0.0175
      7  C15       16.8010   11.8770    5.5320 C.2     1  1P51        0.3028
      8  C17       15.4020   10.4250    4.2010 C.2     1  1P51        0.0717
      9  C21       14.2640   10.1050    3.3030 C.3     1  1P51        0.2634
     10  C22       13.2510   10.9400    2.7880 C.2     1  1P51        0.3596
     11  C24       11.9190   12.7820    2.3290 C.2     1  1P51        0.2352
     12  C26       11.3870   10.7030    1.3050 C.3     1  1P51        0.2876
     13  C1        14.6610   19.1190    3.9210 C.3     1  1P51        0.0233
     14  C2        13.9790   17.7860    4.2590 C.3     1  1P51        0.0935
     15  O7        16.1650   17.1650    5.7890 O.2     1  1P51       -0.2747
     16  C11       18.9120   14.8880    6.2150 C.3     1  1P51        0.0514
     17  C12       18.6090   13.3830    6.1500 C.3     1  1P51        0.2020
     18  N13       17.1540   13.0940    6.1320 N.pl3   1  1P51       -0.1936
     19  C14       16.2740   14.2330    5.8210 C.3     1  1P51        0.2110
     20  C16       15.6660   11.7090    4.7220 C.3     1  1P51        0.1588
     21  N18       16.2700    9.4410    4.4730 N.2     1  1P51       -0.2256
     22  C19       17.3170    9.6330    5.2380 C.3     1  1P51        0.3909
     23  N20       17.5710   10.8150    5.7590 N.2     1  1P51       -0.0407
     24  N23       12.9510   12.2360    2.9580 N.2     1  1P51       -0.0360
     25  C25       11.1040   12.0230    1.4710 C.2     1  1P51        0.0793
     26  N27       12.4670   10.1680    1.9570 N.pl3   1  1P51        0.0207
     27  N28       12.9990    8.8820    1.9520 N.2     1  1P51        0.1428
     28  C29       14.0510    8.8370    2.7430 C.2     1  1P51        0.4528
     29  N30       14.8430    7.7180    2.9800 N.pl3   1  1P51        0.2166
@<TRIPOS>BOND
     1    12    25    1
     2    12    26    1
     3    25    11    2
     4     3     2    1
     5    27    26    1
     6    27    28    2
     7    26    10    1
     8    11    24    1
     9    28    29    1
    10    28     9    1
    11    10    24    2
    12    10     9    1
    13     2     1    1
    14     9     8    1
    15    13    14    1
    16     1    14    1
    17     1     4   am
    18     8    21    2
    19     8    20    1
    20    21    22    1
    21    20     7    1
    22     5     4    1
    23     5     6    1
    24     5    19    1
    25     4    15    2
    26     6    16    1
    27    22    23    1
    28     7    23    2
    29     7    18    1
    30    19    18    1
    31    18    17    1
    32    17    16    1
