@<TRIPOS>MOLECULE
3iob_A4D_A_1.pdb
 19 21 0 0 0
SMALL
GASTEIGER

@<TRIPOS>ATOM
      1  N1        13.7030    9.6810   -5.3280 N.2   301  A4D301      0.0021
      2  C2        12.7150    9.2910   -4.5130 C.3   301  A4D301      0.5254
      3  N3        12.8640    9.3200   -3.1850 N.2   301  A4D301     -0.0055
      4  C4        14.0300    9.7430   -2.6340 C.2   301  A4D301      0.3518
      5  C5        15.0700   10.1580   -3.4590 C.2   301  A4D301      0.2526
      6  C6        14.8850   10.1110   -4.8330 C.2   301  A4D301      0.4393
      7  N6        15.8750   10.4850   -5.6310 N.pl3 301  A4D301      0.2180
      8  N7        16.0900   10.5250   -2.6830 N.2   301  A4D301     -0.2095
      9  C8        15.7100   10.3600   -1.4120 C.3   301  A4D301      0.3377
     10  N9        14.4640    9.8850   -1.3750 N.pl3 301  A4D301     -0.1439
     11  OAB       12.5160    8.0950    1.9410 O.3   301  A4D301     -0.2175
     12  OAC       14.4300    7.2470    0.1400 O.3   301  A4D301     -0.2130
     13  SAD       14.7580   10.4330    4.6390 S.3   301  A4D301     -0.0794
     14  CAG       14.6880   10.9820    2.8960 C.3   301  A4D301      0.1010
     15  OAK       13.5730   10.7400    0.6970 O.3   301  A4D301     -0.3152
     16  CAO       13.7910    8.7300    2.0240 C.3   301  A4D301      0.2168
     17  CAP       14.5200    8.5840    0.6890 C.3   301  A4D301      0.2569
     18  CAQ       13.5710   10.2560    2.0970 C.3   301  A4D301      0.1639
     19  CAR       13.7060    9.5720   -0.1640 C.3   301  A4D301      0.3185
@<TRIPOS>BOND
     1     7     6    1
     2     1     6    2
     3     1     2    1
     4     6     5    1
     5     2     3    1
     6     5     8    2
     7     5     4    1
     8     3     4    2
     9     8     9    1
    10     4    10    1
    11     9    10    1
    12    10    19    1
    13    19    17    1
    14    19    15    1
    15    12    17    1
    16    17    16    1
    17    15    18    1
    18    11    16    1
    19    16    18    1
    20    18    14    1
    21    14    13    1
