@<TRIPOS>MOLECULE
3ioc_A5D_A_1.pdb
 27 30 0 0 0
SMALL
GASTEIGER

@<TRIPOS>ATOM
      1  N1        13.9990    9.7850   -5.6050 N.2   301  A5D301      0.0021
      2  C2        13.0560    9.3000   -4.8030 C.3   301  A5D301      0.5254
      3  N3        13.1640    9.4250   -3.4890 N.2   301  A5D301     -0.0055
      4  C4        14.2160   10.0430   -2.9070 C.2   301  A5D301      0.3518
      5  C5        15.2170   10.5550   -3.7200 C.2   301  A5D301      0.2526
      6  C6        15.0940   10.4140   -5.1140 C.2   301  A5D301      0.4393
      7  N6        16.0210   10.8720   -5.9610 N.pl3 301  A5D301      0.2180
      8  N7        16.1190   11.0910   -2.9090 N.2   301  A5D301     -0.2095
      9  C8        15.7200   10.9500   -1.6470 C.3   301  A5D301      0.3377
     10  N9        14.5520   10.3070   -1.6450 N.pl3 301  A5D301     -0.1439
     11  OAB       12.6650    8.0150    1.7470 O.3   301  A5D301     -0.2175
     12  OAC       14.4840    7.5600   -0.3940 O.3   301  A5D301     -0.2130
     13  CAD       13.9240    9.6520    9.4870 C.ar  301  A5D301     -0.0000
     14  CAE       13.5840   10.6390    8.5940 C.ar  301  A5D301     -0.0003
     15  CAF       14.3170    8.3960    9.0170 C.ar  301  A5D301     -0.0003
     16  CAG       13.6530   10.3690    7.2350 C.ar  301  A5D301     -0.0034
     17  CAH       14.3890    8.1170    7.6670 C.ar  301  A5D301     -0.0034
     18  CAK       14.1060    8.8320    5.3030 C.3   301  A5D301      0.0949
     19  CAL       13.5570   11.0430    3.0870 C.3   301  A5D301      0.1010
     20  OAP       13.9190   10.9550    0.5700 O.3   301  A5D301     -0.3152
     21  SAQ       15.7130    9.5640    4.7870 S.3   301  A5D301     -0.0772
     22  SAR       15.2580   11.2750    3.7290 S.3   301  A5D301     -0.0792
     23  CAS       14.0360    9.1090    6.7920 C.ar  301  A5D301     -0.0105
     24  CAW       13.8310    8.8450    1.6830 C.3   301  A5D301      0.2168
     25  CAX       14.5440    8.8020    0.3020 C.3   301  A5D301      0.2569
     26  CAY       13.3430   10.3100    1.7460 C.3   301  A5D301      0.1639
     27  CAZ       13.8030    9.9290   -0.4460 C.3   301  A5D301      0.3185
@<TRIPOS>BOND
     1     7     6    1
     2     1     6    2
     3     1     2    1
     4     6     5    1
     5     2     3    1
     6     5     8    2
     7     5     4    1
     8     3     4    2
     9     8     9    1
    10     4    10    1
    11     9    10    1
    12    10    27    1
    13    27    25    1
    14    27    20    1
    15    12    25    1
    16    25    24    1
    17    20    26    1
    18    24    26    1
    19    24    11    1
    20    26    19    1
    21    19    22    1
    22    22    21    1
    23    21    18    1
    24    18    23    1
    25    23    16   ar
    26    23    17   ar
    27    16    14   ar
    28    17    15   ar
    29    14    13   ar
    30    15    13   ar
