@<TRIPOS>MOLECULE
3iod_A6D_A_1.pdb
 30 33 0 0 0
SMALL
GASTEIGER

@<TRIPOS>ATOM
      1  N1        13.6310    9.6270   -5.3630 N.2   302  A6D302      0.0021
      2  C2        12.6520    9.2610   -4.5340 C.3   302  A6D302      0.5254
      3  N3        12.8010    9.3450   -3.2120 N.2   302  A6D302     -0.0055
      4  C4        13.9500    9.8100   -2.6760 C.2   302  A6D302      0.3518
      5  C5        14.9890   10.1950   -3.5110 C.2   302  A6D302      0.2526
      6  C6        14.8110   10.0890   -4.8880 C.2   302  A6D302      0.4393
      7  N6        15.7930   10.4420   -5.7170 N.pl3 302  A6D302      0.2180
      8  N7        15.9900   10.6010   -2.7380 N.2   302  A6D302     -0.2095
      9  C8        15.6040   10.4840   -1.4690 C.3   302  A6D302      0.3377
     10  N9        14.3690   10.0060   -1.4260 N.pl3 302  A6D302     -0.1439
     11  OAB       12.3660   11.3070    9.5930 O.2   302  A6D302     -0.1261
     12  OAC       12.3780    8.2680    1.8090 O.3   302  A6D302     -0.2175
     13  OAD       14.3360    7.3640    0.0590 O.3   302  A6D302     -0.2130
     14  OAE       14.3480   11.6690   10.9750 O.2   302  A6D302     -0.1261
     15  CAF       16.2320    8.6210    8.9000 C.ar  302  A6D302      0.0014
     16  CAG       15.7980    8.1810    7.6620 C.ar  302  A6D302     -0.0033
     17  CAH       15.5430    9.5720    9.6530 C.ar  302  A6D302      0.0241
     18  CAK       13.9080    9.6810    7.9210 C.ar  302  A6D302      0.0207
     19  CAL       14.1270    8.2690    5.8430 C.3   302  A6D302      0.0949
     20  CAM       14.9040   10.8970    2.7670 C.3   302  A6D302      0.1010
     21  OAQ       13.5520   10.8670    0.6930 O.3   302  A6D302     -0.3152
     22  SAR       13.2930    9.6780    5.0760 S.3   302  A6D302     -0.0772
     23  SAS       14.7520   11.0280    4.5880 S.3   302  A6D302     -0.0792
     24  CAT       14.6180    8.7210    7.1910 C.ar  302  A6D302     -0.0088
     25  CAV       14.3710   10.1080    9.1640 C.ar  302  A6D302      0.1426
     26  CAY       13.6980    8.8130    1.9370 C.3   302  A6D302      0.2168
     27  CAZ       14.4230    8.6940    0.6060 C.3   302  A6D302      0.2569
     28  CBA       13.6230   10.3440    2.0750 C.3   302  A6D302      0.1639
     29  CBB       13.6160    9.7180   -0.2050 C.3   302  A6D302      0.3185
     30  NBD       13.7140   11.0110    9.8960 N.pl3 302  A6D302      0.0577
@<TRIPOS>BOND
     1     7     6    1
     2     1     6    2
     3     1     2    1
     4     6     5    1
     5     2     3    1
     6     5     8    2
     7     5     4    1
     8     3     4    2
     9     8     9    1
    10     4    10    1
    11     9    10    1
    12    10    29    1
    13    29    27    1
    14    29    21    1
    15    13    27    1
    16    27    26    1
    17    21    28    1
    18    12    26    1
    19    26    28    1
    20    28    20    1
    21    20    23    1
    22    23    22    1
    23    22    19    1
    24    19    24    1
    25    24    16   ar
    26    24    18   ar
    27    16    15   ar
    28    18    25   ar
    29    15    17   ar
    30    25    17   ar
    31    25    30    1
    32    11    30    2
    33    30    14    2
