@<TRIPOS>MOLECULE
3ioe_A7D_A_1.pdb
 25 27 0 0 0
SMALL
GASTEIGER

@<TRIPOS>ATOM
      1  N1        13.7440    9.5570   -5.3120 N.2   901  A7D901      0.0021
      2  C2        12.7570    9.2080   -4.4750 C.3   901  A7D901      0.5254
      3  N3        12.9440    9.2860   -3.1570 N.2   901  A7D901     -0.0055
      4  C4        14.1320    9.7200   -2.6430 C.2   901  A7D901      0.3518
      5  C5        15.1750   10.0860   -3.4930 C.2   901  A7D901      0.2526
      6  C6        14.9510    9.9910   -4.8640 C.2   901  A7D901      0.4393
      7  N6        15.9250   10.3260   -5.7130 N.pl3 901  A7D901      0.2180
      8  N7        16.2050   10.4750   -2.7440 N.2   901  A7D901     -0.2095
      9  C8        15.8430   10.3580   -1.4630 C.3   901  A7D901      0.3377
     10  N9        14.5860    9.9030   -1.4000 N.pl3 901  A7D901     -0.1439
     11  OAB       14.8640    9.8980    9.5210 O.3   901  A7D901     -0.2176
     12  OAC       16.3630    7.8700    7.4210 O.3   901  A7D901     -0.2203
     13  OAD       12.5240    8.1730    1.8270 O.3   901  A7D901     -0.2175
     14  OAE       14.5120    7.2260   -0.0600 O.3   901  A7D901     -0.2130
     15  CAH       14.6630    8.5060    9.1750 C.3   901  A7D901      0.2147
     16  CAI       14.7510    9.2620    5.3170 C.3   901  A7D901      0.0603
     17  CAJ       14.4370    9.3940    6.8280 C.3   901  A7D901      0.0473
     18  CAK       15.2100   10.5420    2.7790 C.3   901  A7D901      0.0899
     19  OAO       13.8100   10.7210    0.7290 O.3   901  A7D901     -0.3153
     20  SAP       14.9760   10.9260    4.5410 S.3   901  A7D901     -0.1375
     21  CAT       14.9380    8.2060    7.6740 C.3   901  A7D901      0.1857
     22  CAU       13.8800    8.6100    1.9190 C.3   901  A7D901      0.2168
     23  CAV       14.5890    8.5240    0.5620 C.3   901  A7D901      0.2569
     24  CAW       13.8800   10.1340    2.0890 C.3   901  A7D901      0.1630
     25  CAX       13.8250    9.6210   -0.2060 C.3   901  A7D901      0.3185
@<TRIPOS>BOND
     1     7     6    1
     2     1     6    2
     3     1     2    1
     4     6     5    1
     5     2     3    1
     6     5     8    2
     7     5     4    1
     8     3     4    2
     9     8     9    1
    10     4    10    1
    11     9    10    1
    12    10    25    1
    13    25    23    1
    14    25    19    1
    15    14    23    1
    16    23    22    1
    17    19    24    1
    18    13    22    1
    19    22    24    1
    20    24    18    1
    21    18    20    1
    22    20    16    1
    23    16    17    1
    24    17    21    1
    25    12    21    1
    26    21    15    1
    27    15    11    1
