@<TRIPOS>MOLECULE
3iof_IFS_A_1.pdb
 18 18 0 0 0
SMALL
GASTEIGER

@<TRIPOS>ATOM
      1  C1         3.5910   48.7810   48.7590 C.ar  308  IFS308      0.0772
      2  O1         5.1610   50.8020   47.7220 O.2   308  IFS308     -0.2530
      3  P1         5.1510   49.2880   48.2010 P.3   308  IFS308      0.3655
      4  S1         3.5750   45.3880   46.8610 S.3   308  IFS308     -0.0770
      5  C2         3.2080   47.3310   48.8720 C.ar  308  IFS308     -0.0034
      6  C3         1.9250   47.0810   49.3540 C.ar  308  IFS308     -0.0031
      7  C4         1.0520   48.1170   49.7120 C.ar  308  IFS308     -0.0003
      8  C5         1.4290   49.4490   49.5980 C.ar  308  IFS308      0.0002
      9  C6         2.6950   49.7780   49.1200 C.ar  308  IFS308      0.0071
     10  C7         4.0700   46.1180   48.4740 C.3   308  IFS308      0.0951
     11 C101        6.8870   51.3010   50.3660 C.3   308  IFS308      0.0326
     12 C102        7.4760   46.6310   46.7740 C.3   308  IFS308      0.0326
     13  O21        5.7420   48.2740   47.1100 O.3   308  IFS308     -0.2937
     14  O22        6.1360   49.1910   49.4500 O.3   308  IFS308     -0.2937
     15  C81        5.9190   50.1240   50.5190 C.3   308  IFS308      0.1244
     16  C82        7.1470   48.1170   46.8510 C.3   308  IFS308      0.1244
     17  C91        6.0580   49.3830   51.8450 C.3   308  IFS308      0.0326
     18  C92        7.4310   48.8370   45.5490 C.3   308  IFS308      0.0326
@<TRIPOS>BOND
     1    18    16    1
     2    12    16    1
     3    16    13    1
     4     4    10    1
     5    13     3    1
     6     2     3    2
     7     3     1    1
     8     3    14    1
     9    10     5    1
    10     1     5   ar
    11     1     9   ar
    12     5     6   ar
    13     9     8   ar
    14     6     7   ar
    15    14    15    1
    16     8     7   ar
    17    11    15    1
    18    15    17    1
