@<TRIPOS>MOLECULE
3iog_SDF_A_1.pdb
 14 14 0 0 0
SMALL
GASTEIGER

@<TRIPOS>ATOM
      1  C1         3.5350    2.5540   68.5830 C.ar  311  SDF311      0.0058
      2  P1         2.6000    4.5680   70.3450 P.3   311  SDF311      0.1317
      3  S1         0.9150    2.9580   68.4820 S.3   311  SDF311     -0.0703
      4 CL1         4.9390    4.2650   66.8790 Cl    311  SDF311     -0.0825
      5  C2         4.5970    2.7150   67.6810 C.ar  311  SDF311      0.0558
      6 CL2         6.5680   -0.8290   67.5930 Cl    311  SDF311     -0.0822
      7  C3         5.5060    1.6960   67.4000 C.ar  311  SDF311      0.0225
      8  C4         5.3600    0.4530   67.9860 C.ar  311  SDF311      0.0585
      9  C5         4.2770    0.2490   68.8470 C.ar  311  SDF311      0.0112
     10  C6         3.3620    1.2810   69.1210 C.ar  311  SDF311     -0.0013
     11  C7         2.5570    3.6650   68.7730 C.3   311  SDF311      0.1325
     12  O11        3.9810    5.1630   70.5320 O.3   311  SDF311     -0.3563
     13  O12        1.5550    5.6410   70.1640 O.2   311  SDF311     -0.4589
     14  O13        2.3110    3.5760   71.4580 O.3   311  SDF311     -0.3563
@<TRIPOS>BOND
     1     4     5    1
     2     7     5   ar
     3     7     8   ar
     4     6     8    1
     5     5     1   ar
     6     8     9   ar
     7     3    11    1
     8     1    11    1
     9     1    10   ar
    10    11     2    1
    11     9    10   ar
    12    13     2    2
    13     2    12    1
    14     2    14    1
