@<TRIPOS>MOLECULE
3ioi_1GW_A_1.pdb
 43 46 0 0 0
SMALL
GASTEIGER

@<TRIPOS>ATOM
      1  N1        16.4000   22.9620    7.8810 N.am  355  1GW355     -0.1767
      2  C2        17.5710   23.7460    8.1380 C.1   355  1GW355      0.2845
      3  O2        18.0270   24.3870    7.2420 O.2   355  1GW355     -0.1918
      4  N3        18.1510   23.7060    9.4500 N.2   355  1GW355     -0.2452
      5  C4        17.6100   22.9530   10.4510 C.1   355  1GW355      0.2179
      6  O4        18.0910   22.9570   11.5530 O.2   355  1GW355     -0.2085
      7  C5        16.3280   22.1380   10.1470 C.2   355  1GW355      0.1170
      8  C6        15.7840   22.1280    8.9040 C.2   355  1GW355      0.0926
      9  PA        14.4720   18.2240    7.3940 P.3   355  1GW355      0.2189
     10  PB        12.3840   16.2990    6.6310 P.3   355  1GW355      0.2208
     11  C1'       10.0340   17.1030    5.5420 C.3   355  1GW355      0.2742
     12  O1A       15.1660   17.9180    5.9600 O.2   355  1GW355     -0.5170
     13  O1B       11.5180   15.2460    7.5580 O.3   355  1GW355     -0.4371
     14  C1D       15.8490   23.0590    6.5220 C.3   355  1GW355      0.2401
     15  C2'        9.9340   17.7670    4.1920 C.3   355  1GW355      0.2409
     16  O2'       10.8790   17.2180    3.3060 O.3   355  1GW355     -0.2149
     17  O2A       15.2960   17.9000    8.5510 O.3   355  1GW355     -0.4371
     18  O2B       13.2470   15.6800    5.6150 O.2   355  1GW355     -0.5170
     19  C2D       16.6380   22.2810    5.4870 C.3   355  1GW355      0.2319
     20  O2D       16.6110   22.8520    4.1830 O.3   355  1GW355     -0.2157
     21  C3'       10.2200   19.2590    4.4130 C.3   355  1GW355      0.2198
     22  O3'       10.2440   19.9630    3.1880 O.3   355  1GW355     -0.2174
     23  O3A       13.1340   17.2940    7.6870 O.3   355  1GW355     -0.2703
     24  O3B       11.3380   17.4180    5.9890 O.3   355  1GW355     -0.2857
     25  C3D       15.9680   20.9190    5.5510 C.3   355  1GW355      0.2158
     26  O3D       16.2670   20.0750    4.4580 O.3   355  1GW355     -0.2175
     27  C4'        9.1020   19.8070    5.3450 C.3   355  1GW355      0.2144
     28  O4'        7.8580   19.8410    4.6660 O.3   355  1GW355     -0.2176
     29  C4D       14.4620   21.3440    5.6520 C.3   355  1GW355      0.1799
     30  O4D       14.5170   22.5180    6.5470 O.3   355  1GW355     -0.3320
     31  C5'        9.0770   19.0300    6.7210 C.3   355  1GW355      0.1835
     32  O5'        9.0200   17.5970    6.4310 O.3   355  1GW355     -0.3254
     33  C5D       13.4540   20.2820    6.1990 C.3   355  1GW355      0.1813
     34  O5D       13.9850   19.7610    7.4240 O.3   355  1GW355     -0.3112
     35  C6'        7.9270   19.4510    7.6650 C.3   355  1GW355      0.2142
     36  O6'        8.0640   20.6790    8.3040 O.3   355  1GW355     -0.2176
     37  OAB       15.0420   20.1640   15.8650 O.3   355  1GW355     -0.2146
     38  CAP       14.2630   19.4870   12.3550 C.ar  355  1GW355      0.0053
     39  CAQ       14.5000   20.2880   11.0330 C.ar  355  1GW355      0.0075
     40  SAZ       16.3330   21.0030   12.7270 S.2   355  1GW355     -0.0879
     41  CBA       15.4340   19.3150   14.8290 C.3   355  1GW355      0.2150
     42  CBE       15.3450   19.8780   13.4170 C.ar  355  1GW355      0.0402
     43  CBF       15.7230   21.2240   11.2280 C.ar  355  1GW355      0.0425
@<TRIPOS>BOND
     1    22    21    1
     2    16    15    1
     3    20    19    1
     4    15    21    1
     5    15    11    1
     6    21    27    1
     7    26    25    1
     8    28    27    1
     9    27    31    1
    10    19    25    1
    11    19    14    1
    12    11    24    1
    13    11    32    1
    14    25    29    1
    15    18    10    2
    16    29    33    1
    17    29    30    1
    18    12     9    2
    19    24    10    1
    20    33    34    1
    21    32    31    1
    22    14    30    1
    23    14     1    1
    24    10    13    1
    25    10    23    1
    26    31    35    1
    27     3     2    2
    28     9    34    1
    29     9    23    1
    30     9    17    1
    31    35    36    1
    32     1     2   am
    33     1     8    1
    34     2     4    2
    35     8     7    2
    36     4     5    2
    37     7     5    1
    38     7    43    1
    39     5     6    2
    40    39    43   ar
    41    39    38   ar
    42    43    40   ar
    43    38    42   ar
    44    40    42   ar
    45    42    41    1
    46    41    37    1
