@<TRIPOS>MOLECULE
3ioj_UDP_A_1.pdb
 25 26 0 0 0
SMALL
GASTEIGER

@<TRIPOS>ATOM
      1  N1        16.3620  -33.7580  -14.1650 N.am  475  UDP475     -0.1766
      2  C2        17.5390  -34.0060  -13.4770 C.1   475  UDP475      0.2845
      3  N3        18.0510  -35.2870  -13.3800 N.2   475  UDP475     -0.2452
      4  C4        17.3810  -36.3430  -13.9760 C.1   475  UDP475      0.2182
      5  C5        16.1890  -36.0940  -14.6760 C.2   475  UDP475      0.1242
      6  C6        15.6510  -34.7970  -14.7050 C.2   475  UDP475      0.0929
      7  O2        18.1330  -33.0710  -12.9440 O.2   475  UDP475     -0.1918
      8  O4        17.8590  -37.4930  -13.8840 O.2   475  UDP475     -0.2085
      9  C1'       15.8550  -32.3630  -14.2100 C.3   475  UDP475      0.2401
     10  C2'       16.7330  -31.5240  -15.1070 C.3   475  UDP475      0.2319
     11  O2'       16.7510  -30.1800  -14.6440 O.3   475  UDP475     -0.2157
     12  C3'       15.9760  -31.5540  -16.4060 C.3   475  UDP475      0.2158
     13  C4'       14.5290  -31.5610  -15.9340 C.3   475  UDP475      0.1799
     14  O4'       14.5370  -32.3350  -14.7500 O.3   475  UDP475     -0.3320
     15  O3'       16.3190  -30.4210  -17.1670 O.3   475  UDP475     -0.2175
     16  C5'       13.5260  -32.0990  -16.9630 C.3   475  UDP475      0.1813
     17  O5'       14.0480  -33.2840  -17.5230 O.3   475  UDP475     -0.3111
     18  PA        14.5300  -33.3520  -19.0360 P.3   475  UDP475      0.2231
     19  O1A       15.3640  -32.1660  -19.3400 O.2   475  UDP475     -0.5169
     20  O2A       15.2500  -34.6250  -19.3190 O.3   475  UDP475     -0.4370
     21  O3A       13.1120  -33.2920  -19.8210 O.3   475  UDP475     -0.2261
     22  PB        12.9970  -33.0010  -21.3890 P.3   475  UDP475      0.5373
     23  O1B       11.5390  -33.0860  -21.6630 O.3   475  UDP475     -0.1143
     24  O2B       13.8050  -33.9690  -22.1740 O.2   475  UDP475     -0.2221
     25  O3B       13.4550  -31.6350  -21.7460 O.3   475  UDP475     -0.1143
@<TRIPOS>BOND
     1    24    22    2
     2    25    22    1
     3    23    22    1
     4    22    21    1
     5    21    18    1
     6    19    18    2
     7    20    18    1
     8    18    17    1
     9    17    16    1
    10    15    12    1
    11    16    13    1
    12    12    13    1
    13    12    10    1
    14    13    14    1
    15    10    11    1
    16    10     9    1
    17    14     9    1
    18     6     5    2
    19     6     1    1
    20     5     4    1
    21     9     1    1
    22     1     2   am
    23     4     8    2
    24     4     3    2
    25     2     3    2
    26     2     7    2
