@<TRIPOS>MOLECULE
3iok_1P6_A_1.pdb
 26 29 0 0 0
SMALL
GASTEIGER

@<TRIPOS>ATOM
      1  C1        15.7800   15.8270    6.3610 C.3     1  1P61        0.0603
      2  C2        15.4000   14.5350    5.6290 C.3     1  1P61        0.2270
      3  N4        16.2870   13.4310    6.0480 N.pl3   1  1P61       -0.0350
      4  C5        16.2050   12.1310    5.5420 C.2     1  1P61        0.3400
      5  N6        17.1510   11.2370    5.8410 N.2     1  1P61       -0.0370
      6  C7        17.0940    9.9920    5.3870 C.3     1  1P61        0.3910
      7  N8        16.1120    9.5860    4.5990 N.2     1  1P61       -0.2256
      8  C9        15.1130   10.4120    4.2540 C.2     1  1P61        0.0718
      9  C10       15.1460   11.7240    4.7220 C.3     1  1P61        0.1626
     10  C11       14.0400    9.9580    3.3430 C.3     1  1P61        0.2634
     11  C12       12.9890   10.7230    2.8020 C.2     1  1P61        0.3596
     12  N13       12.6100   11.9930    2.9560 N.2     1  1P61       -0.0360
     13  C14       11.5730   12.4730    2.3000 C.2     1  1P61        0.2352
     14  C15       10.8240   11.6700    1.4320 C.2     1  1P61        0.0793
     15  C16       11.1810   10.3720    1.2850 C.3     1  1P61        0.2876
     16  N17       12.2750    9.9030    1.9670 N.pl3   1  1P61        0.0207
     17  N18       12.8920    8.6470    1.9780 N.2     1  1P61        0.1428
     18  C19       13.9340    8.6770    2.7790 C.2     1  1P61        0.4528
     19  N20       14.7790    7.6000    3.0340 N.pl3   1  1P61        0.2166
     20  C21       15.4650   14.7720    4.1320 C.ar    1  1P61        0.0241
     21  C22       16.6690   14.7280    3.4370 C.ar    1  1P61        0.0020
     22  C23       16.6610   14.9470    2.0640 C.ar    1  1P61        0.0294
     23  C24       15.4710   15.2130    1.3940 C.ar    1  1P61        0.1401
     24  F25       15.4740   15.4220    0.0610 F       1  1P61       -0.2042
     25  C26       14.2730   15.2480    2.0810 C.ar    1  1P61        0.0294
     26  C27       14.2800   15.0320    3.4500 C.ar    1  1P61        0.0020
@<TRIPOS>BOND
     1    24    23    1
     2    15    14    1
     3    15    16    1
     4    23    22   ar
     5    23    25   ar
     6    14    13    2
     7    16    17    1
     8    16    11    1
     9    17    18    2
    10    22    21   ar
    11    25    26   ar
    12    13    12    1
    13    18    19    1
    14    18    10    1
    15    11    12    2
    16    11    10    1
    17    10     8    1
    18    21    20   ar
    19    26    20   ar
    20    20     2    1
    21     8     7    2
    22     8     9    1
    23     7     6    1
    24     9     4    1
    25     6     5    1
    26     4     5    2
    27     4     3    1
    28     2     3    1
    29     2     1    1
