@<TRIPOS>MOLECULE
3iol_10M_A_1.pdb
 33 34 0 0 0
SMALL
GASTEIGER

@<TRIPOS>ATOM
      1  O10      -10.5810  -26.8560    0.8560 O.3     1  10M1       -0.2167
      2  C22      -11.3890  -25.6810    0.7260 C.3     1  10M1        0.2218
      3  C21      -12.7860  -26.0740    0.2590 C.3     1  10M1        0.2149
      4  O9       -13.4560  -26.7870    1.3040 O.3     1  10M1       -0.2176
      5  C14      -13.6010  -24.8440   -0.1210 C.3     1  10M1        0.1803
      6  O3       -14.8080  -25.2530   -0.7610 O.3     1  10M1       -0.3257
      7  C15      -15.7420  -25.7980    0.1690 C.3     1  10M1        0.2695
      8  C20      -17.1160  -25.8860   -0.4840 C.3     1  10M1        0.2406
      9  O8       -17.0280  -26.6710   -1.6780 O.3     1  10M1       -0.2149
     10  C19      -17.6490  -24.5000   -0.8250 C.3     1  10M1        0.2198
     11  O7       -19.0210  -24.6000   -1.2220 O.3     1  10M1       -0.2174
     12  C18      -17.5340  -23.5610    0.3690 C.3     1  10M1        0.2144
     13  O6       -17.8270  -22.2220   -0.0460 O.3     1  10M1       -0.2176
     14  C16      -16.1340  -23.6110    0.9710 C.3     1  10M1        0.1835
     15  C17      -16.0400  -22.7300    2.2110 C.3     1  10M1        0.2142
     16  O5       -14.6630  -22.5120    2.5370 O.3     1  10M1       -0.2176
     17  O4       -15.8150  -24.9570    1.3180 O.3     1  10M1       -0.3256
     18  C12      -12.8140  -23.9340   -1.0560 C.3     1  10M1        0.1788
     19  C13      -13.5990  -22.6680   -1.3750 C.3     1  10M1        0.2140
     20  O2       -12.8780  -21.8880   -2.3360 O.3     1  10M1       -0.2176
     21  O1       -11.5740  -23.5830   -0.4450 O.3     1  10M1       -0.3399
     22  C11      -10.7340  -24.7210   -0.2600 C.3     1  10M1        0.1955
     23  S         -9.1710  -24.2020    0.3750 S.3     1  10M1       -0.1094
     24  C10       -8.2520  -25.6110    0.8980 C.3     1  10M1        0.0599
     25  C9        -7.2950  -25.2090    2.0140 C.3     1  10M1        0.0117
     26  C8        -5.8460  -25.4120    1.5910 C.3     1  10M1        0.0009
     27  C7        -5.4640  -24.4510    0.4710 C.3     1  10M1        0.0000
     28  C6        -3.9670  -24.1670    0.4820 C.3     1  10M1        0.0000
     29  C5        -3.1660  -25.4470    0.2800 C.3     1  10M1        0.0000
     30  C4        -2.6850  -25.5690   -1.1610 C.3     1  10M1        0.0000
     31  C3        -1.4000  -26.3840   -1.2410 C.3     1  10M1        0.0000
     32  C2        -1.4020  -27.2880   -2.4680 C.3     1  10M1        0.0000
     33  C1        -0.6240  -26.6610   -3.6050 C.3     1  10M1        0.0000
@<TRIPOS>BOND
     1    33    32    1
     2    32    31    1
     3    20    19    1
     4     9     8    1
     5    19    18    1
     6    31    30    1
     7    11    10    1
     8    30    29    1
     9    18    21    1
    10    18     5    1
    11    10     8    1
    12    10    12    1
    13     6     5    1
    14     6     7    1
    15     8     7    1
    16    21    22    1
    17    22    23    1
    18    22     2    1
    19     5     3    1
    20    13    12    1
    21     7    17    1
    22     3     2    1
    23     3     4    1
    24    29    28    1
    25    12    14    1
    26    23    24    1
    27    27    28    1
    28    27    26    1
    29     2     1    1
    30    24    25    1
    31    14    17    1
    32    14    15    1
    33    26    25    1
    34    15    16    1
