@<TRIPOS>MOLECULE
3iom_GNG_A_1.pdb
 19 21 0 0 0
SMALL
GASTEIGER

@<TRIPOS>ATOM
      1  O5'       51.2690  -51.1490   20.4140 O.3   800  GNG800     -0.2176
      2  C5'       50.9270  -50.3620   21.5500 C.3   800  GNG800      0.2141
      3  C4'       49.4240  -50.5130   21.7420 C.3   800  GNG800      0.1802
      4  O4'       49.1670  -50.9980   23.0820 O.3   800  GNG800     -0.3346
      5  C1'       49.0000  -49.8890   23.9870 C.3   800  GNG800      0.1981
      6  N9        49.9220  -50.0280   25.0980 N.pl3 800  GNG800     -0.2374
      7  C8        49.8420  -51.0790   25.8910 C.3   800  GNG800      0.2245
      8  N7        50.7670  -50.8900   26.8640 N.2   800  GNG800     -0.2322
      9  C5        51.4150  -49.7240   26.6300 C.2   800  GNG800      0.2182
     10  C4        50.8680  -49.1800   25.5040 C.2   800  GNG800      0.2299
     11  N3        51.2850  -47.9900   24.9980 N.2   800  GNG800     -0.3074
     12  C2        52.2580  -47.3900   25.6180 C.1   800  GNG800      0.2531
     13  N1        52.8070  -47.8970   26.7360 N.2   800  GNG800     -0.2485
     14  C6        52.4140  -49.0930   27.2580 C.1   800  GNG800      0.2372
     15  O6        52.9600  -49.5890   28.2780 O.2   800  GNG800     -0.2069
     16  N2        52.6720  -46.2040   25.0970 N.pl3 800  GNG800     -0.0226
     17  C2'       49.0670  -48.6080   23.1750 C.3   800  GNG800      0.0865
     18  C3'       48.8540  -49.1150   21.7530 C.3   800  GNG800      0.1858
     19  O3'       47.5150  -49.3620   21.3600 O.3   800  GNG800     -0.2203
@<TRIPOS>BOND
     1     1     2    1
     2    19    18    1
     3     2     3    1
     4     3    18    1
     5     3     4    1
     6    18    17    1
     7     4     5    1
     8    17     5    1
     9     5     6    1
    10    11    10    2
    11    11    12    2
    12    16    12    1
    13     6    10    1
    14     6     7    1
    15    10     9    1
    16    12    13    2
    17     7     8    1
    18     9     8    2
    19     9    14    1
    20    13    14    2
    21    14    15    2
