@<TRIPOS>MOLECULE
3ion_8H1_A_1.pdb
 36 40 0 0 0
SMALL
GASTEIGER

@<TRIPOS>ATOM
      1  C1       -35.0370  -22.3930    5.9140 C.3     1  8H11        0.2526
      2  N1       -34.4540  -29.6610    3.3940 N.2     1  8H11       -0.3838
      3  O1       -33.6540  -22.5660    6.2360 O.2     1  8H11       -0.4687
      4  C2       -32.9950  -23.7150    5.8680 C.2     1  8H11        0.1686
      5  N2       -30.6630  -27.0070    4.8390 N.ar    1  8H11       -0.2476
      6  O2       -31.0670  -22.5270    6.5340 O.2     1  8H11       -0.4723
      7  C3       -33.6080  -24.8720    5.3540 C.2     1  8H11        0.0409
      8  N3       -32.3170  -30.6120    3.2520 N.pl3   1  8H11       -0.0931
      9  O3       -39.8730  -27.2030    2.6220 O.3     1  8H11       -0.4723
     10  C4       -32.8620  -26.0310    4.9800 C.ar    1  8H11        0.0174
     11  N4       -38.5570  -30.5610    3.3110 N.ar    1  8H11       -0.2391
     12  C5       -33.4300  -27.2490    4.4470 C.ar    1  8H11        0.0091
     13  N5       -41.6680  -25.4180    1.7380 N.3     1  8H11       -0.1286
     14  C6       -34.8150  -27.4400    4.2250 C.2     1  8H11        0.0324
     15  C7       -35.3010  -28.6440    3.7030 C.2     1  8H11        0.1347
     16  C8       -33.1210  -29.5250    3.5950 C.2     1  8H11        0.2206
     17  C9       -32.5740  -28.3320    4.1240 C.ar    1  8H11        0.0662
     18  C10      -31.2080  -28.1310    4.3410 C.ar    1  8H11        0.1024
     19  C11      -31.4610  -25.9820    5.1510 C.ar    1  8H11        0.0668
     20  C12      -30.8580  -24.8300    5.6650 C.3     1  8H11        0.1127
     21  C13      -31.5980  -23.6940    6.0280 C.2     1  8H11        0.1558
     22  C14      -29.7110  -22.4780    6.9790 C.3     1  8H11        0.2521
     23  C15      -36.7350  -28.9150    3.4550 C.ar    1  8H11        0.0518
     24  C16      -37.6740  -27.9180    3.1500 C.ar    1  8H11        0.0426
     25  C17      -39.0250  -28.2270    2.9290 C.ar    1  8H11        0.1578
     26  C18      -39.4080  -29.5540    3.0250 C.ar    1  8H11        0.1356
     27  C19      -37.2620  -30.2150    3.5240 C.ar    1  8H11        0.1016
     28  C20      -39.4960  -25.8350    2.7970 C.3     1  8H11        0.2246
     29  C21      -40.7970  -25.0130    2.8860 C.3     1  8H11        0.1396
     30  C22      -41.6200  -25.1440    4.1940 C.3     1  8H11        0.0492
     31  C23      -41.4550  -26.4240    4.9860 C.ar    1  8H11       -0.0206
     32  C24      -42.3160  -27.5150    4.7560 C.ar    1  8H11       -0.0042
     33  C25      -42.1620  -28.7040    5.4820 C.ar    1  8H11       -0.0003
     34  C26      -41.1470  -28.8050    6.4410 C.ar    1  8H11       -0.0000
     35  C27      -40.2820  -27.7310    6.6740 C.ar    1  8H11       -0.0003
     36  C28      -40.4350  -26.5430    5.9520 C.ar    1  8H11       -0.0042
@<TRIPOS>BOND
     1    13    29    1
     2     9    28    1
     3     9    25    1
     4    28    29    1
     5    29    30    1
     6    25    26   ar
     7    25    24   ar
     8    26    11   ar
     9    24    23   ar
    10     8    16    1
    11    11    27   ar
    12     2    16    2
    13     2    15    2
    14    23    27   ar
    15    23    15    1
    16    16    17    1
    17    15    14    1
    18    17    18   ar
    19    17    12   ar
    20    30    31    1
    21    14    12    2
    22    18     5   ar
    23    12    10   ar
    24    32    31   ar
    25    32    33   ar
    26     5    19   ar
    27    10    19   ar
    28    10     7    2
    29    31    36   ar
    30    19    20    1
    31     7     4    1
    32    33    34   ar
    33    20    21    1
    34     4    21    2
    35     4     3    1
    36     1     3    1
    37    36    35   ar
    38    21     6    1
    39    34    35   ar
    40     6    22    1
