@<TRIPOS>MOLECULE
3iop_8I1_A_1.pdb
 36 40 0 0 0
SMALL
GASTEIGER

@<TRIPOS>ATOM
      1  C1       -35.0160  -22.1170    5.7780 C.3     1  8I11        0.2526
      2  N1       -34.4090  -29.3920    3.3120 N.2     1  8I11       -0.3838
      3  O1       -33.6730  -22.3330    6.2130 O.2     1  8I11       -0.4687
      4  C2       -32.9850  -23.4560    5.8080 C.2     1  8I11        0.1686
      5  N2       -30.6070  -26.6870    4.6760 N.ar    1  8I11       -0.2476
      6  O2       -31.0530  -22.2430    6.4380 O.2     1  8I11       -0.4723
      7  C3       -33.5820  -24.6210    5.3010 C.2     1  8I11        0.0409
      8  N3       -32.2640  -30.3040    3.0920 N.pl3   1  8I11       -0.0931
      9  O3       -39.7200  -26.6700    3.0140 O.3     1  8I11       -0.4723
     10  C4       -32.8260  -25.7580    4.8960 C.ar    1  8I11        0.0174
     11  N4       -38.5830  -30.2100    3.2000 N.ar    1  8I11       -0.2391
     12  C5       -33.3890  -26.9770    4.3650 C.ar    1  8I11        0.0091
     13  N5       -40.9920  -24.2770    2.4590 N.3     1  8I11       -0.1286
     14  C6       -34.7770  -27.1910    4.1740 C.2     1  8I11        0.0324
     15  C7       -35.2590  -28.3940    3.6530 C.2     1  8I11        0.1347
     16  C8       -33.0720  -29.2330    3.4730 C.2     1  8I11        0.2206
     17  C9       -32.5240  -28.0380    4.0020 C.ar    1  8I11        0.0662
     18  C10      -31.1540  -27.8160    4.1840 C.ar    1  8I11        0.1024
     19  C11      -31.4190  -25.6820    5.0250 C.ar    1  8I11        0.0668
     20  C12      -30.8300  -24.5260    5.5340 C.3     1  8I11        0.1127
     21  C13      -31.5820  -23.4090    5.9290 C.2     1  8I11        0.1558
     22  C14      -29.6560  -22.1470    6.7090 C.3     1  8I11        0.2521
     23  C15      -36.6980  -28.6630    3.4470 C.ar    1  8I11        0.0518
     24  C16      -37.6170  -27.6060    3.3140 C.ar    1  8I11        0.0426
     25  C17      -38.9860  -27.8220    3.1250 C.ar    1  8I11        0.1578
     26  C18      -39.4160  -29.1430    3.0800 C.ar    1  8I11        0.1356
     27  C19      -37.2570  -29.9470    3.3840 C.ar    1  8I11        0.1016
     28  C20      -41.1080  -26.7130    2.6620 C.3     1  8I11        0.2246
     29  C21      -41.7770  -25.3900    3.0760 C.3     1  8I11        0.1396
     30  C22      -41.8840  -25.1040    4.5960 C.3     1  8I11        0.0492
     31  C23      -41.3940  -26.2090    5.5040 C.ar    1  8I11       -0.0206
     32  C24      -40.0870  -26.1720    6.0300 C.ar    1  8I11       -0.0042
     33  C25      -39.6290  -27.2030    6.8550 C.ar    1  8I11       -0.0003
     34  C26      -40.4690  -28.2740    7.1710 C.ar    1  8I11       -0.0000
     35  C27      -41.7680  -28.3220    6.6560 C.ar    1  8I11       -0.0003
     36  C28      -42.2340  -27.2940    5.8270 C.ar    1  8I11       -0.0042
@<TRIPOS>BOND
     1    13    29    1
     2    28     9    1
     3    28    29    1
     4     9    25    1
     5    29    30    1
     6    26    25   ar
     7    26    11   ar
     8     8    16    1
     9    25    24   ar
    10    11    27   ar
    11     2    16    2
    12     2    15    2
    13    24    23   ar
    14    27    23   ar
    15    23    15    1
    16    16    17    1
    17    15    14    1
    18    17    18   ar
    19    17    12   ar
    20    14    12    2
    21    18     5   ar
    22    12    10   ar
    23    30    31    1
    24     5    19   ar
    25    10    19   ar
    26    10     7    2
    27    19    20    1
    28     7     4    1
    29    31    36   ar
    30    31    32   ar
    31    20    21    1
    32     1     3    1
    33     4    21    2
    34     4     3    1
    35    36    35   ar
    36    21     6    1
    37    32    33   ar
    38     6    22    1
    39    35    34   ar
    40    33    34   ar
