@<TRIPOS>MOLECULE
3ioq_E64_A_1.pdb
 25 24 0 0 0
SMALL
GASTEIGER

@<TRIPOS>ATOM
      1  C1        19.4750  -33.6220   12.1670 C.2   301  E64301      0.3680
      2  O1        20.2820  -34.0500   13.0140 O.co2 301  E64301     -0.2455
      3  O2        19.7200  -32.6450   11.4270 O.co2 301  E64301     -0.2455
      4  C2        18.1000  -34.2600   12.0820 C.3   301  E64301      0.1564
      5  C3        18.1220  -35.7730   12.2930 C.3   301  E64301      0.2403
      6  O3        18.6260  -36.1980   11.0360 O.3   301  E64301     -0.2126
      7  C4        16.7200  -36.2770   12.5140 C.2   301  E64301      0.2728
      8  O4        16.3630  -36.7510   13.5860 O.2   301  E64301     -0.2706
      9  N1        15.8580  -36.1380   11.5120 N.am  301  E64301     -0.1956
     10  C6        14.4750  -36.6000   11.6230 C.3   301  E64301      0.1728
     11  C7        13.6530  -35.5090   10.9260 C.3   301  E64301      0.0311
     12  C8        12.1500  -35.5210   11.1810 C.3   301  E64301      0.0022
     13  C9        11.7870  -35.2770   12.6560 C.3   301  E64301      0.0001
     14  C10       11.5210  -34.4460   10.2910 C.3   301  E64301      0.0001
     15  C11       14.3410  -37.9360   10.9470 C.2   301  E64301      0.2612
     16  O5        14.7830  -38.1020    9.8130 O.2   301  E64301     -0.2715
     17  N2        13.7540  -38.9170   11.6400 N.am  301  E64301     -0.2040
     18  C12       13.5010  -40.2900   11.2050 C.3   301  E64301      0.1153
     19  C13       14.7880  -41.0290   11.5300 C.3   301  E64301      0.0271
     20  C14       14.7240  -42.4820   11.0640 C.3   301  E64301      0.0487
     21  C15       16.1660  -42.9930   11.0810 C.3   301  E64301      0.2205
     22  N3        16.1720  -44.4470   10.9380 N.pl3 301  E64301     -0.0865
     23  C16       17.2350  -45.2250   11.1370 C.cat 301  E64301      0.5346
     24  N4        17.1490  -46.5460   10.9720 N.pl3 301  E64301      0.1354
     25  N5        18.3970  -44.6800   11.5030 N.pl3 301  E64301      0.1354
@<TRIPOS>BOND
     1    16    15    2
     2    14    12    1
     3    11    12    1
     4    11    10    1
     5    22    21    1
     6    22    23    2
     7    15    10    1
     8    15    17   am
     9    24    23    1
    10     6     5    1
    11    20    21    1
    12    20    19    1
    13    23    25    1
    14    12    13    1
    15    18    19    1
    16    18    17    1
    17     3     1   ar
    18     9    10    1
    19     9     7   am
    20     4     1    1
    21     4     5    1
    22     1     2   ar
    23     5     7    1
    24     7     8    2
