@<TRIPOS>MOLECULE
3ip0_HHR_A_1.pdb
 21 22 0 0 0
SMALL
GASTEIGER

@<TRIPOS>ATOM
      1  C7        -4.8960    7.3220    5.8920 C.2   181  HHR181      0.1265
      2  N8        -4.1340    8.1500    6.6110 N.2   181  HHR181     -0.3439
      3  C9        -4.0460    7.9080    7.9220 C.1   181  HHR181      0.1755
      4  N1        -3.2490    8.7230    8.6530 N.2   181  HHR181     -0.3070
      5  C2        -3.1700    8.4730    9.9360 C.2   181  HHR181      0.2494
      6  N2        -2.3120    9.1880   10.6980 N.pl3 181  HHR181     -0.3201
      7  C10       -4.7620    6.7910    8.4790 C.2   181  HHR181      0.2690
      8  C4        -4.6480    6.5660    9.9120 C.2   181  HHR181      0.2938
      9  N3        -3.8220    7.4460   10.5410 N.am  181  HHR181     -0.2406
     10  O4        -5.2210    5.6350   10.5110 O.2   181  HHR181     -0.2661
     11  N5        -5.4830    5.9150    7.7370 N.2   181  HHR181     -0.3861
     12  C6        -5.5820    6.2180    6.4480 C.2   181  HHR181      0.1489
     13  C6A       -6.3360    5.2700    5.5330 C.3   181  HHR181      0.0999
     14  O6A       -7.1450    4.3780    6.2160 O.3   181  HHR181     -0.3877
     15  H71       -4.9730    7.4920    4.8290 H     181  HHR181      0.1010
     16 HN21       -1.4310    8.8350   10.8970 H     181  HHR181      0.1459
     17 HN22       -2.5780   10.0530   11.0470 H     181  HHR181      0.1459
     18  HN3       -3.7010    7.3400   11.4970 H     181  HHR181      0.1589
     19 H6A1       -6.9560    5.8570    4.8570 H     181  HHR181      0.0634
     20 H6A2       -5.6130    4.7060    4.9440 H     181  HHR181      0.0634
     21  HO6       -7.4880    4.8450    6.9890 H     181  HHR181      0.2100
@<TRIPOS>BOND
     1    15     1    1
     2    19    13    1
     3    20    13    1
     4    13    14    1
     5    13    12    1
     6     1    12    1
     7     1     2    2
     8    14    21    1
     9    12    11    2
    10     2     3    2
    11    11     7    2
    12     3     7    1
    13     3     4    2
    14     7     8    1
    15     4     5    2
    16     8    10    2
    17     8     9   am
    18     5     9    1
    19     5     6    1
    20     9    18    1
    21     6    16    1
    22     6    17    1
