@<TRIPOS>MOLECULE
3ip0_APC_A_1.pdb
 49 51 0 0 0
SMALL
GASTEIGER

@<TRIPOS>ATOM
      1  PG        -6.1890    1.8830    3.8240 P.3   171  APC171      0.4793
      2  O1G       -5.9310    1.9870    5.3010 O.2   171  APC171     -0.2271
      3  O2G       -5.0350    2.4180    2.9930 O.3   171  APC171     -0.3024
      4  O3G       -6.6750    0.5030    3.4000 O.3   171  APC171     -0.3024
      5  PB        -8.9040    2.8380    3.9890 P.3   171  APC171      0.3502
      6  O1B       -9.5190    4.2020    3.9860 O.2   171  APC171     -0.2576
      7  O2B       -8.8550    2.0790    5.3130 O.3   171  APC171     -0.3232
      8  O3B       -7.3960    2.9240    3.4620 O.3   171  APC171     -0.2078
      9  PA       -11.4940    1.6930    3.1010 P.3   171  APC171      0.3420
     10  O1A      -12.2410    2.7140    2.3170 O.2   171  APC171     -0.2580
     11  O2A      -11.6980    1.6660    4.5880 O.3   171  APC171     -0.3235
     12  C3A       -9.7340    1.8340    2.7580 C.3   171  APC171      0.1513
     13  O5'      -11.9070    0.2280    2.6210 O.3   171  APC171     -0.3049
     14  C5'      -11.9170   -0.0620    1.2090 C.3   171  APC171      0.0857
     15  C4'      -12.0050   -1.5510    1.0150 C.3   171  APC171      0.1131
     16  O4'      -10.8110   -2.1600    1.5640 O.3   171  APC171     -0.3474
     17  C3'      -13.1420   -2.2830    1.7270 C.3   171  APC171      0.1133
     18  O3'      -14.3740   -2.2030    1.0970 O.3   171  APC171     -0.3864
     19  C2'      -12.5840   -3.6920    1.8860 C.3   171  APC171      0.1266
     20  O2'      -13.2500   -4.5760    0.9680 O.3   171  APC171     -0.3849
     21  C1'      -11.1200   -3.5520    1.5300 C.3   171  APC171      0.1617
     22  N9       -10.1680   -4.2540    2.3830 N.pl3 171  APC171     -0.2234
     23  C8        -9.1670   -5.0720    1.9200 C.2   171  APC171      0.1451
     24  N7        -8.4140   -5.5870    2.8620 N.2   171  APC171     -0.3871
     25  C5        -8.9640   -5.0560    4.0330 C.2   171  APC171      0.2211
     26  C6        -8.5690   -5.2070    5.3730 C.2   171  APC171      0.2227
     27  N6        -7.5000   -5.9120    5.7340 N.pl3 171  APC171     -0.3300
     28  N1        -9.2990   -4.5520    6.3180 N.2   171  APC171     -0.3296
     29  C2       -10.3530   -3.8270    5.9030 C.1   171  APC171      0.0930
     30  N3       -10.7980   -3.6100    4.6830 N.2   171  APC171     -0.3287
     31  C4       -10.0340   -4.2460    3.7630 C.2   171  APC171      0.2354
     32 HOG2       -4.1670    1.7930    3.1360 H     171  APC171      0.2220
     33 HOG3       -5.9850   -0.2470    3.7560 H     171  APC171      0.2220
     34 HOB2       -9.2640    2.6960    6.0990 H     171  APC171      0.2198
     35 HOA2      -12.6070    2.1930    4.8370 H     171  APC171      0.2198
     36 H3A1       -9.6490    2.2410    1.7610 H     171  APC171      0.0513
     37 H3A2       -9.3180    0.8470    2.7810 H     171  APC171      0.0513
     38 H5'1      -11.0080    0.3080    0.7580 H     171  APC171      0.0592
     39 H5'2      -12.7690    0.4140    0.7480 H     171  APC171      0.0592
     40  H4'      -12.0560   -1.7650   -0.0420 H     171  APC171      0.0647
     41  H3'      -13.2480   -1.8540    2.7120 H     171  APC171      0.0647
     42 HO3'      -15.0450   -2.9360    1.5210 H     171  APC171      0.2100
     43  H2'      -12.6990   -4.0370    2.9030 H     171  APC171      0.0663
     44 HO2'      -13.6500   -5.4220    1.5080 H     171  APC171      0.2101
     45  H1'      -10.9860   -3.9040    0.5180 H     171  APC171      0.0841
     46  H8        -9.0270   -5.2770    0.8680 H     171  APC171      0.1149
     47 HN61       -6.5100   -5.5060    5.5890 H     171  APC171      0.1448
     48 HN62       -7.6220   -6.8920    6.1720 H     171  APC171      0.1448
     49  H2       -10.8920   -3.3310    6.6970 H     171  APC171      0.1751
@<TRIPOS>BOND
     1    40    15    1
     2    45    21    1
     3    39    14    1
     4    38    14    1
     5    46    23    1
     6    20    44    1
     7    20    19    1
     8    15    14    1
     9    15    16    1
    10    15    17    1
    11    18    42    1
    12    18    17    1
    13    14    13    1
    14    21    16    1
    15    21    19    1
    16    21    22    1
    17    17    19    1
    18    17    41    1
    19    36    12    1
    20    19    43    1
    21    23    22    1
    22    23    24    2
    23    10     9    2
    24    22    31    1
    25    13     9    1
    26    12    37    1
    27    12     9    1
    28    12     5    1
    29    24    25    2
    30     3    32    1
    31     3     1    1
    32     9    11    1
    33     4    33    1
    34     4     1    1
    35     8     1    1
    36     8     5    1
    37    31    25    1
    38    31    30    2
    39     1     2    2
    40     6     5    2
    41     5     7    1
    42    25    26    1
    43    11    35    1
    44    30    29    2
    45     7    34    1
    46    26    27    1
    47    26    28    2
    48    47    27    1
    49    27    48    1
    50    29    28    2
    51    29    49    1
