@<TRIPOS>MOLECULE
3ip0_HHS_A_1.pdb
 20 21 0 0 0
SMALL
GASTEIGER

@<TRIPOS>ATOM
      1  N1        -3.6040    8.7190    8.7480 N.2   182  HHS182     -0.3070
      2  C2        -3.4780    8.4550   10.0360 C.2   182  HHS182      0.2494
      3  N2        -2.6730    9.2430   10.8090 N.pl3 182  HHS182     -0.3201
      4  N3        -4.1090    7.4290   10.6450 N.am  182  HHS182     -0.2406
      5  C4        -4.8960    6.5640    9.9630 C.2   182  HHS182      0.2938
      6  O4        -5.5360    5.7190   10.5600 O.2   182  HHS182     -0.2661
      7  N5        -5.7560    5.9840    7.7640 N.2   182  HHS182     -0.3767
      8  C6A       -5.8870    6.2820    6.4830 C.2   182  HHS182      0.2297
      9  O6A       -7.4110    4.4660    6.1830 O.3   182  HHS182     -0.4753
     10  O6B       -6.7690    5.7960    4.3980 O.2   182  HHS182     -0.2421
     11  C6        -6.6980    5.4380    5.5880 C.2   182  HHS182      0.3701
     12  C7        -5.2740    7.4210    5.9550 C.2   182  HHS182      0.1355
     13  N8        -4.5300    8.2280    6.6950 N.2   182  HHS182     -0.3434
     14  C9        -4.3830    7.9270    7.9980 C.1   182  HHS182      0.1755
     15  C10       -5.0290    6.7970    8.5310 C.2   182  HHS182      0.2695
     16  HN2       -2.7520   10.2100   10.7620 H     182  HHS182      0.1459
     17 HN2A       -2.0240    8.8380   11.4040 H     182  HHS182      0.1459
     18  HN3       -3.9600    7.2820   11.5920 H     182  HHS182      0.1589
     19 HO6A       -7.9660    4.7230    6.9320 H     182  HHS182      0.2955
     20  H7        -5.3570    7.6140    4.8950 H     182  HHS182      0.1015
@<TRIPOS>BOND
     1    10    11    2
     2    20    12    1
     3    11     9    1
     4    11     8    1
     5    12     8    1
     6    12    13    2
     7     9    19    1
     8     8     7    2
     9    13    14    2
    10     7    15    2
    11    14    15    1
    12    14     1    2
    13    15     5    1
    14     1     2    2
    15     5     6    2
    16     5     4   am
    17     2     4    1
    18     2     3    1
    19     4    18    1
    20    16     3    1
    21     3    17    1
