@<TRIPOS>MOLECULE
3ip8_B85_A_1.pdb
 11 11 0 0 0
SMALL
GASTEIGER

@<TRIPOS>ATOM
      1  C1         1.4810   15.7610   19.4690 C.ar  249  B85249     -0.0038
      2  C2         2.0600   17.0600   19.4200 C.ar  249  B85249     -0.0003
      3  C3         2.3970   17.6150   18.2070 C.ar  249  B85249     -0.0000
      4  C4         2.1920   16.8670   16.9480 C.ar  249  B85249     -0.0003
      5  C5         1.6410   15.5990   16.9900 C.ar  249  B85249     -0.0038
      6  C6         1.2860   15.0370   18.2580 C.ar  249  B85249     -0.0149
      7  C7         0.7670   13.6200   18.4430 C.3   249  B85249      0.0851
      8  P8         0.3850   12.6180   16.9520 P.3   249  B85249      0.1216
      9  O9         1.6670   12.3680   16.0440 O.2   249  B85249     -0.4598
     10  O10       -0.3050   11.2250   17.3730 O.3   249  B85249     -0.3569
     11  O11       -0.6310   13.3770   16.1710 O.3   249  B85249     -0.3569
@<TRIPOS>BOND
     1     9     8    2
     2    11     8    1
     3     4     5   ar
     4     4     3   ar
     5     8    10    1
     6     8     7    1
     7     5     6   ar
     8     3     2   ar
     9     6     7    1
    10     6     1   ar
    11     2     1   ar
