@<TRIPOS>MOLECULE
3ipb_JZD_A_1.pdb
 49 52 0 0 0
SMALL
GASTEIGER

@<TRIPOS>ATOM
      1  OAA       19.0260   45.3840   64.0310 O.co2 128  JZD128     -0.2405
      2  OAB       23.2920   43.2810   33.3820 O.co2 128  JZD128     -0.2405
      3  OAC       18.8520   43.6890   65.4620 O.co2 128  JZD128     -0.2405
      4  OAD       23.3450   43.8680   35.5360 O.co2 128  JZD128     -0.2405
      5 CLAE       19.8540   43.8850   58.8970 Cl    128  JZD128     -0.0790
      6 CLAF       23.8960   40.3090   60.2760 Cl    128  JZD128     -0.0790
      7 CLAG       21.9550   45.0740   41.6060 Cl    128  JZD128     -0.0790
      8 CLAH       20.8970   39.6190   41.4380 Cl    128  JZD128     -0.0790
      9  CAI       23.7510   44.0030   64.9520 C.ar  128  JZD128      0.0013
     10  CAJ       19.3920   40.8250   35.3070 C.ar  128  JZD128      0.0013
     11  CAK       23.0860   45.0690   65.5160 C.ar  128  JZD128      0.0003
     12  CAL       19.7240   41.1920   34.0060 C.ar  128  JZD128      0.0003
     13  CAM       23.0070   43.0570   64.2800 C.ar  128  JZD128      0.0167
     14  CAN       20.1730   41.2340   36.3910 C.ar  128  JZD128      0.0167
     15  CAO       21.7150   45.2410   65.4590 C.ar  128  JZD128      0.0079
     16  CAP       20.8510   41.9790   33.8000 C.ar  128  JZD128      0.0079
     17  CAQ       20.4780   43.0140   61.3490 C.ar  128  JZD128      0.0310
     18  CAR       22.2240   41.4740   61.8420 C.ar  128  JZD128      0.0310
     19  CAS       21.9680   43.5180   39.3860 C.ar  128  JZD128      0.0310
     20  CAT       21.5400   41.1680   39.2720 C.ar  128  JZD128      0.0310
     21  CAU       21.2180   42.5120   50.5820 C.3   128  JZD128      0.0257
     22  CAV       21.4320   41.6590   51.8970 C.3   128  JZD128      0.0047
     23  CAW       22.0430   42.0770   49.3230 C.2   128  JZD128     -0.0307
     24  CAX       21.4250   42.5100   53.2030 C.3   128  JZD128      0.0005
     25  CAY       21.4050   42.3710   47.9480 C.2   128  JZD128     -0.0306
     26  CAZ       21.1500   41.6960   54.4980 C.3   128  JZD128      0.0038
     27  CBA       22.2680   42.0370   46.6430 C.3   128  JZD128      0.0295
     28  CBB       21.5420   42.5100   55.7710 C.3   128  JZD128      0.0473
     29  CBC       21.3950   42.2600   45.3370 C.3   128  JZD128      0.0520
     30  CBD       21.0870   41.9320   57.1530 C.3   128  JZD128      0.2055
     31  CBE       22.1170   42.4730   43.9650 C.3   128  JZD128      0.2058
     32  NBF       20.9320   42.3170   63.5560 N.pl3 128  JZD128     -0.2122
     33  NBG       22.0900   42.4450   37.2470 N.pl3 128  JZD128     -0.2122
     34  OBH       22.1490   42.0710   58.1820 O.3   128  JZD128     -0.4738
     35  OBI       21.1990   42.2350   42.7940 O.3   128  JZD128     -0.4737
     36  CBJ       19.5010   44.4650   64.7320 C.2   128  JZD128      0.3890
     37  CBK       22.8500   43.2480   34.5670 C.2   128  JZD128      0.3890
     38  CBL       21.1910   42.2670   62.2690 C.ar  128  JZD128      0.0724
     39  CBM       21.8450   42.3610   38.5980 C.ar  128  JZD128      0.0724
     40  CBN       20.7930   42.9380   59.9900 C.ar  128  JZD128      0.0937
     41  CBO       22.5620   41.3860   60.5050 C.ar  128  JZD128      0.0937
     42  CBP       21.7650   43.5400   40.7700 C.ar  128  JZD128      0.0937
     43  CBQ       21.3180   41.1370   40.6590 C.ar  128  JZD128      0.0937
     44  CBR       21.6310   43.2120   64.2150 C.ar  128  JZD128      0.0768
     45  CBS       21.3040   42.0260   36.2030 C.ar  128  JZD128      0.0768
     46  CBT       20.9930   44.2990   64.7830 C.ar  128  JZD128      0.0950
     47  CBU       21.6280   42.3910   34.8780 C.ar  128  JZD128      0.0950
     48  CBV       21.8390   42.1190   59.5270 C.ar  128  JZD128      0.1595
     49  CBW       21.4510   42.3210   41.4280 C.ar  128  JZD128      0.1595
@<TRIPOS>BOND
     1     2    37   ar
     2    16    12   ar
     3    16    47   ar
     4    12    10   ar
     5    37    47    1
     6    37     4   ar
     7    47    45   ar
     8    10    14   ar
     9    45    14   ar
    10    45    33    1
    11    33    39    1
    12    39    20   ar
    13    39    19   ar
    14    20    43   ar
    15    19    42   ar
    16    43    49   ar
    17    43     8    1
    18    42    49   ar
    19    42     7    1
    20    49    35    1
    21    35    31    1
    22    31    29    1
    23    29    27    1
    24    27    25    1
    25    25    23    2
    26    23    21    1
    27    21    22    1
    28    22    24    1
    29    24    26    1
    30    26    28    1
    31    28    30    1
    32    30    34    1
    33    34    48    1
    34     5    40    1
    35    48    40   ar
    36    48    41   ar
    37    40    17   ar
    38     6    41    1
    39    41    18   ar
    40    17    38   ar
    41    18    38   ar
    42    38    32    1
    43    32    44    1
    44     1    36   ar
    45    44    13   ar
    46    44    46   ar
    47    13     9   ar
    48    36    46    1
    49    36     3   ar
    50    46    15   ar
    51     9    11   ar
    52    15    11   ar
