@<TRIPOS>MOLECULE
3ipe_JZE_B_1.pdb
 45 48 0 0 0
SMALL
GASTEIGER

@<TRIPOS>ATOM
      1  C1         2.0170    1.4070    4.0250 C.2   128  JZE128      0.3890
      2  N1         1.0780   -0.4260    6.0100 N.pl3 128  JZE128     -0.2122
      3  O1         2.6260    1.7790    2.9930 O.co2 128  JZE128     -0.2405
      4 CL1         0.1480    2.8100    9.8060 Cl    128  JZE128     -0.0790
      5  C2         0.7810    0.5220    3.8630 C.ar  128  JZE128      0.0950
      6  N2        -0.6810   -0.1870   25.8760 N.pl3 128  JZE128     -0.2122
      7  O2         2.3430    1.7150    5.1920 O.co2 128  JZE128     -0.2405
      8 CL2        -0.5950   -2.5610   10.3160 Cl    128  JZE128     -0.0790
      9  C3         0.0580    0.6110    2.6860 C.ar  128  JZE128      0.0079
     10  O3        -0.5820    0.2940   11.1610 O.3   128  JZE128     -0.4738
     11 CL3         0.2630   -2.6780   21.5040 Cl    128  JZE128     -0.0790
     12  C4        -1.0740   -0.1710    2.5060 C.ar  128  JZE128      0.0003
     13  O4         0.5170    0.1710   20.5510 O.3   128  JZE128     -0.4738
     14 CL4         0.2090    2.7750   21.9260 Cl    128  JZE128     -0.0790
     15  C5        -1.4800   -1.0360    3.5090 C.ar  128  JZE128      0.0013
     16  O5        -1.2030    1.6910   29.3560 O.co2 128  JZE128     -0.2405
     17  C6        -0.7640   -1.1260    4.6980 C.ar  128  JZE128      0.0167
     18  O6        -1.8360    1.2830   27.2700 O.co2 128  JZE128     -0.2405
     19  C7         0.3630   -0.3320    4.8890 C.ar  128  JZE128      0.0768
     20  C8         0.6460   -0.2350    7.2590 C.ar  128  JZE128      0.0724
     21  C9         0.6190    1.0390    7.8050 C.ar  128  JZE128      0.0310
     22  C10        0.2020    1.2110    9.1210 C.ar  128  JZE128      0.0937
     23  C11        0.2940   -1.3330    8.0390 C.ar  128  JZE128      0.0310
     24  C12       -0.1320   -1.1760    9.3550 C.ar  128  JZE128      0.0937
     25  C13       -0.1610    0.1070    9.8890 C.ar  128  JZE128      0.1595
     26  C14        0.4220    0.2390   12.1720 C.3   128  JZE128      0.2055
     27  C15       -0.3510   -0.0820   13.4540 C.3   128  JZE128      0.0473
     28  C16        0.4790   -0.0070   14.7360 C.3   128  JZE128      0.0038
     29  C17       -0.4060   -0.5170   15.8820 C.3   128  JZE128      0.0002
     30  C18       -0.5200    0.4400   17.0600 C.3   128  JZE128      0.0038
     31  C19        0.2590   -0.1090   18.2500 C.3   128  JZE128      0.0473
     32  C20       -0.5100    0.0060   19.5690 C.3   128  JZE128      0.2055
     33  C21        0.1980    0.0380   21.8620 C.ar  128  JZE128      0.1595
     34  C22        0.0730   -1.2230   22.4500 C.ar  128  JZE128      0.0937
     35  C23       -0.2350   -1.3090   23.8100 C.ar  128  JZE128      0.0310
     36  C24        0.0480    1.1930   22.6290 C.ar  128  JZE128      0.0937
     37  C25       -0.2480    1.0900   23.9790 C.ar  128  JZE128      0.0310
     38  C26       -0.3750   -0.1520   24.5780 C.ar  128  JZE128      0.0724
     39  C27        0.1670   -0.5450   26.8450 C.ar  128  JZE128      0.0768
     40  C28        1.1630   -1.4960   26.6560 C.ar  128  JZE128      0.0167
     41  C29        2.0030   -1.8490   27.7100 C.ar  128  JZE128      0.0013
     42  C30        1.8460   -1.2480   28.9550 C.ar  128  JZE128      0.0003
     43  C31        0.8450   -0.3020   29.1490 C.ar  128  JZE128      0.0079
     44  C32        0.0080    0.0440   28.0940 C.ar  128  JZE128      0.0950
     45  C33       -1.1000    1.0850   28.2640 C.2   128  JZE128      0.3890
@<TRIPOS>BOND
     1    12     9   ar
     2    12    15   ar
     3     9     5   ar
     4     3     1   ar
     5    15    17   ar
     6     5     1    1
     7     5    19   ar
     8     1     7   ar
     9    17    19   ar
    10    19     2    1
    11     2    20    1
    12    20    21   ar
    13    20    23   ar
    14    21    22   ar
    15    23    24   ar
    16    22     4    1
    17    22    25   ar
    18    24    25   ar
    19    24     8    1
    20    25    10    1
    21    10    26    1
    22    26    27    1
    23    27    28    1
    24    28    29    1
    25    29    30    1
    26    30    31    1
    27    31    32    1
    28    32    13    1
    29    13    33    1
    30    11    34    1
    31    33    34   ar
    32    33    36   ar
    33    14    36    1
    34    34    35   ar
    35    36    37   ar
    36    35    38   ar
    37    37    38   ar
    38    38     6    1
    39     6    39    1
    40    40    39   ar
    41    40    41   ar
    42    39    44   ar
    43    18    45   ar
    44    41    42   ar
    45    44    45    1
    46    44    43   ar
    47    45    16   ar
    48    42    43   ar
