@<TRIPOS>MOLECULE
3iph_G11_A_1.pdb
 26 29 0 0 0
SMALL
GASTEIGER

@<TRIPOS>ATOM
      1  C1        40.7390   31.2240   32.5620 C.ar  361  G11361      0.0138
      2  C2        41.9720   32.0370   32.5130 C.ar  361  G11361      0.0810
      3  C3        40.6020   30.3750   33.6560 C.ar  361  G11361      0.0057
      4  C4        39.7390   31.2890   31.6010 C.ar  361  G11361     -0.0204
      5  C5        42.0800   33.1910   33.2620 C.ar  361  G11361      0.0193
      6  N6        43.0270   31.6210   31.7650 N.ar  361  G11361     -0.2437
      7  C7        39.5000   29.5370   33.8490 C.ar  361  G11361      0.0551
      8  C8        38.6310   30.4630   31.7760 C.ar  361  G11361     -0.0041
      9  C9        39.8330   32.2060   30.3860 C.3   361  G11361      0.0311
     10  C10       44.1480   32.3570   31.7360 C.ar  361  G11361      0.1034
     11  C11       43.2380   33.9530   33.2410 C.ar  361  G11361      0.0077
     12  C12       39.5090   28.6770   35.0810 C.2   361  G11361      0.2647
     13  C13       38.5070   29.5980   32.8750 C.ar  361  G11361      0.0042
     14  C14       44.3150   33.5330   32.4730 C.ar  361  G11361      0.0742
     15  N15       38.6130   27.6400   35.1970 N.am  361  G11361     -0.2034
     16  O16       40.3210   28.9230   35.9890 O.2   361  G11361     -0.2684
     17  C17       45.5420   34.3580   32.4330 C.2   361  G11361      0.2663
     18  C18       38.6000   26.7110   36.2870 C.3   361  G11361      0.0957
     19  N19       46.4540   33.9380   31.5100 N.am  361  G11361     -0.2016
     20  O20       45.6990   35.3800   33.0970 O.2   361  G11361     -0.2683
     21  C21       38.2780   27.4790   37.5200 C.3   361  G11361      0.0234
     22  C22       37.2120   26.6860   36.8160 C.3   361  G11361      0.0234
     23  C23       47.7350   34.5760   31.2270 C.3   361  G11361      0.1154
     24  C24       48.8060   33.6970   31.8430 C.3   361  G11361      0.0217
     25  C25       49.0220   33.9820   33.2770 C.3   361  G11361      0.0018
     26  C26       50.0520   34.3630   32.2750 C.3   361  G11361      0.0018
@<TRIPOS>BOND
     1     9     4    1
     2    23    19    1
     3    23    24    1
     4    19    17   am
     5     4     8   ar
     6     4     1   ar
     7    10     6   ar
     8    10    14   ar
     9     6     2   ar
    10     8    13   ar
    11    24    26    1
    12    24    25    1
    13    26    25    1
    14    17    14    1
    15    17    20    2
    16    14    11   ar
    17     2     1    1
    18     2     5   ar
    19     1     3   ar
    20    13     7   ar
    21    11     5   ar
    22     3     7   ar
    23     7    12    1
    24    12    15   am
    25    12    16    2
    26    15    18    1
    27    18    22    1
    28    18    21    1
    29    22    21    1
