@<TRIPOS>MOLECULE
3ipq_965_A_1.pdb
 41 44 0 0 0
SMALL
GASTEIGER

@<TRIPOS>ATOM
      1  O37       50.1600   16.4090   -5.4030 O.co2 801  965801     -0.2453
      2  C35       50.4010   16.3250   -4.1820 C.2   801  965801      0.3692
      3  O36       51.5110   16.5760   -3.7340 O.co2 801  965801     -0.2453
      4  C34       49.3570   15.8960   -3.1690 C.3   801  965801      0.1405
      5  C32       47.9990   16.4340   -3.5080 C.ar  801  965801     -0.0079
      6  C31       47.7650   17.8060   -3.4510 C.ar  801  965801     -0.0035
      7  C30       46.5030   18.2950   -3.7660 C.ar  801  965801      0.0028
      8  C29       45.4640   17.4320   -4.0960 C.ar  801  965801      0.0369
      9  C28       45.7200   16.0440   -4.1660 C.ar  801  965801      0.1382
     10  O27       44.7580   15.1300   -4.4810 O.3   801  965801     -0.4754
     11  C26       43.4280   15.4160   -4.9060 C.3   801  965801      0.2068
     12  C25       42.9020   14.2790   -5.7560 C.3   801  965801      0.0646
     13  C17       41.8150   14.7240   -6.7210 C.3   801  965801      0.0762
     14  N09       40.5000   14.9460   -6.1380 N.3   801  965801     -0.2682
     15  C16       40.0890   14.2170   -4.9240 C.3   801  965801      0.1000
     16  C18       38.9910   14.8350   -4.0880 C.ar  801  965801      0.0044
     17  C23       39.2840   16.0210   -3.4390 C.ar  801  965801     -0.0021
     18  C22       38.3200   16.6180   -2.6630 C.ar  801  965801     -0.0003
     19  C21       37.0720   16.0340   -2.5120 C.ar  801  965801      0.0047
     20  C20       36.7550   14.8450   -3.1620 C.ar  801  965801      0.0817
     21  C19       37.7360   14.2410   -3.9460 C.ar  801  965801      0.0589
     22 CL4        37.3800   12.6770   -4.7710 Cl    801  965801     -0.0826
     23  C39       35.3790   14.2170   -2.9940 C.3   801  965801      0.4194
     24  F41       35.5980   12.9670   -2.6130 F     801  965801     -0.1658
     25  F40       34.6470   14.8240   -2.0660 F     801  965801     -0.1658
     26  F42       34.6800   14.2580   -4.1380 F     801  965801     -0.1658
     27  C08       39.5430   15.7540   -6.9170 C.3   801  965801      0.0811
     28  C07       40.1190   17.1340   -7.3490 C.3   801  965801      0.0605
     29  C01       40.0100   18.1060   -6.2230 C.ar  801  965801     -0.0171
     30  C02       41.1720   18.6150   -5.6670 C.ar  801  965801     -0.0039
     31  C03       41.0810   19.5200   -4.6160 C.ar  801  965801     -0.0003
     32  C04       39.8510   19.9130   -4.1140 C.ar  801  965801     -0.0000
     33  C05       38.6900   19.4130   -4.6650 C.ar  801  965801     -0.0003
     34  C06       38.7730   18.5110   -5.7300 C.ar  801  965801     -0.0039
     35  C10       39.4520   17.6900   -8.5530 C.ar  801  965801     -0.0171
     36  C15       40.2100   18.4840   -9.4100 C.ar  801  965801     -0.0039
     37  C14       39.6510   19.0030  -10.5620 C.ar  801  965801     -0.0003
     38  C13       38.3160   18.7660  -10.8600 C.ar  801  965801     -0.0000
     39  C12       37.5510   17.9920  -10.0040 C.ar  801  965801     -0.0003
     40  C11       38.1230   17.4390   -8.8560 C.ar  801  965801     -0.0039
     41  C33       46.9690   15.5600   -3.8440 C.ar  801  965801      0.0332
@<TRIPOS>BOND
     1    38    37   ar
     2    38    39   ar
     3    37    36   ar
     4    39    40   ar
     5    36    35   ar
     6    40    35   ar
     7    35    28    1
     8    28    27    1
     9    28    29    1
    10    27    14    1
    11    13    14    1
    12    13    12    1
    13    29    34   ar
    14    29    30   ar
    15    14    15    1
    16    12    11    1
    17    34    33   ar
    18    30    31   ar
    19     1     2   ar
    20    15    16    1
    21    11    10    1
    22    22    21    1
    23    33    32   ar
    24    31    32   ar
    25    10     9    1
    26     2     3   ar
    27     2     4    1
    28     9     8   ar
    29     9    41   ar
    30    26    23    1
    31     8     7   ar
    32    16    21   ar
    33    16    17   ar
    34    21    20   ar
    35    41     5   ar
    36     7     6   ar
    37     5     6   ar
    38     5     4    1
    39    17    18   ar
    40    20    23    1
    41    20    19   ar
    42    23    24    1
    43    23    25    1
    44    18    19   ar
