@<TRIPOS>MOLECULE
3ips_O90_A_1.pdb
 32 34 0 0 0
SMALL
GASTEIGER

@<TRIPOS>ATOM
      1  C1        15.9130  -15.3580   18.8720 C.ar    1  O901       -0.0101
      2  C2        16.1810  -16.7350   18.6210 C.ar    1  O901        0.0082
      3  C4        17.5160  -17.1980   18.6880 C.ar    1  O901        0.0630
      4  C5        18.5520  -16.3420   18.9930 C.ar    1  O901        0.0357
      5  C6        18.2860  -15.0080   19.2470 C.ar    1  O901        0.0067
      6  C8        16.9860  -14.5190   19.1890 C.ar    1  O901       -0.0032
      7  S10       20.2350  -16.9160   19.0970 S.3     1  O901       -0.1127
      8  C11       20.7770  -16.7490   17.3790 C.3     1  O901        0.0660
      9  C14       20.8520  -15.2840   16.9830 C.3     1  O901        0.0593
     10  C17       21.9110  -14.5760   17.8120 C.3     1  O901        0.2063
     11  O20       23.1130  -15.2010   17.4000 O.3     1  O901       -0.4756
     12  C21       24.2940  -14.9620   18.0260 C.ar    1  O901        0.1375
     13  C22       25.1840  -16.0500   17.9240 C.ar    1  O901        0.0489
     14  C23       26.4180  -15.8520   18.5280 C.ar    1  O901        0.1756
     15  C24       26.7720  -14.6880   19.1890 C.ar    1  O901        0.0619
     16  C25       25.8610  -13.6280   19.2740 C.ar    1  O901        0.0078
     17  C27       24.6210  -13.7770   18.6840 C.ar    1  O901        0.0368
     18  C29       28.0690  -15.0050   19.6050 C.ar    1  O901        0.1940
     19  N30       28.5370  -16.2240   19.2540 N.ar    1  O901       -0.0730
     20  O31       27.4150  -16.7960   18.5290 O.2     1  O901       -0.3537
     21  C32       28.8900  -14.0370   20.3720 C.3     1  O901        0.4381
     22  F33       30.2180  -14.4030   20.3480 F       1  O901       -0.1643
     23  F34       28.5420  -14.0480   21.6960 F       1  O901       -0.1643
     24  F35       28.7720  -12.7490   19.8810 F       1  O901       -0.1643
     25  C36       24.8550  -17.3300   17.1870 C.3     1  O901        0.0326
     26  C39       24.5250  -18.4940   18.1080 C.3     1  O901        0.0049
     27  C42       23.5110  -19.4110   17.4460 C.3     1  O901        0.0004
     28 CL46       18.0180  -18.8310   18.4020 Cl      1  O901       -0.0817
     29  C47       14.5650  -14.6590   18.8610 C.3     1  O901        0.1404
     30  C50       13.3710  -15.3210   18.2290 C.2     1  O901        0.3692
     31  O51       13.2740  -16.4140   17.7210 O.co2   1  O901       -0.2453
     32  O52       12.2840  -14.5180   18.2720 O.co2   1  O901       -0.2453
@<TRIPOS>BOND
     1     9     8    1
     2     9    10    1
     3    25    13    1
     4    25    26    1
     5     8     7    1
     6    11    10    1
     7    11    12    1
     8    27    26    1
     9    31    30   ar
    10    13    12   ar
    11    13    14   ar
    12    12    17   ar
    13    30    32   ar
    14    30    29    1
    15    28     3    1
    16    14    20   ar
    17    14    15   ar
    18    20    19   ar
    19     2     3   ar
    20     2     1   ar
    21    17    16   ar
    22     3     4   ar
    23    29     1    1
    24     1     6   ar
    25     4     7    1
    26     4     5   ar
    27    15    16   ar
    28    15    18   ar
    29     6     5   ar
    30    19    18   ar
    31    18    21    1
    32    24    21    1
    33    22    21    1
    34    21    23    1
