@<TRIPOS>MOLECULE
3ipt_EQU_A_1.pdb
 20 23 0 0 0
SMALL
GASTEIGER

@<TRIPOS>ATOM
      1  C1         8.8070    3.2010   32.3170 C.ar  1128  EQU1128     0.1957
      2  C2         7.8590    4.2730   32.2330 C.ar  1128  EQU1128     0.0420
      3  C3         8.3300    5.5860   32.3910 C.ar  1128  EQU1128     0.0029
      4  C4         9.7720    5.9010   32.6220 C.ar  1128  EQU1128    -0.0041
      5  C5        10.5990    4.8710   32.6230 C.ar  1128  EQU1128     0.0030
      6  C6        10.2290    3.5000   32.4920 C.ar  1128  EQU1128     0.0420
      7  C10        7.5130    6.6560   32.3160 C.ar  1128  EQU1128    -0.0002
      8  C11        7.9530    8.0300   32.4890 C.ar  1128  EQU1128    -0.0046
      9  C12        9.2660    8.4100   32.6460 C.ar  1128  EQU1128    -0.0260
     10  C13       10.1770    7.2980   32.7390 C.ar  1128  EQU1128    -0.0261
     11  C16        9.8900    9.7710   32.8910 C.3   1128  EQU1128     0.0290
     12  C17       11.2720    9.8530   32.3180 C.3   1128  EQU1128     0.0556
     13  C18       12.2630    8.9390   33.0650 C.3   1128  EQU1128     0.0119
     14  C19       11.7030    7.4450   32.9500 C.3   1128  EQU1128     0.0265
     15  C24        9.2830   10.9900   32.2140 C.3   1128  EQU1128     0.0125
     16  C25       10.3010   12.1190   32.6120 C.3   1128  EQU1128     0.0648
     17  C26       11.5470   11.3370   32.5440 C.2   1128  EQU1128     0.1502
     18  C27       11.1430    9.5820   30.8070 C.3   1128  EQU1128     0.0077
     19  O1         8.3460    1.9230   32.0820 O.3   1128  EQU1128    -0.2866
     20  O26       12.5960   11.8840   32.2760 O.2   1128  EQU1128    -0.2961
@<TRIPOS>BOND
     1    18    12    1
     2    19     1    1
     3    15    16    1
     4    15    11    1
     5     2     1   ar
     6     2     3   ar
     7    20    17    2
     8     7     3   ar
     9     7     8   ar
    10     1     6   ar
    11    12    17    1
    12    12    11    1
    13    12    13    1
    14     3     4   ar
    15     8     9   ar
    16     6     5   ar
    17    17    16    1
    18     4     5   ar
    19     4    10   ar
    20     9    10   ar
    21     9    11    1
    22    10    14    1
    23    14    13    1
