@<TRIPOS>MOLECULE
3ipu_O40_A_1.pdb
 34 36 0 0 0
SMALL
GASTEIGER

@<TRIPOS>ATOM
      1  C1        23.8860  -14.6880   19.1500 C.ar  801  O40801      0.0368
      2  C2        23.4700  -16.0320   19.1380 C.ar  801  O40801      0.1375
      3  C3        24.3600  -17.0880   19.4400 C.ar  801  O40801      0.0489
      4  C4        25.6740  -16.7310   19.7580 C.ar  801  O40801      0.1756
      5  C5        26.0380  -15.4030   19.7630 C.ar  801  O40801      0.0619
      6  C6        25.1920  -14.3500   19.4710 C.ar  801  O40801      0.0078
      7  O7        26.7150  -17.5990   20.0950 O.2   801  O40801     -0.3537
      8  N8        27.8470  -16.7440   20.3400 N.ar  801  O40801     -0.0730
      9  C9        27.4660  -15.5330   20.1340 C.ar  801  O40801      0.1940
     10  C10       14.3690  -15.5880   17.6990 C.ar  801  O40801      0.0169
     11  O11       22.1560  -16.3500   18.8150 O.3   801  O40801     -0.4756
     12  C12       23.9350  -18.5610   19.4280 C.3   801  O40801      0.0326
     13  C13       13.1170  -15.0330   17.4190 C.ar  801  O40801      0.0079
     14  C14       28.2910  -14.2950   20.3050 C.3   801  O40801      0.4381
     15  C15       21.2410  -15.3580   18.3200 C.3   801  O40801      0.2072
     16  C16       11.9490  -15.6160   17.9250 C.ar  801  O40801      0.0799
     17  C17       24.2480  -19.2300   18.0580 C.3   801  O40801      0.0049
     18  C18       12.0510  -16.7680   18.7100 C.ar  801  O40801      0.0079
     19  C19       13.2990  -17.3110   18.9960 C.ar  801  O40801      0.0169
     20  C20       23.4550  -18.6030   16.8840 C.3   801  O40801      0.0004
     21  N21       18.0380  -17.3630   19.1660 N.am  801  O40801     -0.2607
     22  C22       18.0530  -18.8260   19.2410 C.3   801  O40801      0.1165
     23  C23       16.8560  -16.6980   18.9410 C.2   801  O40801      0.3275
     24  N24       15.7010  -17.3060   18.7770 N.am  801  O40801     -0.1622
     25  C26       19.9160  -16.1040   18.0520 C.3   801  O40801      0.0689
     26  C29       19.3000  -16.6170   19.3780 C.3   801  O40801      0.0989
     27  O30       10.5570  -13.8300   16.9650 O.co2 801  O40801     -0.2406
     28  C32       10.5940  -15.0140   17.6070 C.2   801  O40801      0.3878
     29  O33       16.8760  -15.4860   18.8830 O.2   801  O40801     -0.2504
     30  O34        9.5680  -15.6210   17.9250 O.co2 801  O40801     -0.2406
     31  F38       29.5530  -14.6820   20.6920 F     801  O40801     -0.1643
     32  F39       27.6560  -13.6020   21.2920 F     801  O40801     -0.1643
     33  F40       28.3060  -13.4750   19.2090 F     801  O40801     -0.1643
     34  C42       14.4840  -16.7380   18.4990 C.ar  801  O40801      0.0749
@<TRIPOS>BOND
     1    20    17    1
     2    27    28   ar
     3    13    10   ar
     4    13    16   ar
     5    28    30   ar
     6    28    16    1
     7    10    34   ar
     8    16    18   ar
     9    25    15    1
    10    25    26    1
    11    17    12    1
    12    15    11    1
    13    34    24    1
    14    34    19   ar
    15    18    19   ar
    16    24    23   am
    17    11     2    1
    18    29    23    2
    19    23    21   am
    20     2     1   ar
    21     2     3   ar
    22     1     6   ar
    23    21    22    1
    24    21    26    1
    25    33    14    1
    26    12     3    1
    27     3     4   ar
    28     6     5   ar
    29     4     5   ar
    30     4     7   ar
    31     5     9   ar
    32     7     8   ar
    33     9    14    1
    34     9     8   ar
    35    14    31    1
    36    14    32    1
