@<TRIPOS>MOLECULE
3ipx_B86_A_1.pdb
 17 18 0 0 0
SMALL
GASTEIGER

@<TRIPOS>ATOM
      1  C1        24.9410   -6.7820   18.0740 C.2   262  B86262      0.2617
      2  N2        25.7120   -7.8870   18.1210 N.2   262  B86262     -0.3000
      3  C3        26.9810   -7.7890   18.5860 C.1   262  B86262      0.2757
      4  N4        27.5320   -6.5490   19.0100 N.am  262  B86262     -0.1780
      5  C5        26.8040   -5.4330   18.9670 C.2   262  B86262      0.1131
      6  C6        25.5070   -5.4960   18.5070 C.2   262  B86262      0.2033
      7  N7        23.6690   -6.8080   17.6300 N.pl3 262  B86262     -0.0896
      8  F8        24.7320   -4.4080   18.4250 F     262  B86262     -0.1985
      9  O9        27.6640   -8.8220   18.6210 O.2   262  B86262     -0.1925
     10  C10       28.8970   -6.4970   19.5480 C.3   262  B86262      0.2090
     11  O11       28.8070   -5.8660   20.8320 O.3   262  B86262     -0.3338
     12  C12       29.9810   -5.1060   21.1120 C.3   262  B86262      0.1802
     13  C13       30.8460   -5.2060   19.8920 C.3   262  B86262      0.1858
     14  O13       31.8340   -6.1960   20.2080 O.3   262  B86262     -0.2203
     15  C14       29.9290   -5.6840   18.7860 C.3   262  B86262      0.0874
     16  C15       29.6120   -3.6630   21.3680 C.3   262  B86262      0.2141
     17  O16       28.9010   -3.1620   20.2420 O.3   262  B86262     -0.2176
@<TRIPOS>BOND
     1     7     1    1
     2     1     2    2
     3     1     6    1
     4     2     3    2
     5     8     6    1
     6     6     5    2
     7     3     9    2
     8     3     4   am
     9    15    10    1
    10    15    13    1
    11     5     4    1
    12     4    10    1
    13    10    11    1
    14    13    14    1
    15    13    12    1
    16    17    16    1
    17    11    12    1
    18    12    16    1
