@<TRIPOS>MOLECULE
3ipx_ADP_A_1.pdb
 27 29 0 0 0
SMALL
GASTEIGER

@<TRIPOS>ATOM
      1  PB        32.7710    2.4950   18.9990 P.3   261  ADP261      0.5373
      2  O1B       32.4020    2.7120   17.5620 O.2   261  ADP261     -0.2221
      3  O2B       32.1210    3.3950   20.0050 O.3   261  ADP261     -0.1143
      4  O3B       32.9470    1.0260   19.3210 O.3   261  ADP261     -0.1143
      5  PA        34.8280    4.0420   20.2460 P.3   261  ADP261      0.2231
      6  O1A       34.7830    3.2680   21.5430 O.3   261  ADP261     -0.4370
      7  O2A       34.1220    5.3910   20.1720 O.2   261  ADP261     -0.5169
      8  O3A       34.2620    3.1400   19.0680 O.3   261  ADP261     -0.2261
      9  O5'       36.3580    4.2120   19.7290 O.3   261  ADP261     -0.3111
     10  C5'       37.2030    3.0700   19.8260 C.3   261  ADP261      0.1813
     11  C4'       38.6360    3.5160   20.1010 C.3   261  ADP261      0.1821
     12  O4'       39.0640    4.3050   19.0090 O.3   261  ADP261     -0.3135
     13  C3'       38.7590    4.4270   21.2990 C.3   261  ADP261      0.2184
     14  O3'       40.0600    4.1950   21.8010 O.3   261  ADP261     -0.2174
     15  C2'       38.7480    5.8330   20.7620 C.3   261  ADP261      0.2570
     16  O2'       39.6160    6.6490   21.5450 O.3   261  ADP261     -0.2130
     17  C1'       39.3630    5.6560   19.3940 C.3   261  ADP261      0.3186
     18  N9        38.8790    6.5070   18.2770 N.pl3 261  ADP261     -0.1439
     19  C8        37.6380    6.4830   17.7570 C.3   261  ADP261      0.3377
     20  N7        37.5370    7.3260   16.7080 N.2   261  ADP261     -0.2095
     21  C5        38.7540    7.8870   16.5440 C.2   261  ADP261      0.2526
     22  C6        39.3360    8.8570   15.6040 C.2   261  ADP261      0.4393
     23  N6        38.5450    9.3730   14.6230 N.pl3 261  ADP261      0.2180
     24  N1        40.6450    9.1930   15.7520 N.2   261  ADP261      0.0021
     25  C2        41.4230    8.6460   16.7150 C.3   261  ADP261      0.5254
     26  N3        40.9570    7.7510   17.6050 N.2   261  ADP261     -0.0055
     27  C4        39.6420    7.3490   17.5730 C.2   261  ADP261      0.3518
@<TRIPOS>BOND
     1    23    22    1
     2    22    24    2
     3    22    21    1
     4    24    25    1
     5    21    20    2
     6    21    27    1
     7    20    19    1
     8    25    26    1
     9     2     1    2
    10    27    26    2
    11    27    18    1
    12    19    18    1
    13    18    17    1
    14     1     8    1
    15     1     4    1
    16     1     3    1
    17    12    17    1
    18    12    11    1
    19     8     5    1
    20    17    15    1
    21     9    10    1
    22     9     5    1
    23    10    11    1
    24    11    13    1
    25     7     5    2
    26     5     6    1
    27    15    13    1
    28    15    16    1
    29    13    14    1
