@<TRIPOS>MOLECULE
3ipy_B87_A_1.pdb
 29 33 0 0 0
SMALL
GASTEIGER

@<TRIPOS>ATOM
      1  C1        10.1190    3.8720   17.3080 C.ar  263  B87263      0.0206
      2  C2        10.3260    5.3080   16.8470 C.ar  263  B87263      0.0828
      3  N3        11.5540    5.7350   17.5230 N.ar  263  B87263     -0.2740
      4  C4        12.1180    4.7540   18.4460 C.ar  263  B87263      0.0828
      5  C5        11.1390    3.5890   18.4060 C.ar  263  B87263      0.0206
      6  C6        12.1220    6.9230   17.3350 C.2   263  B87263      0.2577
      7  O7        13.1290    7.2600   17.9420 O.2   263  B87263     -0.2701
      8  C8        11.4730    7.8680   16.3420 C.3   263  B87263      0.1621
      9  N9        12.2000    9.1250   16.2570 N.3   263  B87263     -0.2577
     10  C10       13.5050    9.1550   15.5920 C.3   263  B87263      0.1240
     11  C11       13.7030   10.5580   15.0310 C.3   263  B87263      0.2194
     12  N12       13.6910   11.4560   16.1700 N.pl3 263  B87263     -0.1914
     13  C13       12.6450   11.3830   17.1790 C.3   263  B87263      0.2194
     14  C14       11.5870   10.3240   16.8310 C.3   263  B87263      0.1240
     15  C15       14.6950   12.4240   16.2990 C.2   263  B87263      0.3032
     16  C16       15.9060   12.2980   15.6160 C.3   263  B87263      0.1625
     17  C17       16.8790   13.2890   15.7710 C.2   263  B87263      0.0763
     18  N18       16.6160   14.3460   16.5760 N.2   263  B87263     -0.2220
     19  C19       15.4440   14.4550   17.2180 C.3   263  B87263      0.3912
     20  N20       14.4920   13.5140   17.0890 N.2   263  B87263     -0.0407
     21  C21       18.1980   13.2040   15.0500 C.ar  263  B87263      0.0433
     22  S22       19.2780   14.5330   15.4040 S.2   263  B87263     -0.0857
     23  C23       20.5110   14.0070   14.4080 C.ar  263  B87263      0.0295
     24  C24       20.0910   12.7540   13.7590 C.ar  263  B87263      0.0065
     25  C25       18.7620   12.3010   14.1310 C.ar  263  B87263      0.0082
     26  C26       21.7440   14.6140   14.1900 C.ar  263  B87263      0.0065
     27  C27       22.6180   13.9780   13.3020 C.ar  263  B87263      0.0005
     28  C28       22.2500   12.7800   12.6690 C.ar  263  B87263      0.0000
     29  C29       21.0030   12.1680   12.8850 C.ar  263  B87263      0.0005
@<TRIPOS>BOND
     1    28    29   ar
     2    28    27   ar
     3    29    24   ar
     4    27    26   ar
     5    24    25   ar
     6    24    23   ar
     7    25    21   ar
     8    26    23   ar
     9    23    22   ar
    10    11    10    1
    11    11    12    1
    12    21    22   ar
    13    21    17    1
    14    10     9    1
    15    16    17    1
    16    16    15    1
    17    17    18    2
    18    12    15    1
    19    12    13    1
    20     9     8    1
    21     9    14    1
    22    15    20    2
    23     8     6    1
    24    18    19    1
    25    14    13    1
    26     2     1   ar
    27     2     3   ar
    28    20    19    1
    29     1     5   ar
    30     6     3   am
    31     6     7    2
    32     3     4   ar
    33     5     4   ar
