@<TRIPOS>MOLECULE
3iq0_ATP_A_1.pdb
 31 33 0 0 0
SMALL
GASTEIGER

@<TRIPOS>ATOM
      1  PG         4.9970   70.6850   17.6080 P.3   900  ATP900      0.5373
      2  O1G        5.0490   72.0870   17.0640 O.3   900  ATP900     -0.1143
      3  O2G        4.6200   70.6760   19.0700 O.3   900  ATP900     -0.1143
      4  O3G        3.9980   69.8510   16.7820 O.2   900  ATP900     -0.2221
      5  PB         7.7120   69.7100   18.3480 P.3   900  ATP900      0.2277
      6  O1B        8.9540   70.4290   17.9210 O.2   900  ATP900     -0.5168
      7  O2B        7.2240   69.8090   19.7500 O.3   900  ATP900     -0.4368
      8  O3B        6.4970   70.1550   17.3840 O.3   900  ATP900     -0.2258
      9  PA         8.8370   67.6410   16.7000 P.3   900  ATP900      0.2189
     10  O1A        8.1700   67.9590   15.3850 O.2   900  ATP900     -0.5170
     11  O2A       10.2350   68.0630   16.9510 O.3   900  ATP900     -0.4371
     12  O3A        7.9030   68.1940   17.9250 O.3   900  ATP900     -0.2700
     13  O5'        8.7000   66.0370   17.4820 O.3   900  ATP900     -0.3112
     14  C5'        8.2340   64.9570   18.1370 C.3   900  ATP900      0.1813
     15  C4'        9.3770   63.9870   18.1930 C.3   900  ATP900      0.1821
     16  O4'        8.8410   63.2100   17.1180 O.3   900  ATP900     -0.3135
     17  C3'       10.7870   64.3100   17.5920 C.3   900  ATP900      0.2184
     18  O3'       11.7350   64.7790   18.5450 O.3   900  ATP900     -0.2174
     19  C2'       11.1090   63.0430   16.9260 C.3   900  ATP900      0.2570
     20  O2'       11.6220   62.0860   17.8670 O.3   900  ATP900     -0.2130
     21  C1'        9.8180   62.6230   16.2950 C.3   900  ATP900      0.3186
     22  N9         9.6870   63.1560   14.8780 N.pl3 900  ATP900     -0.1439
     23  C8         9.1270   64.3430   14.4140 C.3   900  ATP900      0.3377
     24  N7         9.2080   64.4510   13.0780 N.2   900  ATP900     -0.2095
     25  C5         9.8120   63.3460   12.6400 C.2   900  ATP900      0.2526
     26  C6        10.2450   62.7790   11.3200 C.2   900  ATP900      0.4393
     27  N6        10.0000   63.4680   10.2080 N.pl3 900  ATP900      0.2180
     28  N1        10.8840   61.5300   11.2860 N.2   900  ATP900      0.0021
     29  C2        11.1650   60.7640   12.4230 C.3   900  ATP900      0.5254
     30  N3        10.7920   61.2370   13.6770 N.2   900  ATP900     -0.0055
     31  C4        10.1440   62.4860   13.8300 C.2   900  ATP900      0.3518
@<TRIPOS>BOND
     1    27    26    1
     2    28    26    2
     3    28    29    1
     4    26    25    1
     5    29    30    1
     6    25    24    2
     7    25    31    1
     8    24    23    1
     9    30    31    2
    10    31    22    1
    11    23    22    1
    12    22    21    1
    13    10     9    2
    14    21    19    1
    15    21    16    1
    16     9    11    1
    17     9    13    1
    18     9    12    1
    19     4     1    2
    20    19    17    1
    21    19    20    1
    22     2     1    1
    23    16    15    1
    24     8     1    1
    25     8     5    1
    26    13    14    1
    27    17    15    1
    28    17    18    1
    29     1     3    1
    30     6     5    2
    31    12     5    1
    32    14    15    1
    33     5     7    1
