@<TRIPOS>MOLECULE
3iq5_HEM_A_1.pdb
 43 50 0 0 0
SMALL
GASTEIGER

@<TRIPOS>ATOM
      1  CHA        9.9390   33.0440   -5.2280 C.2   150  HEM150      0.0000
      2  CHB       10.9650   33.8220   -0.5370 C.2   150  HEM150      0.0000
      3  CHC       15.5790   33.0370   -1.6080 C.2   150  HEM150      0.0000
      4  CHD       14.6580   32.4720   -6.2210 C.2   150  HEM150      0.0000
      5  C1A        9.7960   33.3080   -3.8470 C.2   150  HEM150      0.0000
      6  C2A        8.5370   33.6150   -3.1780 C.2   150  HEM150      0.0000
      7  C3A        8.8200   33.8220   -1.8350 C.2   150  HEM150      0.0000
      8  C4A       10.2720   33.6610   -1.6940 C.2   150  HEM150      0.0000
      9  CMA        7.8210   34.2340   -0.7800 C.3   150  HEM150      0.0000
     10  CAA        7.1450   33.7750   -3.7780 C.3   150  HEM150      0.0000
     11  CBA        6.1580   32.7240   -3.2770 C.3   150  HEM150      0.0000
     12  CGA        6.6030   31.3130   -3.6080 C.2   150  HEM150      0.0000
     13  O1A        6.4670   30.4290   -2.7470 O.co2 150  HEM150      0.0000
     14  O2A        7.0840   31.0950   -4.7400 O.co2 150  HEM150      0.0000
     15  C1B       12.3760   33.6600   -0.4060 C.ar  150  HEM150      0.0000
     16  C2B       13.1430   33.7790    0.8080 C.ar  150  HEM150      0.0000
     17  C3B       14.4490   33.5590    0.5230 C.ar  150  HEM150      0.0000
     18  C4B       14.4310   33.2470   -0.8950 C.ar  150  HEM150      0.0000
     19  CMB       12.5440   34.1170    2.2100 C.3   150  HEM150      0.0000
     20  CAB       15.6260   33.8370    1.2760 C.2   150  HEM150      0.0000
     21  CBB       15.8710   33.4340    2.5650 C.2   150  HEM150      0.0000
     22  C1C       15.7760   32.8570   -2.9410 C.2   150  HEM150      0.0000
     23  C2C       17.1320   32.6880   -3.5940 C.2   150  HEM150      0.0000
     24  C3C       16.9090   32.4860   -4.9400 C.2   150  HEM150      0.0000
     25  C4C       15.3940   32.5810   -5.0510 C.2   150  HEM150      0.0000
     26  CMC       18.4730   32.9230   -2.9180 C.3   150  HEM150      0.0000
     27  CAC       17.8030   32.2080   -6.0150 C.3   150  HEM150      0.0000
     28  CBC       19.1910   31.8370   -5.8540 C.3   150  HEM150      0.0000
     29  C1D       13.2780   32.5640   -6.3450 C.ar  150  HEM150      0.0000
     30  C2D       12.5360   32.4210   -7.5760 C.ar  150  HEM150      0.0000
     31  C3D       11.2340   32.5810   -7.3350 C.ar  150  HEM150      0.0000
     32  C4D       11.1410   32.8120   -5.9010 C.ar  150  HEM150      0.0000
     33  CMD       13.0670   32.1880   -9.0030 C.3   150  HEM150      0.0000
     34  CAD       10.1350   32.4870   -8.4630 C.3   150  HEM150      0.0000
     35  CBD        9.6790   31.0460   -8.4380 C.3   150  HEM150      0.0000
     36  CGD        8.5380   30.7580   -9.3940 C.2   150  HEM150      0.0000
     37  O1D        7.9730   29.6420   -9.3230 O.co2 150  HEM150      0.0000
     38  O2D        8.2070   31.6380  -10.2140 O.co2 150  HEM150      0.0000
     39  NA        10.8450   33.3440   -2.9390 N.2   150  HEM150      0.0000
     40  NB        13.1490   33.3260   -1.4430 N.ar  150  HEM150      0.0000
     41  NC        14.7920   32.8100   -3.8370 N.2   150  HEM150      0.0000
     42  ND        12.4420   32.8050   -5.2830 N.ar  150  HEM150      0.0000
     43 FE         12.8340   33.0380   -3.3930 Fe    150  HEM150      0.0000
@<TRIPOS>BOND
     1    38    36   ar
     2    36    37   ar
     3    36    35    1
     4    33    30    1
     5    34    35    1
     6    34    31    1
     7    30    31   ar
     8    30    29   ar
     9    31    32   ar
    10    29     4    2
    11    29    42   ar
    12     4    25    1
    13    27    28    1
    14    27    24    1
    15    32    42   ar
    16    32     1    2
    17    42    43    1
    18     1     5    1
    19    25    24    1
    20    25    41    2
    21    24    23    2
    22    14    12   ar
    23     5     6    1
    24     5    39    2
    25    41    43    1
    26    41    22    1
    27    10    11    1
    28    10     6    1
    29    12    11    1
    30    12    13   ar
    31    23    22    1
    32    23    26    1
    33    43    39    1
    34    43    40    1
    35     6     7    2
    36    22     3    2
    37    39     8    1
    38     7     8    1
    39     7     9    1
    40     8     2    2
    41     3    18    1
    42    40    18   ar
    43    40    15   ar
    44    18    17   ar
    45     2    15    1
    46    15    16   ar
    47    17    16   ar
    48    17    20    1
    49    16    19    1
    50    20    21    2
