@<TRIPOS>MOLECULE
3iq6_HEM_A_1.pdb
 43 50 0 0 0
SMALL
GASTEIGER

@<TRIPOS>ATOM
      1  CHA        1.5160    6.9020  -14.3080 C.2   150  HEM150      0.0000
      2  CHB       -1.5380    9.8100  -12.1190 C.2   150  HEM150      0.0000
      3  CHC       -0.5340   13.2210  -15.3960 C.2   150  HEM150      0.0000
      4  CHD        2.7670   10.4370  -17.3770 C.2   150  HEM150      0.0000
      5  C1A        0.5210    7.3390  -13.4700 C.2   150  HEM150      0.0000
      6  C2A       -0.0720    6.5340  -12.3960 C.2   150  HEM150      0.0000
      7  C3A       -0.8170    7.4200  -11.6830 C.2   150  HEM150      0.0000
      8  C4A       -0.7770    8.7050  -12.3990 C.2   150  HEM150      0.0000
      9  CMA       -1.3650    7.1490  -10.2770 C.3   150  HEM150      0.0000
     10  CAA       -0.1700    5.0040  -12.2350 C.3   150  HEM150      0.0000
     11  CBA        1.0820    4.1600  -12.0240 C.3   150  HEM150      0.0000
     12  CGA        1.7870    4.4510  -10.7050 C.2   150  HEM150      0.0000
     13  O1A        2.8370    3.8240  -10.4420 O.co2 150  HEM150      0.0000
     14  O2A        1.2990    5.3000   -9.9280 O.co2 150  HEM150      0.0000
     15  C1B       -1.5560   10.9800  -12.8570 C.ar  150  HEM150      0.0000
     16  C2B       -2.4110   12.1010  -12.5320 C.ar  150  HEM150      0.0000
     17  C3B       -2.1390   13.0750  -13.4470 C.ar  150  HEM150      0.0000
     18  C4B       -1.1180   12.5140  -14.3400 C.ar  150  HEM150      0.0000
     19  CMB       -3.4390   12.1580  -11.4130 C.3   150  HEM150      0.0000
     20  CAB       -2.7300   14.3440  -13.5130 C.3   150  HEM150      0.0000
     21  CBB       -2.5600   15.3650  -12.5860 C.3   150  HEM150      0.0000
     22  C1C        0.4540   12.7990  -16.2720 C.2   150  HEM150      0.0000
     23  C2C        1.0830   13.5870  -17.3030 C.2   150  HEM150      0.0000
     24  C3C        1.9810   12.7870  -17.9380 C.2   150  HEM150      0.0000
     25  C4C        1.9300   11.5280  -17.2080 C.2   150  HEM150      0.0000
     26  CMC        0.8980   15.0790  -17.5430 C.3   150  HEM150      0.0000
     27  CAC        2.6580   13.0380  -19.1340 C.3   150  HEM150      0.0000
     28  CBC        3.2430   14.2560  -19.4200 C.3   150  HEM150      0.0000
     29  C1D        2.7590    9.2500  -16.6470 C.ar  150  HEM150      0.0000
     30  C2D        3.6450    8.1100  -16.8990 C.ar  150  HEM150      0.0000
     31  C3D        3.2760    7.1070  -16.0490 C.ar  150  HEM150      0.0000
     32  C4D        2.1610    7.6410  -15.2830 C.ar  150  HEM150      0.0000
     33  CMD        4.7960    8.0220  -17.8960 C.3   150  HEM150      0.0000
     34  CAD        4.0070    5.7590  -15.8640 C.3   150  HEM150      0.0000
     35  CBD        5.1980    5.8630  -14.8990 C.3   150  HEM150      0.0000
     36  CGD        6.0370    4.5950  -14.8570 C.2   150  HEM150      0.0000
     37  O1D        7.0910    4.5940  -14.1820 O.co2 150  HEM150      0.0000
     38  O2D        5.6450    3.5960  -15.5040 O.co2 150  HEM150      0.0000
     39  NA         0.0590    8.6470  -13.4760 N.2   150  HEM150      0.0000
     40  NB        -0.7790   11.2260  -13.9730 N.ar  150  HEM150      0.0000
     41  NC         0.9890   11.5480  -16.2270 N.2   150  HEM150      0.0000
     42  ND         1.8600    8.9620  -15.6350 N.ar  150  HEM150      0.0000
     43 FE          0.5460   10.0210  -14.9370 Fe    150  HEM150      0.0000
@<TRIPOS>BOND
     1    28    27    1
     2    27    24    1
     3    24    23    2
     4    24    25    1
     5    33    30    1
     6    26    23    1
     7     4    25    1
     8     4    29    2
     9    23    22    1
    10    25    41    2
    11    30    29   ar
    12    30    31   ar
    13    29    42   ar
    14    22    41    1
    15    22     3    2
    16    41    43    1
    17    31    34    1
    18    31    32   ar
    19    34    35    1
    20    42    32   ar
    21    42    43    1
    22    38    36   ar
    23     3    18    1
    24    32     1    2
    25    43    40    1
    26    43    39    1
    27    35    36    1
    28    36    37   ar
    29    18    40   ar
    30    18    17   ar
    31     1     5    1
    32    40    15   ar
    33    20    17    1
    34    20    21    1
    35    39     5    2
    36    39     8    1
    37     5     6    1
    38    17    16   ar
    39    15    16   ar
    40    15     2    1
    41    16    19    1
    42     8     2    2
    43     8     7    1
    44     6    10    1
    45     6     7    2
    46    10    11    1
    47    11    12    1
    48     7     9    1
    49    12    13   ar
    50    12    14   ar
