@<TRIPOS>MOLECULE
3iq7_5ID_A_1.pdb
 20 22 0 0 0
SMALL
GASTEIGER

@<TRIPOS>ATOM
      1  O5'        8.5550  -12.9460  -10.5520 O.3   799  5ID799     -0.2176
      2  C5'        9.1070  -14.1800  -10.1160 C.3   799  5ID799      0.2143
      3  C4'       10.6180  -14.3330  -10.3960 C.3   799  5ID799      0.1851
      4  O4'       10.8770  -14.3080  -11.8160 O.3   799  5ID799     -0.3132
      5  C1'       12.0810  -13.5660  -12.0590 C.3   799  5ID799      0.3212
      6  N9        11.7220  -12.3940  -12.9310 N.pl3 799  5ID799     -0.1464
      7  C8        10.5120  -11.7310  -13.0700 C.2   799  5ID799      0.1800
      8  C7        10.6890  -10.7210  -13.9600 C.2   799  5ID799      0.0715
      9  C5        12.0380  -10.8050  -14.4200 C.3   799  5ID799      0.2499
     10  C6        12.8190  -10.0790  -15.3040 C.2   799  5ID799      0.4069
     11  N1        14.1130  -10.4180  -15.4230 N.2   799  5ID799     -0.0027
     12  C2        14.6320  -11.4270  -14.7320 C.3   799  5ID799      0.5248
     13  N3        13.9310  -12.1450  -13.8410 N.2   799  5ID799     -0.0106
     14  C4        12.6380  -11.8260  -13.6880 C.2   799  5ID799      0.3220
     15  N6        12.2780   -9.0310  -15.9870 N.pl3 799  5ID799      0.2117
     16  C2'       12.6100  -13.1980  -10.6820 C.3   799  5ID799      0.2573
     17  O2'       13.3340  -14.3050  -10.2130 O.3   799  5ID799     -0.2130
     18  C3'       11.3520  -13.0870   -9.8980 C.3   799  5ID799      0.2186
     19  O3'       11.6210  -13.2080   -8.4730 O.3   799  5ID799     -0.2174
     20  IAE        9.0550   -9.5420  -14.5550 I     799  5ID799     -0.0424
@<TRIPOS>BOND
     1    15    10    1
     2    11    10    2
     3    11    12    1
     4    10     9    1
     5    12    13    1
     6    20     8    1
     7     9     8    1
     8     9    14    1
     9     8     7    2
    10    13    14    2
    11    14     6    1
    12     7     6    1
    13     6     5    1
    14     5     4    1
    15     5    16    1
    16     4     3    1
    17    16    17    1
    18    16    18    1
    19     1     2    1
    20     3     2    1
    21     3    18    1
    22    18    19    1
