@<TRIPOS>MOLECULE
3iqa_DRW_A_1.pdb
 27 28 0 0 0
SMALL
GASTEIGER

@<TRIPOS>ATOM
      1  CAA       -8.7760  -13.7570    4.7720 C.3   309  DRW309      0.0356
      2  CAB       -8.8890  -11.1060    2.4220 C.3   309  DRW309      0.0033
      3  NAC       -4.5510   -5.9860   -2.6410 N.3   309  DRW309      0.0528
      4  OAD      -12.6490  -10.6640    4.2310 O.3   309  DRW309     -0.2203
      5  OAE      -11.1820   -7.1980    5.0910 O.co2 309  DRW309     -0.2392
      6  OAF       -5.1850   -4.2310   -0.8500 O.2   309  DRW309     -0.1371
      7  OAG       -3.0350   -4.1750   -1.9420 O.2   309  DRW309     -0.1371
      8  OAH       -9.9980   -6.3780    3.6280 O.co2 309  DRW309     -0.2392
      9  OAI      -10.1080  -13.2660    6.5810 O.3   309  DRW309     -0.2230
     10  CAJ      -11.7390  -11.1720    5.1540 C.3   309  DRW309      0.1865
     11  CAK       -6.2240   -5.9580    3.4940 C.3   309  DRW309      0.0995
     12  CAL       -4.6330   -6.9120    0.2880 C.3   309  DRW309      0.1340
     13  CAM       -5.5060   -7.9540    2.3810 C.3   309  DRW309      0.0312
     14  NAN       -9.8240   -9.4760    5.1660 N.2   309  DRW309     -0.2692
     15  NAO       -6.0280   -5.8040    2.0730 N.3   309  DRW309     -0.2170
     16  NAP       -3.5430   -6.0030   -0.1880 N.3   309  DRW309     -0.0626
     17  SAQ       -6.9110   -8.3500    4.7380 S.3   309  DRW309     -0.1341
     18  CAR      -10.2650   -7.2520    4.3580 C.2   309  DRW309      0.4014
     19  CAS       -9.5330   -8.5620    4.3330 C.2   309  DRW309      0.1428
     20  CAT      -10.0780  -13.1870    5.2040 C.3   309  DRW309      0.1564
     21  CAU       -8.3420  -10.4820    3.6370 C.3   309  DRW309      0.0384
     22  CAV       -4.9540   -6.7410    1.7810 C.3   309  DRW309      0.0930
     23  CAW       -5.8060   -7.3810    3.7260 C.3   309  DRW309      0.0668
     24  CAX      -10.3680  -11.7610    4.6700 C.3   309  DRW309      0.0858
     25  CAY       -9.2360  -10.7300    4.8660 C.3   309  DRW309      0.1093
     26  CAZ       -8.2220   -8.9320    3.5940 C.3   309  DRW309      0.0957
     27  SBA       -4.0710   -5.0760   -1.4110 S.O2  309  DRW309      0.1465
@<TRIPOS>BOND
     1     3    27    1
     2     7    27    2
     3    27     6    2
     4    27    16    1
     5    16    12    1
     6    12    22    1
     7    22    15    1
     8    22    13    1
     9    15    11    1
    10    13    23    1
    11     2    21    1
    12    11    23    1
    13    26    21    1
    14    26    19    1
    15    26    17    1
    16     8    18   ar
    17    21    25    1
    18    23    17    1
    19     4    10    1
    20    19    18    1
    21    19    14    2
    22    18     5   ar
    23    24    25    1
    24    24    10    1
    25    24    20    1
    26     1    20    1
    27    25    14    1
    28    20     9    1
