@<TRIPOS>MOLECULE
3iqb_HEM_A_1.pdb
 43 50 0 0 0
SMALL
GASTEIGER

@<TRIPOS>ATOM
      1  CHA       25.6110   -3.5600   12.4140 C.2   500  HEM500      0.0000
      2  CHB       23.0120   -7.3950   13.8830 C.2   500  HEM500      0.0000
      3  CHC       20.8310   -7.7160    9.5880 C.2   500  HEM500      0.0000
      4  CHD       23.7090   -4.1820    7.9250 C.2   500  HEM500      0.0000
      5  C1A       24.9910   -4.4860   13.2380 C.2   500  HEM500      0.0000
      6  C2A       25.0030   -4.5130   14.6900 C.2   500  HEM500      0.0000
      7  C3A       24.2880   -5.5820   15.0820 C.2   500  HEM500      0.0000
      8  C4A       23.7880   -6.2530   13.8970 C.2   500  HEM500      0.0000
      9  CMA       23.9920   -6.0520   16.5270 C.3   500  HEM500      0.0000
     10  CAA       25.7150   -3.4940   15.6130 C.3   500  HEM500      0.0000
     11  CBA       27.2230   -3.6320   15.4730 C.3   500  HEM500      0.0000
     12  CGA       27.7240   -4.5570   16.5540 C.2   500  HEM500      0.0000
     13  O1A       27.0170   -4.7270   17.5820 O.co2 500  HEM500      0.0000
     14  O2A       28.8290   -5.1380   16.3890 O.co2 500  HEM500      0.0000
     15  C1B       22.1720   -7.8160   12.8750 C.ar  500  HEM500      0.0000
     16  C2B       21.1850   -8.8740   12.9540 C.ar  500  HEM500      0.0000
     17  C3B       20.5800   -8.9660   11.7590 C.ar  500  HEM500      0.0000
     18  C4B       21.1650   -7.9550   10.8980 C.ar  500  HEM500      0.0000
     19  CMB       20.9170   -9.7410   14.2050 C.3   500  HEM500      0.0000
     20  CAB       19.4520   -9.9210   11.2930 C.2   500  HEM500      0.0000
     21  CBB       18.6360  -10.5630   12.1360 C.2   500  HEM500      0.0000
     22  C1C       21.4380   -6.7990    8.7590 C.2   500  HEM500      0.0000
     23  C2C       21.1060   -6.5830    7.3720 C.2   500  HEM500      0.0000
     24  C3C       21.8900   -5.6120    6.8940 C.2   500  HEM500      0.0000
     25  C4C       22.7500   -5.1690    7.9780 C.2   500  HEM500      0.0000
     26  CMC       20.0250   -7.3550    6.5880 C.3   500  HEM500      0.0000
     27  CAC       21.8410   -5.1000    5.4330 C.2   500  HEM500      0.0000
     28  CBC       22.7100   -4.2040    4.9670 C.2   500  HEM500      0.0000
     29  C1D       24.4330   -3.6590    8.9720 C.ar  500  HEM500      0.0000
     30  C2D       25.2550   -2.4760    8.8710 C.ar  500  HEM500      0.0000
     31  C3D       25.8550   -2.2840   10.2610 C.ar  500  HEM500      0.0000
     32  C4D       25.3330   -3.3620   11.0770 C.ar  500  HEM500      0.0000
     33  CMD       25.4850   -1.5920    7.6270 C.3   500  HEM500      0.0000
     34  CAD       26.7990   -1.1560   10.6880 C.3   500  HEM500      0.0000
     35  CBD       28.2190   -1.6920   10.5930 C.3   500  HEM500      0.0000
     36  CGD       29.1550   -0.5640   10.9270 C.2   500  HEM500      0.0000
     37  O1D       30.3500   -0.8380   11.1530 O.co2 500  HEM500      0.0000
     38  O2D       28.7110    0.6080   10.9680 O.co2 500  HEM500      0.0000
     39  NA        24.2350   -5.5560   12.7920 N.2   500  HEM500      0.0000
     40  NB        22.1360   -7.2820   11.6010 N.ar  500  HEM500      0.0000
     41  NC        22.4490   -5.9220    9.0960 N.2   500  HEM500      0.0000
     42  ND        24.5040   -4.1490   10.2830 N.ar  500  HEM500      0.0000
     43 FE         23.3550   -5.7480   10.8760 Fe    500  HEM500      0.0000
@<TRIPOS>BOND
     1    28    27    2
     2    27    24    1
     3    26    23    1
     4    24    23    2
     5    24    25    1
     6    23    22    1
     7    33    30    1
     8     4    25    1
     9     4    29    2
    10    25    41    2
    11    22    41    1
    12    22     3    2
    13    30    29   ar
    14    30    31   ar
    15    29    42   ar
    16    41    43    1
    17     3    18    1
    18    31    34    1
    19    31    32   ar
    20    42    43    1
    21    42    32   ar
    22    35    34    1
    23    35    36    1
    24    43    40    1
    25    43    39    1
    26    18    40   ar
    27    18    17   ar
    28    36    38   ar
    29    36    37   ar
    30    32     1    2
    31    20    17    1
    32    20    21    2
    33    40    15   ar
    34    17    16   ar
    35     1     5    1
    36    39     5    2
    37    39     8    1
    38    15    16   ar
    39    15     2    1
    40    16    19    1
    41     5     6    1
    42     2     8    2
    43     8     7    1
    44     6     7    2
    45     6    10    1
    46     7     9    1
    47    11    10    1
    48    11    12    1
    49    14    12   ar
    50    12    13   ar
