@<TRIPOS>MOLECULE
3iqd_NAD_B_1.pdb
 44 48 0 0 0
SMALL
GASTEIGER

@<TRIPOS>ATOM
      1  PA        39.3920   16.4530  -20.8970 P.3   405  NAD405      0.2189
      2  O1A       39.3840   15.7150  -22.1840 O.2   405  NAD405     -0.5170
      3  O2A       39.6050   17.9060  -21.0770 O.3   405  NAD405     -0.4371
      4  O5B       40.5250   15.8310  -19.9530 O.3   405  NAD405     -0.3112
      5  C5B       41.8350   15.6120  -20.4110 C.3   405  NAD405      0.1813
      6  C4B       42.6070   15.1070  -19.2040 C.3   405  NAD405      0.1821
      7  O4B       42.5320   13.6950  -19.1200 O.3   405  NAD405     -0.3135
      8  C3B       44.0810   15.4430  -19.2510 C.3   405  NAD405      0.2184
      9  O3B       44.3230   16.7100  -18.7090 O.3   405  NAD405     -0.2174
     10  C2B       44.6770   14.3500  -18.3980 C.3   405  NAD405      0.2570
     11  O2B       44.7130   14.7470  -17.0460 O.3   405  NAD405     -0.2130
     12  C1B       43.7260   13.1730  -18.5800 C.3   405  NAD405      0.3186
     13  N9A       44.3290   12.2020  -19.5170 N.pl3 405  NAD405     -0.1439
     14  C8A       44.2940   12.2350  -20.8920 C.3   405  NAD405      0.3377
     15  N7A       44.9780   11.1690  -21.3730 N.2   405  NAD405     -0.2095
     16  C5A       45.4550   10.4580  -20.3290 C.2   405  NAD405      0.2526
     17  C6A       46.2100    9.2890  -20.2580 C.2   405  NAD405      0.4393
     18  N6A       46.2530    8.4840  -21.3140 N.pl3 405  NAD405      0.2180
     19  N1A       46.5610    8.7800  -19.0170 N.2   405  NAD405      0.0021
     20  C2A       46.1520    9.4260  -17.8580 C.3   405  NAD405      0.5254
     21  N3A       45.3990   10.5890  -17.9380 N.2   405  NAD405     -0.0055
     22  C4A       45.0550   11.0950  -19.1550 C.2   405  NAD405      0.3518
     23  O3        38.0340   16.1580  -20.0830 O.3   405  NAD405     -0.2703
     24  PN        37.0590   17.3310  -19.5620 P.3   405  NAD405      0.2189
     25  O1N       36.7410   18.2180  -20.6980 O.2   405  NAD405     -0.5170
     26  O2N       37.5860   17.9380  -18.3070 O.3   405  NAD405     -0.4371
     27  O5D       35.7490   16.4730  -19.2150 O.3   405  NAD405     -0.3112
     28  C5D       35.7600   15.5590  -18.1390 C.3   405  NAD405      0.1813
     29  C4D       34.6230   14.5620  -18.3110 C.3   405  NAD405      0.1799
     30  O4D       33.3900   15.2530  -18.2930 O.3   405  NAD405     -0.3327
     31  C3D       34.7190   13.8300  -19.6400 C.3   405  NAD405      0.2158
     32  O3D       34.4780   12.4640  -19.4100 O.3   405  NAD405     -0.2175
     33  C2D       33.6190   14.4150  -20.5010 C.3   405  NAD405      0.2309
     34  O2D       32.9940   13.4080  -21.2640 O.3   405  NAD405     -0.2158
     35  C1D       32.6590   15.0380  -19.4880 C.3   405  NAD405      0.2263
     36  N1N       32.0300   16.2950  -19.9540 N.pl3 405  NAD405     -0.2787
     37  C2N       32.7480   17.3040  -20.5590 C.3   405  NAD405      0.1244
     38  C3N       32.1100   18.4770  -20.9840 C.2   405  NAD405      0.0544
     39  C7N       32.9100   19.7340  -21.1860 C.2   405  NAD405      0.2818
     40  O7N       34.3190   19.6970  -21.1370 O.2   405  NAD405     -0.2670
     41  N7N       32.2600   20.8760  -21.4090 N.am  405  NAD405     -0.0839
     42  C4N       30.7320   18.6120  -20.7850 C.2   405  NAD405      0.0033
     43  C5N       30.0080   17.5960  -20.1640 C.2   405  NAD405      0.0157
     44  C6N       30.6770   16.4410  -19.7490 C.2   405  NAD405      0.0633
@<TRIPOS>BOND
     1     2     1    2
     2    41    39   am
     3    15    14    1
     4    15    16    2
     5    18    17    1
     6    34    33    1
     7    39    40    2
     8    39    38    1
     9     3     1    1
    10    38    42    2
    11    38    37    1
    12     1    23    1
    13     1     4    1
    14    14    13    1
    15    42    43    1
    16    25    24    2
    17    37    36    1
    18    33    31    1
    19    33    35    1
    20     5     4    1
    21     5     6    1
    22    16    17    1
    23    16    22    1
    24    17    19    2
    25    43    44    2
    26    23    24    1
    27    36    44    1
    28    36    35    1
    29    31    32    1
    30    31    29    1
    31    24    27    1
    32    24    26    1
    33    13    22    1
    34    13    12    1
    35    35    30    1
    36     8     6    1
    37     8     9    1
    38     8    10    1
    39    27    28    1
    40     6     7    1
    41    22    21    2
    42     7    12    1
    43    19    20    1
    44    12    10    1
    45    10    11    1
    46    29    30    1
    47    29    28    1
    48    21    20    1
