@<TRIPOS>MOLECULE
3iqe_F42_A_1.pdb
 30 32 0 0 0
SMALL
GASTEIGER

@<TRIPOS>ATOM
      1  N1        -3.3340  -32.5720   10.2520 N.2   285  F42285     -0.2957
      2  C2        -2.8690  -33.4070   11.2040 C.1   285  F42285      0.3661
      3  O2        -2.2120  -34.4090   10.8620 O.2   285  F42285     -0.1745
      4  N3        -2.7850  -32.9820   12.4870 N.2   285  F42285     -0.2365
      5  C4        -3.3650  -31.8130   12.8690 C.1   285  F42285      0.2009
      6  O4        -3.5330  -31.5890   14.0870 O.2   285  F42285     -0.2129
      7  C4A       -3.9560  -31.0070   11.9000 C.3   285  F42285      0.1911
      8  C5        -4.3960  -29.7110   12.1350 C.3   285  F42285      0.0539
      9  C5A       -5.4680  -29.2790   11.3530 C.ar  285  F42285     -0.0067
     10  C6        -6.3190  -28.2600   11.7650 C.ar  285  F42285      0.0003
     11  C7        -7.3820  -27.8710   10.9630 C.ar  285  F42285      0.0418
     12  C8        -7.5960  -28.4990    9.7400 C.ar  285  F42285      0.1970
     13  O8M       -8.6420  -28.1340    8.9620 O.3   285  F42285     -0.2865
     14  C9        -6.7490  -29.5180    9.3240 C.ar  285  F42285      0.0566
     15  C9A       -5.6940  -29.9050   10.1330 C.ar  285  F42285      0.0526
     16  N10       -4.8760  -30.8740    9.7400 N.pl3 285  F42285     -0.2619
     17  C10       -4.1100  -31.5240   10.6260 C.2   285  F42285      0.1960
     18  C1'       -4.6710  -31.0820    8.3060 C.3   285  F42285      0.1331
     19  C2'       -5.6070  -32.2010    7.8770 C.3   285  F42285      0.2048
     20  O2'       -5.2770  -33.3810    8.6190 O.3   285  F42285     -0.2185
     21  C3'       -5.5000  -32.4670    6.3860 C.3   285  F42285      0.2165
     22  O3'       -4.1470  -32.7140    6.0040 O.3   285  F42285     -0.2175
     23  C4'       -5.9720  -31.2850    5.5710 C.3   285  F42285      0.2147
     24  O4'       -7.3280  -30.9800    5.8960 O.3   285  F42285     -0.2176
     25  C5'       -5.8720  -31.6200    4.0870 C.3   285  F42285      0.1892
     26  O5'       -6.9670  -30.9920    3.4370 O.3   285  F42285     -0.2674
     27  P         -7.9170  -31.7610    2.3900 P.3   285  F42285      0.5327
     28  O1P       -7.9790  -33.1900    2.8930 O.3   285  F42285     -0.1145
     29  O2P       -9.2200  -30.9980    2.4270 O.3   285  F42285     -0.1145
     30  O3P       -7.1700  -31.6230    1.0800 O.2   285  F42285     -0.2224
@<TRIPOS>BOND
     1    30    27    2
     2    27    29    1
     3    27    28    1
     4    27    26    1
     5    26    25    1
     6    25    23    1
     7    23    24    1
     8    23    21    1
     9    22    21    1
    10    21    19    1
    11    19    18    1
    12    19    20    1
    13    18    16    1
    14    13    12    1
    15    14    12   ar
    16    14    15   ar
    17    16    15    1
    18    16    17    1
    19    12    11   ar
    20    15     9   ar
    21     1    17    2
    22     1     2    2
    23    17     7    1
    24     3     2    2
    25    11    10   ar
    26     2     4    2
    27     9    10   ar
    28     9     8    1
    29     7     8    1
    30     7     5    1
    31     4     5    2
    32     5     6    2
