@<TRIPOS>MOLECULE
3iqe_H4M_A_1.pdb
 45 49 0 0 0
SMALL
GASTEIGER

@<TRIPOS>ATOM
      1  N1        -3.3770  -26.3110   16.3740 N.2   284  H4M284     -0.2726
      2  C2        -4.4840  -25.6980   15.9460 C.1   284  H4M284      0.2603
      3  NA2       -5.2840  -25.0130   16.8100 N.pl3 284  H4M284     -0.0221
      4  N3        -4.8120  -25.7490   14.6450 N.2   284  H4M284     -0.2515
      5  C4        -4.0450  -26.4100   13.7400 C.1   284  H4M284      0.2219
      6  OH4       -4.4260  -26.4220   12.5530 O.2   284  H4M284     -0.2109
      7  C4A       -2.9160  -27.0710   14.1780 C.3   284  H4M284      0.2774
      8  N5        -2.0610  -27.7910   13.3550 N.3   284  H4M284     -0.2276
      9  C6        -1.3800  -28.9150   13.9810 C.3   284  H4M284      0.1021
     10  C7        -0.5780  -28.3380   15.1520 C.3   284  H4M284      0.1303
     11  C7M        0.1810  -29.4010   15.9350 C.3   284  H4M284      0.0287
     12  N8        -1.4860  -27.6130   16.0250 N.2   284  H4M284     -0.2117
     13  C8A       -2.5970  -27.0190   15.5360 C.1   284  H4M284      0.1049
     14  C9        -0.5790  -29.5310   12.8170 C.3   284  H4M284      0.0907
     15  C9M       -0.3220  -31.0160   13.0400 C.3   284  H4M284      0.0230
     16  C10       -2.3460  -28.2400   12.0100 C.3   284  H4M284      0.1705
     17  N10       -1.4180  -29.2910   11.6340 N.pl3 284  H4M284     -0.2940
     18  C11       -0.3510  -30.0960    7.6320 C.ar  284  H4M284     -0.0195
     19  C12        0.5130  -30.4650    8.6500 C.ar  284  H4M284     -0.0029
     20  C13        0.1720  -30.2030    9.9940 C.ar  284  H4M284      0.0142
     21  C14       -1.0240  -29.5600   10.3010 C.ar  284  H4M284      0.0488
     22  C15       -1.8790  -29.2100    9.2670 C.ar  284  H4M284      0.0142
     23  C16       -1.5470  -29.4710    7.9400 C.ar  284  H4M284     -0.0029
     24  CX1       -0.0420  -30.3960    6.1800 C.3   284  H4M284      0.0620
     25  CX2        1.1920  -29.7040    5.6610 C.3   284  H4M284      0.1891
     26  CX3        1.4630  -30.1820    4.2600 C.3   284  H4M284      0.2150
     27  CX4        2.5950  -29.2570    3.9400 C.3   284  H4M284      0.2141
     28  CX5        3.9390  -29.7260    3.4310 C.3   284  H4M284      0.1803
     29  OX2        1.0150  -28.2860    5.5450 O.3   284  H4M284     -0.2200
     30  OX3        1.7970  -31.5640    4.2930 O.3   284  H4M284     -0.2176
     31  OX4        2.2540  -27.8500    3.9520 O.3   284  H4M284     -0.2176
     32  OX5        4.9970  -28.9090    3.9120 O.3   284  H4M284     -0.3257
     33  O5J        9.8480  -29.6050    2.6000 O.3   284  H4M284     -0.2675
     34  C5J        8.9510  -28.8170    1.8270 C.3   284  H4M284      0.1859
     35  C4J        7.7000  -28.4530    2.6270 C.3   284  H4M284      0.1808
     36  O4J        6.7790  -29.5450    2.6310 O.3   284  H4M284     -0.3257
     37  C3J        7.9390  -28.0890    4.0890 C.3   284  H4M284      0.2167
     38  O3J        7.2510  -26.8770    4.4090 O.3   284  H4M284     -0.2175
     39  C2J        7.2670  -29.1870    4.8920 C.3   284  H4M284      0.2404
     40  O2J        6.7440  -28.7260    6.1590 O.3   284  H4M284     -0.2149
     41  C1J        6.1960  -29.6880    3.9150 C.3   284  H4M284      0.2695
     42  PA        10.9710  -30.5260    1.8930 P.3   284  H4M284      0.5327
     43  O1A       12.2800  -29.7890    2.1020 O.3   284  H4M284     -0.1145
     44  O2A       10.8250  -31.8180    2.6820 O.3   284  H4M284     -0.1145
     45  O3A       10.5580  -30.5950    0.4340 O.2   284  H4M284     -0.2224
@<TRIPOS>BOND
     1    45    42    2
     2    34    33    1
     3    34    35    1
     4    42    43    1
     5    42    33    1
     6    42    44    1
     7    35    36    1
     8    35    37    1
     9    36    41    1
    10    28    32    1
    11    28    27    1
    12    32    41    1
    13    41    39    1
    14    27    31    1
    15    27    26    1
    16    37    38    1
    17    37    39    1
    18    26    30    1
    19    26    25    1
    20    39    40    1
    21    29    25    1
    22    25    24    1
    23    24    18    1
    24    18    23   ar
    25    18    19   ar
    26    23    22   ar
    27    19    20   ar
    28    22    21   ar
    29    20    21   ar
    30    21    17    1
    31    17    16    1
    32    17    14    1
    33    16     8    1
    34     6     5    2
    35    14    15    1
    36    14     9    1
    37     8     9    1
    38     8     7    1
    39     5     7    1
    40     5     4    2
    41     9    10    1
    42     7    13    1
    43     4     2    2
    44    10    11    1
    45    10    12    1
    46    13    12    2
    47    13     1    2
    48     2     1    2
    49     2     3    1
