@<TRIPOS>MOLECULE
3iqf_E4M_A_1.pdb
 45 49 0 0 0
SMALL
GASTEIGER

@<TRIPOS>ATOM
      1  N1         1.0610   26.8210   38.8760 N.2   284  E4M284     -0.2726
      2  C2         1.9530   26.2580   39.7150 C.1   284  E4M284      0.2603
      3  N3         3.2910   26.3430   39.4440 N.2   284  E4M284     -0.2515
      4  C4         3.7520   26.9810   38.3270 C.1   284  E4M284      0.2219
      5  N5         3.1480   28.2300   36.2780 N.3   284  E4M284     -0.2276
      6  C6         2.3060   29.3580   35.8870 C.3   284  E4M284      0.1021
      7  C7         0.9100   28.7460   35.7130 C.3   284  E4M284      0.1303
      8  N8         0.5480   27.9940   36.9170 N.2   284  E4M284     -0.2117
      9  C9         3.0010   29.9520   34.6260 C.3   284  E4M284      0.0907
     10  PA         8.9910   29.6480   18.7990 P.3   284  E4M284      0.5327
     11  C10        4.4700   28.6280   35.8650 C.3   284  E4M284      0.1705
     12  N10        4.4330   29.6700   34.8640 N.pl3 284  E4M284     -0.2940
     13  C11        7.6790   30.3590   32.2370 C.ar  284  E4M284     -0.0195
     14  C12        6.3780   30.6690   31.8410 C.ar  284  E4M284     -0.0029
     15  C13        5.3150   30.4300   32.7050 C.ar  284  E4M284      0.0142
     16  C14        5.5270   29.9060   33.9780 C.ar  284  E4M284      0.0488
     17  C15        6.8460   29.5960   34.3900 C.ar  284  E4M284      0.0142
     18  C16        7.9040   29.8100   33.5110 C.ar  284  E4M284     -0.0029
     19  O2A        7.9740   30.7650   19.0660 O.3   284  E4M284     -0.1145
     20  C1J        8.1600   29.7360   24.4120 C.3   284  E4M284      0.2695
     21  O1A        8.6230   28.6430   17.7150 O.2   284  E4M284     -0.2224
     22  C2J        6.7690   29.2020   24.0740 C.3   284  E4M284      0.2404
     23  O2J        6.0490   28.8230   25.2440 O.3   284  E4M284     -0.2149
     24  O3A       10.4420   30.0780   18.7960 O.3   284  E4M284     -0.1145
     25  C3J        7.0190   28.0650   23.0980 C.3   284  E4M284      0.2167
     26  O3J        7.2470   26.8360   23.7430 O.3   284  E4M284     -0.2175
     27  C4A        2.8140   27.5470   37.4550 C.3   284  E4M284      0.2774
     28  C4J        8.3180   28.4740   22.4300 C.3   284  E4M284      0.1808
     29  O4J        9.0130   29.3240   23.3450 O.3   284  E4M284     -0.3257
     30  C5J        8.0410   29.2710   21.1780 C.3   284  E4M284      0.1859
     31  O5J        8.8710   28.7600   20.1480 O.3   284  E4M284     -0.2675
     32  C7M       -0.1740   29.8010   35.4400 C.3   284  E4M284      0.0287
     33  C8A        1.4660   27.4580   37.7530 C.1   284  E4M284      0.1049
     34  C9M        2.7160   31.4570   34.4820 C.3   284  E4M284      0.0230
     35  NA2        1.4950   25.6390   40.8300 N.pl3 284  E4M284     -0.0221
     36  OH4        4.9900   27.0380   38.0740 O.2   284  E4M284     -0.2109
     37  CX1        8.8440   30.5980   31.2940 C.3   284  E4M284      0.0620
     38  CX2        8.6960   29.8670   29.9680 C.3   284  E4M284      0.1891
     39  OX2        8.9410   28.4600   30.1450 O.3   284  E4M284     -0.2200
     40  CX3        9.7160   30.3650   28.9480 C.3   284  E4M284      0.2150
     41  OX3        9.5580   31.7480   28.6300 O.3   284  E4M284     -0.2176
     42  CX4        9.6050   29.5300   27.6840 C.3   284  E4M284      0.2141
     43  OX4       10.8540   29.5920   27.0060 O.3   284  E4M284     -0.2176
     44  CX5        8.4910   29.9680   26.7610 C.3   284  E4M284      0.1803
     45  OX5        8.6730   29.1680   25.5980 O.3   284  E4M284     -0.3257
@<TRIPOS>BOND
     1    21    10    2
     2    24    10    1
     3    10    19    1
     4    10    31    1
     5    31    30    1
     6    30    28    1
     7    28    25    1
     8    28    29    1
     9    25    26    1
    10    25    22    1
    11    29    20    1
    12    22    20    1
    13    22    23    1
    14    20    45    1
    15    45    44    1
    16    44    42    1
    17    43    42    1
    18    42    40    1
    19    41    40    1
    20    40    38    1
    21    38    39    1
    22    38    37    1
    23    37    13    1
    24    14    13   ar
    25    14    15   ar
    26    13    18   ar
    27    15    16   ar
    28    18    17   ar
    29    16    17   ar
    30    16    12    1
    31    34     9    1
    32     9    12    1
    33     9     6    1
    34    12    11    1
    35    32     7    1
    36     7     6    1
    37     7     8    1
    38    11     5    1
    39     6     5    1
    40     5    27    1
    41     8    33    2
    42    27    33    1
    43    27     4    1
    44    33     1    2
    45    36     4    2
    46     4     3    2
    47     1     2    2
    48     3     2    2
    49     2    35    1
