@<TRIPOS>MOLECULE
3iqg_III_P_1.pdb
 39 40 0 0 0
SMALL
GASTEIGER

@<TRIPOS>ATOM
      1  N         20.1290    3.6680   44.6890 N.3   264  ASN264     -0.1225
      2  CA        20.2480    4.4650   43.4260 C.3   264  ASN264      0.1785
      3  C         20.6970    3.5960   42.2510 C.2   264  ASN264      0.2597
      4  O         20.5100    3.9700   41.0880 O.2   264  ASN264     -0.2718
      5  CB        21.1770    5.6770   43.6070 C.3   264  ASN264      0.1169
      6  CG        22.4540    5.3390   44.3740 C.2   264  ASN264      0.2627
      7  OD1       22.4830    4.4120   45.1930 O.2   264  ASN264     -0.2716
      8  ND2       23.5150    6.1050   44.1250 N.am  264  ASN264     -0.0877
      9  N         21.2790    2.4390   42.5680 N.am  265  TRP265     -0.1962
     10  CA        21.6280    1.4290   41.5620 C.3   265  TRP265      0.1768
     11  C         20.4930    0.4130   41.3700 C.2   265  TRP265      0.2620
     12  O         20.5750   -0.4630   40.5000 O.2   265  TRP265     -0.2715
     13  CB        22.9220    0.6900   41.9400 C.3   265  TRP265      0.0553
     14  CG        24.1360    1.5680   42.1060 C.2   265  TRP265     -0.0136
     15  CD1       24.2570    2.8920   41.7640 C.2   265  TRP265      0.0907
     16  CD2       25.4190    1.1680   42.6240 C.3   265  TRP265      0.0819
     17  NE1       25.5250    3.3400   42.0540 N.2   265  TRP265     -0.2482
     18  CE2       26.2630    2.3060   42.5740 C.2   265  TRP265      0.0665
     19  CE3       25.9340   -0.0390   43.1290 C.2   265  TRP265     -0.0164
     20  CZ2       27.6010    2.2730   43.0090 C.2   265  TRP265      0.0153
     21  CZ3       27.2640   -0.0720   43.5630 C.2   265  TRP265     -0.0038
     22  CH2       28.0800    1.0840   43.5000 C.2   265  TRP265      0.0009
     23  N         19.4490    0.5150   42.1930 N.am  266  ASN266     -0.1958
     24  CA        18.2720   -0.3360   42.0150 C.3   266  ASN266      0.1819
     25  C         17.3950    0.2290   40.8910 C.2   266  ASN266      0.2622
     26  O         16.4160    0.9510   41.1180 O.2   266  ASN266     -0.2715
     27  CB        17.5010   -0.5310   43.3180 C.3   266  ASN266      0.1195
     28  CG        16.6470   -1.7940   43.3100 C.2   266  ASN266      0.2630
     29  OD1       16.9960   -2.8090   42.6800 O.2   266  ASN266     -0.2716
     30  ND2       15.5160   -1.7370   44.0060 N.am  266  ASN266     -0.0877
     31  N         17.7980   -0.0880   39.6650 N.am  267  ILE267     -0.1941
     32  CA        17.1540    0.4080   38.4580 C.3   267  ILE267      0.1977
     33  C         16.4540   -0.7850   37.7910 C.2   267  ILE267      0.3842
     34  O         16.8610   -1.9300   37.9780 O.co2 267  ILE267     -0.2437
     35  CB        18.2000    1.1310   37.5540 C.3   267  ILE267      0.0311
     36  CG1       18.3330    2.6010   38.0010 C.3   267  ILE267      0.0023
     37  CG2       17.8410    1.0360   36.0890 C.3   267  ILE267      0.0023
     38  CD1       19.5350    3.3640   37.4130 C.3   267  ILE267      0.0001
     39  OXT       15.4410   -0.6400   37.1060 O.co2 267  ILE267     -0.2437
@<TRIPOS>BOND
     1    37    35    1
     2    39    33   ar
     3    38    36    1
     4    35    36    1
     5    35    32    1
     6    33    34   ar
     7    33    32    1
     8    32    31    1
     9    31    25   am
    10    12    11    2
    11    25    26    2
    12    25    24    1
    13     4     3    2
    14    11    10    1
    15    11    23   am
    16    10    13    1
    17    10     9    1
    18    15    17    1
    19    15    14    2
    20    13    14    1
    21    24    23    1
    22    24    27    1
    23    17    18    2
    24    14    16    1
    25     3     9   am
    26     3     2    1
    27    18    16    1
    28    18    20    1
    29    16    19    1
    30    29    28    2
    31    20    22    2
    32    19    21    2
    33    28    27    1
    34    28    30   am
    35     2     5    1
    36     2     1    1
    37    22    21    1
    38     5     6    1
    39     8     6   am
    40     6     7    2
