@<TRIPOS>MOLECULE
3iqh_III_P_1.pdb
 29 29 0 0 0
SMALL
GASTEIGER

@<TRIPOS>ATOM
      1  N         20.2970    3.5360   44.1210 N.3   265  TYR265     -0.1227
      2  CA        19.4670    3.8070   42.9050 C.3   265  TYR265      0.1736
      3  C         18.4550    2.6850   42.6430 C.2   265  TYR265      0.2595
      4  O         18.6630    1.5370   43.0550 O.2   265  TYR265     -0.2718
      5  CB        20.3460    4.0420   41.6630 C.3   265  TYR265      0.0548
      6  CG        21.3870    2.9590   41.4110 C.ar  265  TYR265     -0.0200
      7  CD1       21.0550    1.7850   40.7180 C.ar  265  TYR265     -0.0009
      8  CD2       22.7030    3.1060   41.8740 C.ar  265  TYR265     -0.0009
      9  CE1       22.0060    0.7920   40.4910 C.ar  265  TYR265      0.0417
     10  CE2       23.6620    2.1130   41.6580 C.ar  265  TYR265      0.0417
     11  CZ        23.3020    0.9620   40.9700 C.ar  265  TYR265      0.1957
     12  OH        24.2390   -0.0150   40.7480 O.3   265  TYR265     -0.2866
     13  N         17.3650    3.0320   41.9510 N.am  266  ASP266     -0.1960
     14  CA        16.2510    2.1160   41.6940 C.3   266  ASP266      0.1840
     15  C         16.1090    1.8090   40.1970 C.2   266  ASP266      0.2623
     16  O         15.1830    2.3040   39.5500 O.2   266  ASP266     -0.2715
     17  CB        14.9300    2.6980   42.2520 C.3   266  ASP266      0.1450
     18  CG        14.9950    3.0120   43.7620 C.2   266  ASP266      0.3671
     19  OD1       15.8830    3.7790   44.2040 O.co2 266  ASP266     -0.2456
     20  OD2       14.1310    2.5070   44.5090 O.co2 266  ASP266     -0.2456
     21  N         17.0040    0.9870   39.6510 N.am  267  ILE267     -0.1941
     22  CA        17.0230    0.7600   38.1940 C.3   267  ILE267      0.1977
     23  C         16.7090   -0.6810   37.7510 C.2   267  ILE267      0.3842
     24  O         17.4310   -1.6500   38.0150 O.co2 267  ILE267     -0.2437
     25  CB        18.3100    1.3370   37.5140 C.3   267  ILE267      0.0311
     26  CG1       18.4460    2.8430   37.8420 C.3   267  ILE267      0.0023
     27  CG2       18.2650    1.1100   36.0000 C.3   267  ILE267      0.0023
     28  CD1       19.7770    3.5150   37.4440 C.3   267  ILE267      0.0001
     29  OXT       15.6870   -0.8870   37.0990 O.co2 267  ILE267     -0.2437
@<TRIPOS>BOND
     1    27    25    1
     2    29    23   ar
     3    28    26    1
     4    25    26    1
     5    25    22    1
     6    23    24   ar
     7    23    22    1
     8    22    21    1
     9    16    15    2
    10    21    15   am
    11    15    14    1
    12     9     7   ar
    13     9    11   ar
    14     7     6   ar
    15    12    11    1
    16    11    10   ar
    17     6     5    1
    18     6     8   ar
    19    10     8   ar
    20     5     2    1
    21    14    13    1
    22    14    17    1
    23    13     3   am
    24    17    18    1
    25     3     2    1
    26     3     4    2
    27     2     1    1
    28    18    19   ar
    29    18    20   ar
