@<TRIPOS>MOLECULE
3iqi_III_P_1.pdb
 34 33 0 0 0
SMALL
GASTEIGER

@<TRIPOS>ATOM
      1  N         20.6030    6.2310   43.1260 N.3   264  ASN264     -0.1225
      2  CA        20.7450    4.7870   43.4690 C.3   264  ASN264      0.1785
      3  C         20.6470    3.8610   42.2450 C.2   264  ASN264      0.2597
      4  O         19.9280    4.1560   41.2800 O.2   264  ASN264     -0.2718
      5  CB        19.7310    4.4140   44.5580 C.3   264  ASN264      0.1169
      6  CG        19.4910    2.9250   44.6570 C.2   264  ASN264      0.2627
      7  OD1       18.7370    2.3640   43.8720 O.2   264  ASN264     -0.2716
      8  ND2       20.1120    2.2820   45.6450 N.am  264  ASN264     -0.0877
      9  N         21.3750    2.7450   42.3080 N.am  265  GLU265     -0.1965
     10  CA        21.5020    1.7980   41.1960 C.3   265  GLU265      0.1733
     11  C         20.4330    0.6850   41.1650 C.2   265  GLU265      0.2616
     12  O         20.5380   -0.2590   40.3660 O.2   265  GLU265     -0.2715
     13  CB        22.9160    1.1900   41.1750 C.3   265  GLU265      0.0429
     14  CG        23.2110    0.2060   42.3130 C.3   265  GLU265      0.1163
     15  CD        23.7950    0.8670   43.5580 C.2   265  GLU265      0.3649
     16  OE1       23.2560    1.9010   44.0260 O.co2 265  GLU265     -0.2457
     17  OE2       24.7980    0.3300   44.0830 O.co2 265  GLU265     -0.2457
     18  N         19.4180    0.7820   42.0250 N.am  266  ASN266     -0.1958
     19  CA        18.2830   -0.1540   41.9620 C.3   266  ASN266      0.1819
     20  C         17.3090    0.2380   40.8550 C.2   266  ASN266      0.2622
     21  O         16.1520    0.5940   41.0980 O.2   266  ASN266     -0.2715
     22  CB        17.5580   -0.2970   43.2980 C.3   266  ASN266      0.1195
     23  CG        16.7180   -1.5590   43.3670 C.2   266  ASN266      0.2630
     24  OD1       17.0550   -2.5810   42.7540 O.2   266  ASN266     -0.2716
     25  ND2       15.6250   -1.5010   44.1150 N.am  266  ASN266     -0.0877
     26  N         17.8050    0.1290   39.6300 N.am  267  ILE267     -0.1941
     27  CA        17.1240    0.5830   38.4290 C.3   267  ILE267      0.1977
     28  C         16.5150   -0.6430   37.7350 C.2   267  ILE267      0.3842
     29  O         15.4130   -0.6210   37.1860 O.co2 267  ILE267     -0.2437
     30  CB        18.1510    1.3610   37.5510 C.3   267  ILE267      0.0311
     31  CG1       18.3860    2.7610   38.1610 C.3   267  ILE267      0.0023
     32  CG2       17.7170    1.4540   36.0900 C.3   267  ILE267      0.0023
     33  CD1       19.5790    3.5320   37.5530 C.3   267  ILE267      0.0001
     34  OXT       17.1180   -1.7090   37.7530 O.co2 267  ILE267     -0.2437
@<TRIPOS>BOND
     1    32    30    1
     2    29    28   ar
     3    30    31    1
     4    30    27    1
     5    33    31    1
     6    28    34   ar
     7    28    27    1
     8    27    26    1
     9    26    20   am
    10    12    11    2
    11    20    21    2
    12    20    19    1
    13    11    10    1
    14    11    18   am
    15    13    10    1
    16    13    14    1
    17    10     9    1
    18     4     3    2
    19    19    18    1
    20    19    22    1
    21     3     9   am
    22     3     2    1
    23    14    15    1
    24    24    23    2
    25     1     2    1
    26    22    23    1
    27    23    25   am
    28     2     5    1
    29    15    16   ar
    30    15    17   ar
    31     7     6    2
    32     5     6    1
    33     6     8   am
