@<TRIPOS>MOLECULE
3iqv_FSC_A_1.pdb
 42 45 0 0 0
SMALL
GASTEIGER

@<TRIPOS>ATOM
      1  C1       -17.6430  -19.2620   -0.6900 C.2   232  FSC232     -0.0172
      2  C4       -16.5720  -18.5700   -0.2740 C.2   232  FSC232     -0.0447
      3  C11      -15.0860  -18.9010   -0.4950 C.3   232  FSC232      0.0509
      4  C18      -14.3920  -19.1290    0.8430 C.3   232  FSC232      0.0070
      5  C17      -14.4050  -17.8080   -1.2670 C.3   232  FSC232      0.1860
      6  O24      -13.1360  -18.2550   -1.8160 O.3   232  FSC232     -0.2201
      7  C10      -16.9770  -17.3440    0.4600 C.3   232  FSC232      0.0551
      8  C6       -18.4150  -17.2110    0.0460 C.3   232  FSC232      0.1630
      9  O13      -19.2080  -16.3970    0.9200 O.3   232  FSC232     -0.2221
     10  C2       -18.9310  -18.6410   -0.2110 C.3   232  FSC232      0.0632
     11  C7       -20.0430  -18.6430   -1.2710 C.3   232  FSC232      0.0110
     12  C5       -19.4840  -19.2070    1.0610 C.2   232  FSC232     -0.0289
     13  C12      -19.1080  -20.2500    1.8340 C.2   232  FSC232     -0.0462
     14  C20      -19.8890  -20.6420    3.0450 C.3   232  FSC232      0.0476
     15  C27      -21.4010  -20.7160    2.8230 C.3   232  FSC232      0.1462
     16  O32      -22.0590  -21.0200    4.0330 O.3   232  FSC232     -0.3508
     17  C38      -23.5000  -21.1350    3.9040 C.3   232  FSC232      0.1741
     18  C26      -19.2910  -21.9800    3.4900 C.3   232  FSC232      0.0069
     19  C25      -17.8660  -21.8910    3.0100 C.3   232  FSC232      0.0045
     20  C19      -17.9270  -21.1910    1.6490 C.3   232  FSC232      0.0206
     21  C15      -18.0300  -22.1980    0.4700 C.3   232  FSC232      0.0370
     22  C23      -19.4580  -22.5330   -0.0110 C.3   232  FSC232      0.0030
     23  C9       -17.1250  -21.7680   -0.7510 C.3   232  FSC232      0.1831
     24  O16      -16.9900  -22.8920   -1.5950 O.3   232  FSC232     -0.2202
     25  C3       -17.6240  -20.5050   -1.4930 C.3   232  FSC232      0.1661
     26  O8       -16.7230  -20.3420   -2.6430 O.3   232  FSC232     -0.3242
     27  C14      -17.3300  -20.4470   -3.9360 C.3   232  FSC232      0.2698
     28  O22      -18.1020  -19.2800   -4.1870 O.3   232  FSC232     -0.3257
     29  C30      -17.4270  -18.0440   -4.1860 C.3   232  FSC232      0.1801
     30  C33      -16.2280  -18.0350   -5.1690 C.3   232  FSC232      0.2143
     31  O39      -15.4880  -16.8410   -4.9070 O.3   232  FSC232     -0.2176
     32  C28      -15.3670  -19.3090   -4.9500 C.3   232  FSC232      0.2198
     33  O34      -14.3900  -19.4020   -6.0110 O.3   232  FSC232     -0.2174
     34  C21      -16.2730  -20.5390   -4.9740 C.3   232  FSC232      0.2406
     35  O29      -15.4750  -21.7330   -4.7670 O.3   232  FSC232     -0.2149
     36  C35      -18.3970  -16.9410   -4.5250 C.3   232  FSC232      0.1745
     37  O41      -18.7810  -17.1230   -5.8910 O.3   232  FSC232     -0.3518
     38  C44      -19.5130  -16.0450   -6.4660 C.3   232  FSC232      0.1114
     39  C47      -19.6400  -16.3410   -7.9630 C.3   232  FSC232      0.0342
     40  C46      -18.8850  -14.6500   -6.2010 C.3   232  FSC232      0.0342
     41  C45      -20.9400  -16.0580   -5.8570 C.2   232  FSC232      0.0002
     42  C48      -21.4740  -14.9470   -5.3880 C.2   232  FSC232     -0.0025
@<TRIPOS>BOND
     1    39    38    1
     2    38    40    1
     3    38    37    1
     4    38    41    1
     5    33    32    1
     6    37    36    1
     7    41    42    2
     8    30    32    1
     9    30    31    1
    10    30    29    1
    11    34    32    1
    12    34    35    1
    13    34    27    1
    14    36    29    1
    15    28    29    1
    16    28    27    1
    17    27    26    1
    18    26    25    1
    19     6     5    1
    20    24    23    1
    21    25    23    1
    22    25     1    1
    23    11    10    1
    24     5     3    1
    25    23    21    1
    26     1     2    2
    27     1    10    1
    28     3     2    1
    29     3     4    1
    30     2     7    1
    31    10     8    1
    32    10    12    1
    33    22    21    1
    34     8     7    1
    35     8     9    1
    36    21    20    1
    37    12    13    2
    38    20    13    1
    39    20    19    1
    40    13    14    1
    41    15    14    1
    42    15    16    1
    43    19    18    1
    44    14    18    1
    45    17    16    1
