@<TRIPOS>MOLECULE
3iqw_ANP_A_1.pdb
 31 33 0 0 0
SMALL
GASTEIGER

@<TRIPOS>ATOM
      1  PG       -11.4640   15.1440  -22.6750 P.3     1  ANP1        0.4884
      2  O1G      -10.4130   14.6880  -23.7010 O.2     1  ANP1       -0.2331
      3  O2G      -10.8710   15.4720  -21.2840 O.3     1  ANP1       -0.1240
      4  O3G      -12.7180   14.2780  -22.5690 O.3     1  ANP1       -0.1240
      5  PB       -13.0780   17.5520  -22.2940 P.3     1  ANP1        0.4669
      6  O1B      -14.3540   16.7750  -22.0300 O.2     1  ANP1       -0.2351
      7  O2B      -12.3030   18.0090  -21.0710 O.3     1  ANP1       -0.1253
      8  N3B      -12.0710   16.6270  -23.3560 N.3     1  ANP1       -0.0163
      9  PA       -12.5700   20.1640  -22.9670 P.3     1  ANP1        0.2220
     10  O1A      -12.8980   20.8740  -21.6370 O.3     1  ANP1       -0.4370
     11  O2A      -11.1050   19.9220  -23.2550 O.2     1  ANP1       -0.5170
     12  O3A      -13.3900   18.8190  -23.2030 O.3     1  ANP1       -0.2360
     13  O5'      -13.1710   20.9850  -24.2350 O.3     1  ANP1       -0.3111
     14  C5'      -12.5000   20.5870  -25.4310 C.3     1  ANP1        0.1813
     15  C4'      -12.2950   21.7490  -26.3930 C.3     1  ANP1        0.1821
     16  O4'      -13.5600   22.3360  -26.5610 O.3     1  ANP1       -0.3135
     17  C3'      -11.4540   22.8510  -25.8350 C.3     1  ANP1        0.2184
     18  O3'      -10.9030   23.4230  -27.0080 O.3     1  ANP1       -0.2174
     19  C2'      -12.4570   23.8560  -25.3300 C.3     1  ANP1        0.2570
     20  O2'      -11.9190   25.1720  -25.4490 O.3     1  ANP1       -0.2130
     21  C1'      -13.5290   23.7270  -26.3570 C.3     1  ANP1        0.3186
     22  N9       -14.8650   24.0690  -25.8530 N.pl3   1  ANP1       -0.1439
     23  C8       -15.5570   23.3820  -24.8950 C.3     1  ANP1        0.3377
     24  N7       -16.7950   23.9500  -24.6890 N.2     1  ANP1       -0.2095
     25  C5       -16.8720   24.9850  -25.5220 C.2     1  ANP1        0.2526
     26  C6       -17.9010   25.9620  -25.7750 C.2     1  ANP1        0.4393
     27  N6       -19.0720   25.8770  -25.0460 N.pl3   1  ANP1        0.2180
     28  N1       -17.6270   26.8750  -26.7500 N.2     1  ANP1        0.0021
     29  C2       -16.4660   26.8690  -27.4090 C.3     1  ANP1        0.5254
     30  N3       -15.4730   25.9930  -27.2040 N.2     1  ANP1       -0.0055
     31  C4       -15.6330   25.0540  -26.2910 C.2     1  ANP1        0.3518
@<TRIPOS>BOND
     1    29    30    1
     2    29    28    1
     3    30    31    2
     4    18    17    1
     5    28    26    2
     6    16    15    1
     7    16    21    1
     8    15    17    1
     9    15    14    1
    10    21    22    1
    11    21    19    1
    12    31    22    1
    13    31    25    1
    14    22    23    1
    15    17    19    1
    16    26    25    1
    17    26    27    1
    18    25    24    2
    19    20    19    1
    20    14    13    1
    21    23    24    1
    22    13     9    1
    23     2     1    2
    24     8     1    1
    25     8     5    1
    26    11     9    2
    27    12     9    1
    28    12     5    1
    29     9    10    1
    30     1     4    1
    31     1     3    1
    32     5     6    2
    33     5     7    1
