@<TRIPOS>MOLECULE
3iqx_ADP_A_1.pdb
 27 29 0 0 0
SMALL
GASTEIGER

@<TRIPOS>ATOM
      1  PB       -13.2100  -17.5110   22.2860 P.3     1  ADP1        0.5373
      2  O1B      -14.5540  -16.8540   21.9970 O.3     1  ADP1       -0.1143
      3  O2B      -12.5140  -18.0940   21.0720 O.2     1  ADP1       -0.2221
      4  O3B      -12.3420  -16.5300   23.0690 O.3     1  ADP1       -0.1143
      5  PA       -12.8720  -20.2710   23.1250 P.3     1  ADP1        0.2231
      6  O1A      -13.3820  -20.9830   21.8920 O.2     1  ADP1       -0.5169
      7  O2A      -11.3860  -20.0480   23.2590 O.3     1  ADP1       -0.4370
      8  O3A      -13.5880  -18.8180   23.2210 O.3     1  ADP1       -0.2261
      9  O5'      -13.2860  -21.1920   24.3810 O.3     1  ADP1       -0.3111
     10  C5'      -12.7580  -20.8080   25.6410 C.3     1  ADP1        0.1813
     11  C4'      -12.4200  -21.9990   26.5060 C.3     1  ADP1        0.1821
     12  O4'      -13.5730  -22.7770   26.8270 O.3     1  ADP1       -0.3135
     13  C3'      -11.5630  -22.9410   25.7580 C.3     1  ADP1        0.2184
     14  O3'      -11.1880  -23.8310   26.8140 O.3     1  ADP1       -0.2174
     15  C2'      -12.6290  -23.6170   24.9490 C.3     1  ADP1        0.2570
     16  O2'      -12.1130  -24.8130   24.3590 O.3     1  ADP1       -0.2130
     17  C1'      -13.5600  -23.9830   26.0770 C.3     1  ADP1        0.3186
     18  N9       -14.9510  -24.2840   25.6790 N.pl3   1  ADP1       -0.1439
     19  C8       -15.6560  -23.5610   24.8020 C.3     1  ADP1        0.3377
     20  N7       -16.9040  -24.0700   24.6740 N.2     1  ADP1       -0.2095
     21  C5       -17.0000  -25.1290   25.4700 C.2     1  ADP1        0.2526
     22  C6       -18.0520  -26.0790   25.7860 C.2     1  ADP1        0.4393
     23  N6       -19.2430  -25.9340   25.1720 N.pl3   1  ADP1        0.2180
     24  N1       -17.7950  -27.0580   26.6750 N.2     1  ADP1        0.0021
     25  C2       -16.5940  -27.1620   27.2410 C.3     1  ADP1        0.5254
     26  N3       -15.5890  -26.3070   26.9930 N.2     1  ADP1       -0.0055
     27  C4       -15.7240  -25.2770   26.1370 C.2     1  ADP1        0.3518
@<TRIPOS>BOND
     1     3     1    2
     2     6     5    2
     3     2     1    1
     4     1     4    1
     5     1     8    1
     6     5     8    1
     7     5     7    1
     8     5     9    1
     9    16    15    1
    10     9    10    1
    11    20    19    1
    12    20    21    2
    13    19    18    1
    14    15    13    1
    15    15    17    1
    16    23    22    1
    17    21    22    1
    18    21    27    1
    19    10    11    1
    20    18    17    1
    21    18    27    1
    22    13    11    1
    23    13    14    1
    24    22    24    2
    25    17    12    1
    26    27    26    2
    27    11    12    1
    28    24    25    1
    29    26    25    1
