@<TRIPOS>MOLECULE
3iqz_H4M_A_1.pdb
 45 49 0 0 0
SMALL
GASTEIGER

@<TRIPOS>ATOM
      1  N1        -3.3820  -26.9960   15.9680 N.2   284  H4M284     -0.2726
      2  C2        -4.6080  -26.5810   15.5780 C.1   284  H4M284      0.2603
      3  NA2       -5.4370  -25.9640   16.4470 N.pl3 284  H4M284     -0.0221
      4  N3        -5.0330  -26.7820   14.3180 N.2   284  H4M284     -0.2515
      5  C4        -4.2560  -27.3950   13.4040 C.1   284  H4M284      0.2219
      6  OH4       -4.6900  -27.5650   12.2390 O.2   284  H4M284     -0.2109
      7  C4A       -2.9950  -27.8280   13.7780 C.3   284  H4M284      0.2774
      8  N5        -2.1260  -28.4830   12.8920 N.3   284  H4M284     -0.2276
      9  C6        -1.1820  -29.4130   13.4730 C.3   284  H4M284      0.1021
     10  C7        -0.4090  -28.5620   14.4770 C.3   284  H4M284      0.1303
     11  C7M        0.6700  -29.4200   15.1160 C.3   284  H4M284      0.0287
     12  N8        -1.3340  -28.0360   15.4760 N.2   284  H4M284     -0.2117
     13  C8A       -2.5670  -27.6190   15.0890 C.1   284  H4M284      0.1049
     14  C9        -0.3500  -29.8620   12.2760 C.3   284  H4M284      0.0907
     15  C9M        0.0820  -31.3140   12.4460 C.3   284  H4M284      0.0230
     16  C10       -2.4610  -28.9840   11.5650 C.3   284  H4M284      0.1705
     17  N10       -1.2930  -29.7770   11.1680 N.pl3 284  H4M284     -0.2940
     18  C11       -0.0340  -30.1800    7.1690 C.ar  284  H4M284     -0.0195
     19  C12        0.8670  -30.4190    8.2150 C.ar  284  H4M284     -0.0029
     20  C13        0.4500  -30.2820    9.5450 C.ar  284  H4M284      0.0142
     21  C14       -0.8640  -29.9140    9.8370 C.ar  284  H4M284      0.0488
     22  C15       -1.7560  -29.6890    8.7860 C.ar  284  H4M284      0.0142
     23  C16       -1.3430  -29.8210    7.4680 C.ar  284  H4M284     -0.0029
     24  CX1        0.3660  -30.3360    5.7170 C.3   284  H4M284      0.0620
     25  CX2        1.5850  -29.5110    5.3380 C.3   284  H4M284      0.1891
     26  CX3        2.1650  -29.9820    3.9980 C.3   284  H4M284      0.2150
     27  CX4        3.2970  -29.0920    3.5070 C.3   284  H4M284      0.2141
     28  CX5        4.6590  -29.5740    4.0090 C.3   284  H4M284      0.1803
     29  OX2        1.1910  -28.1330    5.2410 O.3   284  H4M284     -0.2200
     30  OX3        2.7140  -31.2800    4.1500 O.3   284  H4M284     -0.2176
     31  OX4        3.2840  -29.0680    2.0660 O.3   284  H4M284     -0.2176
     32  OX5        5.6730  -28.7600    3.4200 O.3   284  H4M284     -0.3257
     33  O5J       10.2370  -28.3840    1.0810 O.3   284  H4M284     -0.2675
     34  C5J        9.9720  -27.9320    2.3970 C.3   284  H4M284      0.1859
     35  C4J        8.4830  -27.7070    2.6040 C.3   284  H4M284      0.1808
     36  O4J        7.6680  -28.8360    2.2520 O.3   284  H4M284     -0.3257
     37  C3J        8.3230  -27.4940    4.0950 C.3   284  H4M284      0.2167
     38  O3J        7.4220  -26.3990    4.2920 O.3   284  H4M284     -0.2175
     39  C2J        7.7920  -28.8400    4.5700 C.3   284  H4M284      0.2404
     40  O2J        7.0120  -28.7280    5.7590 O.3   284  H4M284     -0.2149
     41  C1J        6.9710  -29.3490    3.3860 C.3   284  H4M284      0.2695
     42  PA        11.0160  -29.7820    0.8130 P.3   284  H4M284      0.5327
     43  O1A       12.3450  -29.2680    0.2980 O.3   284  H4M284     -0.1145
     44  O2A       11.0780  -30.5100    2.1520 O.3   284  H4M284     -0.1145
     45  O3A       10.1480  -30.4880   -0.2120 O.2   284  H4M284     -0.2224
@<TRIPOS>BOND
     1    45    42    2
     2    43    42    1
     3    42    33    1
     4    42    44    1
     5    33    34    1
     6    31    27    1
     7    36    35    1
     8    36    41    1
     9    34    35    1
    10    35    37    1
    11    41    32    1
    12    41    39    1
    13    32    28    1
    14    27    26    1
    15    27    28    1
    16    26    30    1
    17    26    25    1
    18    37    38    1
    19    37    39    1
    20    39    40    1
    21    29    25    1
    22    25    24    1
    23    24    18    1
    24    18    23   ar
    25    18    19   ar
    26    23    22   ar
    27    19    20   ar
    28    22    21   ar
    29    20    21   ar
    30    21    17    1
    31    17    16    1
    32    17    14    1
    33    16     8    1
    34     6     5    2
    35    14    15    1
    36    14     9    1
    37     8     9    1
    38     8     7    1
    39     5     7    1
    40     5     4    2
    41     9    10    1
    42     7    13    1
    43     4     2    2
    44    10    11    1
    45    10    12    1
    46    13    12    2
    47    13     1    2
    48     2     1    2
    49     2     3    1
