@<TRIPOS>MOLECULE
3ir4_GSH_A_1.pdb
 20 19 0 0 0
SMALL
GASTEIGER

@<TRIPOS>ATOM
      1  N1       -11.1150    1.7670   23.2730 N.3   216  GSH216     -0.1208
      2  CA1      -11.8660    0.5720   23.6800 C.3   216  GSH216      0.1948
      3  C1       -11.1200   -0.6640   23.2550 C.2   216  GSH216      0.3819
      4  O11      -10.3500   -0.5580   22.2620 O.co2 216  GSH216     -0.2441
      5  O12      -11.3100   -1.7230   23.8830 O.co2 216  GSH216     -0.2441
      6  CB1      -13.2480    0.6330   23.0450 C.3   216  GSH216      0.0402
      7  CG1      -14.1750   -0.4270   23.6380 C.3   216  GSH216      0.0889
      8  CD1      -15.6450   -0.1960   23.3600 C.2   216  GSH216      0.2418
      9  OE1      -16.0280    0.8240   22.5690 O.2   216  GSH216     -0.2733
     10  N2       -16.5220   -1.0390   23.8440 N.am  216  GSH216     -0.1968
     11  CA2      -17.9680   -0.8430   23.8180 C.3   216  GSH216      0.1843
     12  C2       -18.4730   -0.5600   25.1940 C.2   216  GSH216      0.2627
     13  O2       -17.9190   -1.1850   26.2290 O.2   216  GSH216     -0.2714
     14  CB2      -18.6880   -2.0750   23.2220 C.3   216  GSH216      0.0997
     15  SG2      -18.3370   -2.4350   21.4690 S.3   216  GSH216     -0.0797
     16  N3       -19.4840    0.2580   25.3440 N.am  216  GSH216     -0.1917
     17  CA3      -19.8480    0.7960   26.6310 C.3   216  GSH216      0.2285
     18  C3       -21.2150    0.3380   26.9730 C.2   216  GSH216      0.3865
     19  O31      -21.7250   -0.6130   26.3030 O.co2 216  GSH216     -0.2437
     20  O32      -21.8080    0.9100   27.9230 O.co2 216  GSH216     -0.2437
@<TRIPOS>BOND
     1    15    14    1
     2     4     3   ar
     3     9     8    2
     4     6     7    1
     5     6     2    1
     6    14    11    1
     7     3     2    1
     8     3     5   ar
     9     1     2    1
    10     8     7    1
    11     8    10   am
    12    11    10    1
    13    11    12    1
    14    12    16   am
    15    12    13    2
    16    16    17    1
    17    19    18   ar
    18    17    18    1
    19    18    20   ar
