@<TRIPOS>MOLECULE
3ir5_MD1_A_1.pdb
 47 51 0 0 0
SMALL
GASTEIGER

@<TRIPOS>ATOM
      1  PB      -123.6110  -63.2910  -23.9710 P.3   1247  MD11247     0.2189
      2  O3B     -124.9060  -62.3390  -23.7340 O.3   1247  MD11247    -0.2703
      3  O1B     -123.9720  -64.3460  -24.9440 O.2   1247  MD11247    -0.5170
      4  O2B     -122.4570  -62.4870  -24.3480 O.3   1247  MD11247    -0.4371
      5  O3A     -123.3370  -64.0170  -22.5700 O.3   1247  MD11247    -0.3108
      6  C10     -124.2390  -64.8640  -21.8770 C.3   1247  MD11247     0.1870
      7  C11     -123.3710  -65.2990  -20.6690 C.3   1247  MD11247     0.2107
      8  O11     -122.9710  -64.0890  -19.9900 O.3   1247  MD11247    -0.2150
      9  C12     -124.1770  -66.2510  -19.6750 C.2   1247  MD11247     0.0503
     10  S12     -125.7800  -66.8570  -20.0980 S.3   1247  MD11247    -0.0525
     11  C13     -123.7030  -66.6800  -18.4030 C.2   1247  MD11247     0.0425
     12  S13     -124.8020  -67.6950  -17.4680 S.3   1247  MD11247    -0.0531
     13  C14     -122.3680  -66.3870  -17.7060 C.3   1247  MD11247     0.1588
     14  N15     -122.7680  -65.6600  -16.4960 N.2   1247  MD11247    -0.2437
     15  C16     -121.7420  -65.2220  -15.6670 C.2   1247  MD11247     0.2466
     16  C15     -121.9510  -65.0690  -14.2680 C.1   1247  MD11247     0.2441
     17  O14     -123.0500  -65.3260  -13.7550 O.2   1247  MD11247    -0.2063
     18  N17     -120.8460  -64.6080  -13.5020 N.2   1247  MD11247    -0.2474
     19  C17     -119.5790  -64.3010  -14.0440 C.1   1247  MD11247     0.2608
     20  N16     -118.6030  -63.8750  -13.2350 N.pl3 1247  MD11247    -0.0220
     21  N18     -119.3930  -64.4520  -15.3820 N.2   1247  MD11247    -0.2683
     22  C20     -120.4050  -64.8970  -16.2240 C.1   1247  MD11247     0.1270
     23  N8      -120.1590  -65.0390  -17.6040 N.2   1247  MD11247    -0.2051
     24  C7      -121.2960  -65.5310  -18.4540 C.3   1247  MD11247     0.1666
     25  PA      -125.0860  -60.7550  -23.8380 P.3   1247  MD11247     0.2189
     26  O1A     -124.0550  -60.1560  -22.9830 O.3   1247  MD11247    -0.4371
     27  O2A     -126.5130  -60.4050  -23.5560 O.2   1247  MD11247    -0.5170
     28  O5'     -124.6910  -60.6590  -25.4030 O.3   1247  MD11247    -0.3112
     29  C5'     -125.6520  -60.3060  -26.3880 C.3   1247  MD11247     0.1813
     30  C4'     -124.9960  -59.4810  -27.4630 C.3   1247  MD11247     0.1799
     31  O4'     -125.5460  -59.8720  -28.7140 O.3   1247  MD11247    -0.3326
     32  C1'     -126.1920  -58.7550  -29.3340 C.3   1247  MD11247     0.2293
     33  N9      -127.3660  -59.3300  -30.0160 N.pl3 1247  MD11247    -0.2354
     34  C4      -127.3500  -59.7330  -31.3470 C.2   1247  MD11247     0.2300
     35  N3      -126.2650  -59.6660  -32.2360 N.2   1247  MD11247    -0.3074
     36  C2      -126.5270  -60.1400  -33.4920 C.1   1247  MD11247     0.2531
     37  N2      -125.6140  -60.1510  -34.4420 N.pl3 1247  MD11247    -0.0226
     38  N1      -127.7940  -60.6450  -33.8290 N.2   1247  MD11247    -0.2485
     39  C6      -128.8970  -60.7210  -32.9500 C.1   1247  MD11247     0.2372
     40  O6      -129.9770  -61.1810  -33.3200 O.2   1247  MD11247    -0.2069
     41  C5      -128.6450  -60.2280  -31.6210 C.2   1247  MD11247     0.2182
     42  N7      -129.4580  -60.1400  -30.5020 N.2   1247  MD11247    -0.2322
     43  C8      -128.6660  -59.6090  -29.5840 C.3   1247  MD11247     0.2246
     44  C2'     -126.4890  -57.7510  -28.1830 C.3   1247  MD11247     0.2310
     45  O2'     -126.5800  -56.3680  -28.5650 O.3   1247  MD11247    -0.2158
     46  C3'     -125.2860  -57.9910  -27.2470 C.3   1247  MD11247     0.2158
     47  O3'     -124.1390  -57.1890  -27.5460 O.3   1247  MD11247    -0.2175
@<TRIPOS>BOND
     1    37    36    1
     2    38    36    2
     3    38    39    2
     4    36    35    2
     5    40    39    2
     6    39    41    1
     7    35    34    2
     8    41    34    1
     9    41    42    2
    10    34    33    1
    11    42    43    1
    12    33    43    1
    13    33    32    1
    14    32    31    1
    15    32    44    1
    16    31    30    1
    17    45    44    1
    18    44    46    1
    19    47    46    1
    20    30    46    1
    21    30    29    1
    22    29    28    1
    23    28    25    1
    24     3     1    2
    25     4     1    1
    26     1     2    1
    27     1     5    1
    28    25     2    1
    29    25    27    2
    30    25    26    1
    31     5     6    1
    32     6     7    1
    33     7     8    1
    34     7     9    1
    35    10     9    1
    36     9    11    2
    37    24    13    1
    38    24    23    1
    39    11    13    1
    40    11    12    1
    41    13    14    1
    42    23    22    2
    43    14    15    2
    44    22    15    1
    45    22    21    2
    46    15    16    1
    47    21    19    2
    48    16    17    2
    49    16    18    2
    50    19    18    2
    51    19    20    1
