@<TRIPOS>MOLECULE
3ir5_HEM_C_1.pdb
 43 50 0 0 0
SMALL
GASTEIGER

@<TRIPOS>ATOM
      1  CHA     -144.1190  -15.5130  -13.9800 C.2   806  HEM806      0.0000
      2  CHB     -148.4850  -15.8050  -11.9550 C.2   806  HEM806      0.0000
      3  CHC     -149.2040  -11.1630  -13.1380 C.2   806  HEM806      0.0000
      4  CHD     -144.8560  -10.8900  -15.1810 C.2   806  HEM806      0.0000
      5  C1A     -145.2260  -16.0160  -13.3330 C.2   806  HEM806      0.0000
      6  C2A     -145.4110  -17.3730  -12.8160 C.2   806  HEM806      0.0000
      7  C3A     -146.6170  -17.4530  -12.2550 C.2   806  HEM806      0.0000
      8  C4A     -147.2310  -16.1360  -12.4070 C.2   806  HEM806      0.0000
      9  CMA     -147.3180  -18.6620  -11.5540 C.3   806  HEM806      0.0000
     10  CAA     -144.3560  -18.4970  -12.9290 C.3   806  HEM806      0.0000
     11  CBA     -143.4250  -18.5260  -11.6460 C.3   806  HEM806      0.0000
     12  CGA     -142.5580  -19.7770  -11.4740 C.2   806  HEM806      0.0000
     13  O1A     -142.9490  -20.6420  -10.6370 O.co2 806  HEM806      0.0000
     14  O2A     -141.5290  -19.8490  -12.2150 O.co2 806  HEM806      0.0000
     15  C1B     -149.0750  -14.5570  -12.0940 C.ar  806  HEM806      0.0000
     16  C2B     -150.4200  -14.2000  -11.6180 C.ar  806  HEM806      0.0000
     17  C3B     -150.6230  -12.8940  -11.9500 C.ar  806  HEM806      0.0000
     18  C4B     -149.4050  -12.4340  -12.6350 C.ar  806  HEM806      0.0000
     19  CMB     -151.3590  -15.2130  -10.8850 C.3   806  HEM806      0.0000
     20  CAB     -151.8930  -11.9830  -11.6920 C.2   806  HEM806      0.0000
     21  CBB     -152.5670  -11.8950  -10.4980 C.2   806  HEM806      0.0000
     22  C1C     -148.1040  -10.6660  -13.7940 C.2   806  HEM806      0.0000
     23  C2C     -147.9420   -9.3040  -14.3090 C.2   806  HEM806      0.0000
     24  C3C     -146.7270   -9.2320  -14.8820 C.2   806  HEM806      0.0000
     25  C4C     -146.1130  -10.5490  -14.7290 C.2   806  HEM806      0.0000
     26  CMC     -149.0310   -8.1790  -14.1800 C.3   806  HEM806      0.0000
     27  CAC     -146.0070   -8.0400  -15.5910 C.2   806  HEM806      0.0000
     28  CBC     -146.4850   -7.6080  -16.7930 C.2   806  HEM806      0.0000
     29  C1D     -144.2680  -12.1200  -15.0350 C.ar  806  HEM806      0.0000
     30  C2D     -142.9250  -12.4630  -15.5130 C.ar  806  HEM806      0.0000
     31  C3D     -142.7230  -13.7510  -15.1640 C.ar  806  HEM806      0.0000
     32  C4D     -143.9360  -14.2280  -14.4810 C.ar  806  HEM806      0.0000
     33  CMD     -141.9610  -11.4890  -16.2610 C.3   806  HEM806      0.0000
     34  CAD     -141.4940  -14.7000  -15.3640 C.3   806  HEM806      0.0000
     35  CBD     -140.2660  -14.3990  -14.4190 C.3   806  HEM806      0.0000
     36  CGD     -139.0010  -15.1830  -14.7900 C.2   806  HEM806      0.0000
     37  O1D     -138.7560  -16.2130  -14.0890 O.co2 806  HEM806      0.0000
     38  O2D     -138.3190  -14.7090  -15.7680 O.co2 806  HEM806      0.0000
     39  NA      -146.3580  -15.2790  -13.0730 N.2   806  HEM806      0.0000
     40  NB      -148.4840  -13.4630  -12.7100 N.ar  806  HEM806      0.0000
     41  NC      -146.9710  -11.4140  -14.0580 N.2   806  HEM806      0.0000
     42  ND      -144.8500  -13.2230  -14.4110 N.ar  806  HEM806      0.0000
     43 FE       -146.6520  -13.3760  -13.5550 Fe    806  HEM806      0.0000
@<TRIPOS>BOND
     1    28    27    2
     2    33    30    1
     3    38    36   ar
     4    27    24    1
     5    30    31   ar
     6    30    29   ar
     7    34    31    1
     8    34    35    1
     9     4    29    2
    10     4    25    1
    11    31    32   ar
    12    29    42   ar
    13    24    25    1
    14    24    23    2
    15    36    35    1
    16    36    37   ar
    17    25    41    2
    18    32    42   ar
    19    32     1    2
    20    42    43    1
    21    23    26    1
    22    23    22    1
    23    41    22    1
    24    41    43    1
    25     1     5    1
    26    22     3    2
    27    43    39    1
    28    43    40    1
    29     5    39    2
    30     5     6    1
    31     3    18    1
    32    39     8    1
    33    10     6    1
    34    10    11    1
    35     6     7    2
    36    40    18   ar
    37    40    15   ar
    38    18    17   ar
    39     8     7    1
    40     8     2    2
    41     7     9    1
    42    14    12   ar
    43    15     2    1
    44    15    16   ar
    45    17    20    1
    46    17    16   ar
    47    20    21    2
    48    11    12    1
    49    16    19    1
    50    12    13   ar
