@<TRIPOS>MOLECULE
3ir6_GDP_A_1.pdb
 28 30 0 0 0
SMALL
GASTEIGER

@<TRIPOS>ATOM
      1  PB      -123.3120  -63.0890  -24.3720 P.3   1247  GDP1247     0.5373
      2  O1B     -123.0860  -63.8150  -25.6460 O.2   1247  GDP1247    -0.2221
      3  O2B     -122.1000  -62.6090  -23.7120 O.3   1247  GDP1247    -0.1143
      4  O3B     -124.1830  -64.0400  -23.3870 O.3   1247  GDP1247    -0.1143
      5  O3A     -124.2480  -61.8110  -24.6200 O.3   1247  GDP1247    -0.2261
      6  PA      -125.2730  -60.7770  -24.0340 P.3   1247  GDP1247     0.2231
      7  O1A     -124.5920  -59.9910  -23.0170 O.3   1247  GDP1247    -0.4370
      8  O2A     -126.5110  -61.5190  -23.6300 O.2   1247  GDP1247    -0.5169
      9  O5'     -125.4510  -59.9450  -25.4010 O.3   1247  GDP1247    -0.3111
     10  C5'     -126.0980  -60.1550  -26.6380 C.3   1247  GDP1247     0.1813
     11  C4'     -125.5690  -59.1910  -27.6500 C.3   1247  GDP1247     0.1799
     12  O4'     -126.0900  -59.5670  -28.9130 O.3   1247  GDP1247    -0.3326
     13  C3'     -126.0110  -57.7630  -27.3340 C.3   1247  GDP1247     0.2158
     14  O3'     -124.9340  -56.8450  -27.4790 O.3   1247  GDP1247    -0.2175
     15  C2'     -127.1880  -57.5310  -28.2920 C.3   1247  GDP1247     0.2310
     16  O2'     -127.3290  -56.1460  -28.6260 O.3   1247  GDP1247    -0.2158
     17  C1'     -126.8630  -58.4850  -29.4780 C.3   1247  GDP1247     0.2293
     18  N9      -128.0190  -59.1600  -30.0960 N.pl3 1247  GDP1247    -0.2354
     19  C8      -129.2680  -59.5100  -29.5970 C.3   1247  GDP1247     0.2246
     20  N7      -130.0590  -60.1170  -30.4470 N.2   1247  GDP1247    -0.2322
     21  C5      -129.3130  -60.1920  -31.5950 C.2   1247  GDP1247     0.2182
     22  C6      -129.6040  -60.7500  -32.8960 C.1   1247  GDP1247     0.2372
     23  O6      -130.6690  -61.2910  -33.1770 O.2   1247  GDP1247    -0.2069
     24  N1      -128.5470  -60.6350  -33.8600 N.2   1247  GDP1247    -0.2485
     25  C2      -127.2900  -60.0310  -33.6120 C.1   1247  GDP1247     0.2531
     26  N2      -126.4340  -60.0080  -34.6000 N.pl3 1247  GDP1247    -0.0226
     27  N3      -126.9960  -59.4970  -32.3760 N.2   1247  GDP1247    -0.3074
     28  C4      -128.0390  -59.6040  -31.4090 C.2   1247  GDP1247     0.2300
@<TRIPOS>BOND
     1    26    25    1
     2    24    25    2
     3    24    22    2
     4    25    27    2
     5    23    22    2
     6    22    21    1
     7    27    28    2
     8    21    28    1
     9    21    20    2
    10    28    18    1
    11    20    19    1
    12    18    19    1
    13    18    17    1
    14    17    12    1
    15    17    15    1
    16    12    11    1
    17    16    15    1
    18    15    13    1
    19    11    13    1
    20    11    10    1
    21    14    13    1
    22    10     9    1
    23     2     1    2
    24     9     6    1
    25     5     1    1
    26     5     6    1
    27     1     3    1
    28     1     4    1
    29     6     8    2
    30     6     7    1
