@<TRIPOS>MOLECULE
3ir6_HEM_C_1.pdb
 43 50 0 0 0
SMALL
GASTEIGER

@<TRIPOS>ATOM
      1  CHA     -144.8110  -15.4360  -14.0330 C.2   806  HEM806      0.0000
      2  CHB     -149.1190  -15.8220  -11.9320 C.2   806  HEM806      0.0000
      3  CHC     -149.9070  -11.1670  -13.0460 C.2   806  HEM806      0.0000
      4  CHD     -145.6200  -10.8170  -15.1840 C.2   806  HEM806      0.0000
      5  C1A     -145.8880  -15.9600  -13.3660 C.2   806  HEM806      0.0000
      6  C2A     -146.0360  -17.3240  -12.8560 C.2   806  HEM806      0.0000
      7  C3A     -147.2280  -17.4380  -12.2740 C.2   806  HEM806      0.0000
      8  C4A     -147.8720  -16.1260  -12.4040 C.2   806  HEM806      0.0000
      9  CMA     -147.8860  -18.6740  -11.5750 C.3   806  HEM806      0.0000
     10  CAA     -144.9630  -18.4110  -12.9990 C.3   806  HEM806      0.0000
     11  CBA     -144.0040  -18.4030  -11.7400 C.3   806  HEM806      0.0000
     12  CGA     -143.1240  -19.6480  -11.5780 C.2   806  HEM806      0.0000
     13  O1A     -143.5230  -20.5240  -10.7550 O.co2 806  HEM806      0.0000
     14  O2A     -142.0710  -19.7060  -12.3210 O.co2 806  HEM806      0.0000
     15  C1B     -149.7280  -14.5810  -12.0500 C.ar  806  HEM806      0.0000
     16  C2B     -151.0730  -14.2450  -11.5460 C.ar  806  HEM806      0.0000
     17  C3B     -151.2950  -12.9230  -11.8630 C.ar  806  HEM806      0.0000
     18  C4B     -150.0890  -12.4460  -12.5610 C.ar  806  HEM806      0.0000
     19  CMB     -151.9730  -15.2880  -10.8100 C.3   806  HEM806      0.0000
     20  CAB     -152.5550  -11.9910  -11.5870 C.2   806  HEM806      0.0000
     21  CBB     -153.7250  -12.3600  -10.9630 C.2   806  HEM806      0.0000
     22  C1C     -148.8210  -10.6470  -13.7150 C.2   806  HEM806      0.0000
     23  C2C     -148.6820   -9.2710  -14.2100 C.2   806  HEM806      0.0000
     24  C3C     -147.4780   -9.1870  -14.8110 C.2   806  HEM806      0.0000
     25  C4C     -146.8590  -10.4960  -14.6950 C.2   806  HEM806      0.0000
     26  CMC     -149.7730   -8.1470  -14.0380 C.3   806  HEM806      0.0000
     27  CAC     -146.7820   -7.9840  -15.5140 C.2   806  HEM806      0.0000
     28  CBC     -147.0420   -7.7750  -16.8260 C.2   806  HEM806      0.0000
     29  C1D     -145.0220  -12.0470  -15.0650 C.ar  806  HEM806      0.0000
     30  C2D     -143.6900  -12.3790  -15.5870 C.ar  806  HEM806      0.0000
     31  C3D     -143.4740  -13.6650  -15.2430 C.ar  806  HEM806      0.0000
     32  C4D     -144.6610  -14.1520  -14.5300 C.ar  806  HEM806      0.0000
     33  CMD     -142.7610  -11.3990  -16.3620 C.3   806  HEM806      0.0000
     34  CAD     -142.2690  -14.6060  -15.4690 C.3   806  HEM806      0.0000
     35  CBD     -141.1670  -14.5320  -14.3500 C.3   806  HEM806      0.0000
     36  CGD     -139.9380  -15.3660  -14.6910 C.2   806  HEM806      0.0000
     37  O1D     -140.0190  -16.6270  -14.4340 O.co2 806  HEM806      0.0000
     38  O2D     -138.9650  -14.7090  -15.2050 O.co2 806  HEM806      0.0000
     39  NA      -147.0220  -15.2450  -13.0800 N.2   806  HEM806      0.0000
     40  NB      -149.1560  -13.4670  -12.6670 N.ar  806  HEM806      0.0000
     41  NC      -147.6910  -11.3790  -14.0150 N.2   806  HEM806      0.0000
     42  ND      -145.5770  -13.1620  -14.4330 N.ar  806  HEM806      0.0000
     43 FE       -147.3390  -13.3430  -13.5470 Fe    806  HEM806      0.0000
@<TRIPOS>BOND
     1    28    27    2
     2    33    30    1
     3    30    31   ar
     4    30    29   ar
     5    27    24    1
     6    34    31    1
     7    34    35    1
     8    31    32   ar
     9    38    36   ar
    10     4    29    2
    11     4    25    1
    12    29    42   ar
    13    24    25    1
    14    24    23    2
    15    25    41    2
    16    36    37   ar
    17    36    35    1
    18    32    42   ar
    19    32     1    2
    20    42    43    1
    21    23    26    1
    22    23    22    1
    23     1     5    1
    24    41    22    1
    25    41    43    1
    26    22     3    2
    27    43    39    1
    28    43    40    1
    29     5    39    2
    30     5     6    1
    31    39     8    1
    32     3    18    1
    33    10     6    1
    34    10    11    1
    35     6     7    2
    36    40    18   ar
    37    40    15   ar
    38    18    17   ar
    39     8     7    1
    40     8     2    2
    41    14    12   ar
    42     7     9    1
    43    15     2    1
    44    15    16   ar
    45    17    20    1
    46    17    16   ar
    47    11    12    1
    48    20    21    2
    49    12    13   ar
    50    16    19    1
