@<TRIPOS>MOLECULE
3ir7_MD1_A_1.pdb
 47 51 0 0 0
SMALL
GASTEIGER

@<TRIPOS>ATOM
      1  PB      -123.9370  -63.3360  -24.0270 P.3   1247  MD11247     0.2189
      2  O3B     -125.2440  -62.4210  -23.8620 O.3   1247  MD11247    -0.2703
      3  O1B     -124.2420  -64.3800  -25.0250 O.2   1247  MD11247    -0.5170
      4  O2B     -122.7940  -62.4950  -24.3490 O.3   1247  MD11247    -0.4371
      5  O3A     -123.7040  -64.0600  -22.6140 O.3   1247  MD11247    -0.3108
      6  C10     -124.6080  -64.9410  -21.9580 C.3   1247  MD11247     0.1870
      7  C11     -123.8170  -65.3010  -20.6730 C.3   1247  MD11247     0.2107
      8  O11     -123.5600  -64.0660  -19.9880 O.3   1247  MD11247    -0.2150
      9  C12     -124.6200  -66.2670  -19.7030 C.2   1247  MD11247     0.0503
     10  S12     -126.2340  -66.8370  -20.1130 S.3   1247  MD11247    -0.0525
     11  C13     -124.1340  -66.7310  -18.4420 C.2   1247  MD11247     0.0425
     12  S13     -125.2550  -67.7400  -17.5300 S.3   1247  MD11247    -0.0531
     13  C14     -122.7720  -66.4650  -17.7550 C.3   1247  MD11247     0.1588
     14  N15     -123.1250  -65.7590  -16.5120 N.2   1247  MD11247    -0.2437
     15  C16     -122.0770  -65.3300  -15.7000 C.2   1247  MD11247     0.2466
     16  C15     -122.2450  -65.1850  -14.2910 C.1   1247  MD11247     0.2441
     17  O14     -123.3170  -65.4410  -13.7500 O.2   1247  MD11247    -0.2063
     18  N17     -121.1230  -64.7280  -13.5520 N.2   1247  MD11247    -0.2474
     19  C17     -119.8730  -64.4160  -14.1250 C.1   1247  MD11247     0.2608
     20  N16     -118.8790  -63.9910  -13.3370 N.pl3 1247  MD11247    -0.0220
     21  N18     -119.7230  -64.5620  -15.4710 N.2   1247  MD11247    -0.2683
     22  C20     -120.7600  -65.0030  -16.2890 C.1   1247  MD11247     0.1270
     23  N8      -120.5560  -65.1350  -17.6750 N.2   1247  MD11247    -0.2051
     24  C7      -121.7130  -65.6140  -18.5080 C.3   1247  MD11247     0.1666
     25  PA      -125.4530  -60.8540  -23.9930 P.3   1247  MD11247     0.2189
     26  O1A     -124.4530  -60.2180  -23.1360 O.3   1247  MD11247    -0.4371
     27  O2A     -126.8940  -60.5430  -23.7500 O.2   1247  MD11247    -0.5170
     28  O5'     -125.0390  -60.7430  -25.5550 O.3   1247  MD11247    -0.3112
     29  C5'     -125.9880  -60.4090  -26.5590 C.3   1247  MD11247     0.1813
     30  C4'     -125.3310  -59.5610  -27.6320 C.3   1247  MD11247     0.1799
     31  O4'     -125.8780  -59.9360  -28.8900 O.3   1247  MD11247    -0.3326
     32  C1'     -126.5320  -58.8160  -29.4990 C.3   1247  MD11247     0.2293
     33  N9      -127.7190  -59.3890  -30.1520 N.pl3 1247  MD11247    -0.2354
     34  C4      -127.7350  -59.7910  -31.4750 C.2   1247  MD11247     0.2300
     35  N3      -126.6710  -59.7220  -32.3840 N.2   1247  MD11247    -0.3074
     36  C2      -126.9540  -60.1930  -33.6280 C.1   1247  MD11247     0.2531
     37  N2      -126.0590  -60.1940  -34.5910 N.pl3 1247  MD11247    -0.0226
     38  N1      -128.2250  -60.7030  -33.9390 N.2   1247  MD11247    -0.2485
     39  C6      -129.3150  -60.7830  -33.0370 C.1   1247  MD11247     0.2372
     40  O6      -130.4010  -61.2460  -33.3800 O.2   1247  MD11247    -0.2069
     41  C5      -129.0340  -60.2880  -31.7180 C.2   1247  MD11247     0.2182
     42  N7      -129.8200  -60.1990  -30.5820 N.2   1247  MD11247    -0.2322
     43  C8      -129.0060  -59.6660  -29.6880 C.3   1247  MD11247     0.2246
     44  C2'     -126.8200  -57.8210  -28.3500 C.3   1247  MD11247     0.2310
     45  O2'     -126.9170  -56.4420  -28.7420 O.3   1247  MD11247    -0.2158
     46  C3'     -125.6260  -58.0700  -27.4070 C.3   1247  MD11247     0.2158
     47  O3'     -124.4720  -57.2750  -27.6990 O.3   1247  MD11247    -0.2175
@<TRIPOS>BOND
     1    37    36    1
     2    38    36    2
     3    38    39    2
     4    36    35    2
     5    40    39    2
     6    39    41    1
     7    35    34    2
     8    41    34    1
     9    41    42    2
    10    34    33    1
    11    42    43    1
    12    33    43    1
    13    33    32    1
    14    32    31    1
    15    32    44    1
    16    31    30    1
    17    45    44    1
    18    44    46    1
    19    47    46    1
    20    30    46    1
    21    30    29    1
    22    29    28    1
    23    28    25    1
    24     3     1    2
    25     4     1    1
    26     1     2    1
    27     1     5    1
    28    25     2    1
    29    25    27    2
    30    25    26    1
    31     5     6    1
    32     6     7    1
    33     7     8    1
    34     7     9    1
    35    10     9    1
    36     9    11    2
    37    24    13    1
    38    24    23    1
    39    11    13    1
    40    11    12    1
    41    13    14    1
    42    23    22    2
    43    14    15    2
    44    22    15    1
    45    22    21    2
    46    15    16    1
    47    21    19    2
    48    16    17    2
    49    16    18    2
    50    19    18    2
    51    19    20    1
