@<TRIPOS>MOLECULE
3ir7_HEM_C_1.pdb
 43 50 0 0 0
SMALL
GASTEIGER

@<TRIPOS>ATOM
      1  CHA     -144.5450  -15.5190  -14.0670 C.2   806  HEM806      0.0000
      2  CHB     -148.8880  -15.8180  -11.9770 C.2   806  HEM806      0.0000
      3  CHC     -149.6280  -11.1550  -13.1410 C.2   806  HEM806      0.0000
      4  CHD     -145.2960  -10.8780  -15.2410 C.2   806  HEM806      0.0000
      5  C1A     -145.6420  -16.0270  -13.4020 C.2   806  HEM806      0.0000
      6  C2A     -145.8150  -17.3870  -12.8850 C.2   806  HEM806      0.0000
      7  C3A     -147.0150  -17.4710  -12.3040 C.2   806  HEM806      0.0000
      8  C4A     -147.6340  -16.1520  -12.4460 C.2   806  HEM806      0.0000
      9  CMA     -147.7050  -18.6870  -11.5930 C.3   806  HEM806      0.0000
     10  CAA     -144.7530  -18.5110  -13.0190 C.3   806  HEM806      0.0000
     11  CBA     -143.7840  -18.5170  -11.7660 C.3   806  HEM806      0.0000
     12  CGA     -142.9800  -19.8040  -11.5250 C.2   806  HEM806      0.0000
     13  O1A     -143.4580  -20.6390  -10.6970 O.co2 806  HEM806      0.0000
     14  O2A     -141.9080  -19.9320  -12.1940 O.co2 806  HEM806      0.0000
     15  C1B     -149.4830  -14.5640  -12.1100 C.ar  806  HEM806      0.0000
     16  C2B     -150.8230  -14.2040  -11.6190 C.ar  806  HEM806      0.0000
     17  C3B     -151.0320  -12.8950  -11.9500 C.ar  806  HEM806      0.0000
     18  C4B     -149.8220  -12.4310  -12.6440 C.ar  806  HEM806      0.0000
     19  CMB     -151.7510  -15.2140  -10.8740 C.3   806  HEM806      0.0000
     20  CAB     -152.3000  -11.9880  -11.6780 C.2   806  HEM806      0.0000
     21  CBB     -152.8190  -11.7050  -10.4390 C.2   806  HEM806      0.0000
     22  C1C     -148.5310  -10.6520  -13.8070 C.2   806  HEM806      0.0000
     23  C2C     -148.3720   -9.2810  -14.3170 C.2   806  HEM806      0.0000
     24  C3C     -147.1550   -9.2100  -14.9050 C.2   806  HEM806      0.0000
     25  C4C     -146.5450  -10.5350  -14.7680 C.2   806  HEM806      0.0000
     26  CMC     -149.4590   -8.1540  -14.1700 C.3   806  HEM806      0.0000
     27  CAC     -146.4320   -8.0150  -15.6160 C.2   806  HEM806      0.0000
     28  CBC     -146.9660   -7.5030  -16.7600 C.2   806  HEM806      0.0000
     29  C1D     -144.7060  -12.1150  -15.1110 C.ar  806  HEM806      0.0000
     30  C2D     -143.3630  -12.4590  -15.6150 C.ar  806  HEM806      0.0000
     31  C3D     -143.1550  -13.7490  -15.2760 C.ar  806  HEM806      0.0000
     32  C4D     -144.3680  -14.2320  -14.5680 C.ar  806  HEM806      0.0000
     33  CMD     -142.4020  -11.4870  -16.3760 C.3   806  HEM806      0.0000
     34  CAD     -141.9210  -14.6930  -15.5050 C.3   806  HEM806      0.0000
     35  CBD     -140.6980  -14.4530  -14.5220 C.3   806  HEM806      0.0000
     36  CGD     -139.3950  -15.1430  -14.9650 C.2   806  HEM806      0.0000
     37  O1D     -139.0120  -16.1380  -14.2550 O.co2 806  HEM806      0.0000
     38  O2D     -138.8210  -14.6350  -16.0030 O.co2 806  HEM806      0.0000
     39  NA      -146.7700  -15.2920  -13.1230 N.2   806  HEM806      0.0000
     40  NB      -148.8960  -13.4650  -12.7330 N.ar  806  HEM806      0.0000
     41  NC      -147.3970  -11.4050  -14.0890 N.2   806  HEM806      0.0000
     42  ND      -145.2820  -13.2240  -14.4800 N.ar  806  HEM806      0.0000
     43 FE       -147.0710  -13.3810  -13.5990 Fe    806  HEM806      0.0000
@<TRIPOS>BOND
     1    28    27    2
     2    33    30    1
     3    38    36   ar
     4    27    24    1
     5    30    31   ar
     6    30    29   ar
     7    34    31    1
     8    34    35    1
     9    31    32   ar
    10     4    29    2
    11     4    25    1
    12    29    42   ar
    13    36    35    1
    14    36    37   ar
    15    24    25    1
    16    24    23    2
    17    25    41    2
    18    32    42   ar
    19    32     1    2
    20    42    43    1
    21    23    26    1
    22    23    22    1
    23    41    22    1
    24    41    43    1
    25     1     5    1
    26    22     3    2
    27    43    39    1
    28    43    40    1
    29     5    39    2
    30     5     6    1
    31     3    18    1
    32    39     8    1
    33    10     6    1
    34    10    11    1
    35     6     7    2
    36    40    18   ar
    37    40    15   ar
    38    18    17   ar
    39     8     7    1
    40     8     2    2
    41     7     9    1
    42    14    12   ar
    43    15     2    1
    44    15    16   ar
    45    17    20    1
    46    17    16   ar
    47    11    12    1
    48    20    21    2
    49    16    19    1
    50    12    13   ar
