@<TRIPOS>MOLECULE
3irh_DTP_B_1.pdb
 30 32 0 0 0
SMALL
GASTEIGER

@<TRIPOS>ATOM
      1  PG       -48.8530   29.2220    9.3670 P.3   459  DTP459      0.5373
      2  O1G      -50.0170   29.8780   10.2280 O.3   459  DTP459     -0.1143
      3  O2G      -47.6890   28.4470   10.4790 O.3   459  DTP459     -0.1143
      4  O3G      -47.9890   30.4760    8.4290 O.2   459  DTP459     -0.2221
      5  PB       -48.5520   27.3220    7.3080 P.3   459  DTP459      0.2277
      6  O1B      -48.8050   25.7500    7.3810 O.2   459  DTP459     -0.5168
      7  O2B      -46.8320   27.6800    7.6360 O.3   459  DTP459     -0.4368
      8  O3B      -49.4840   28.1250    8.3560 O.3   459  DTP459     -0.2258
      9  PA       -48.1170   28.8090    4.9360 P.3   459  DTP459      0.2189
     10  O1A      -46.5770   28.6070    5.2810 O.3   459  DTP459     -0.4371
     11  O2A      -48.4060   28.5210    3.1970 O.2   459  DTP459     -0.5170
     12  O3A      -49.0250   27.8380    5.8460 O.3   459  DTP459     -0.2700
     13  O5'      -48.6100   30.2800    5.3800 O.3   459  DTP459     -0.3112
     14  C5'      -49.6500   30.9360    4.6580 C.3   459  DTP459      0.1813
     15  C4'      -50.6870   31.6320    5.5430 C.3   459  DTP459      0.1795
     16  O4'      -51.9660   31.4770    4.9270 O.3   459  DTP459     -0.3155
     17  C3'      -50.8110   31.0800    6.9540 C.3   459  DTP459      0.1883
     18  O3'      -50.5640   32.1000    7.9160 O.3   459  DTP459     -0.2202
     19  C2'      -52.2390   30.6340    7.1310 C.3   459  DTP459      0.1151
     20  C1'      -52.8960   30.8030    5.7770 C.3   459  DTP459      0.2873
     21  N9       -53.2410   29.4580    5.2480 N.pl3 459  DTP459     -0.1460
     22  C8       -52.3890   28.5710    4.7050 C.3   459  DTP459      0.3377
     23  N7       -53.0730   27.4630    4.3470 N.2   459  DTP459     -0.2095
     24  C5       -54.3690   27.6650    4.6740 C.2   459  DTP459      0.2526
     25  C6       -55.5270   26.8990    4.5550 C.2   459  DTP459      0.4393
     26  N6       -55.4720   25.6660    4.0090 N.pl3 459  DTP459      0.2180
     27  N1       -56.7090   27.3960    4.9890 N.2   459  DTP459      0.0021
     28  C2       -56.7760   28.6190    5.5350 C.3   459  DTP459      0.5254
     29  N3       -55.6730   29.3750    5.6640 N.2   459  DTP459     -0.0055
     30  C4       -54.4650   28.9240    5.2460 C.2   459  DTP459      0.3518
@<TRIPOS>BOND
     1    11     9    2
     2    26    25    1
     3    23    24    2
     4    23    22    1
     5    25    24    1
     6    25    27    2
     7    14    13    1
     8    14    15    1
     9    24    30    1
    10    22    21    1
    11    16    15    1
    12    16    20    1
    13     9    10    1
    14     9    13    1
    15     9    12    1
    16    27    28    1
    17    30    21    1
    18    30    29    2
    19    21    20    1
    20    28    29    1
    21    15    17    1
    22    20    19    1
    23    12     5    1
    24    17    19    1
    25    17    18    1
    26     5     6    2
    27     5     7    1
    28     5     8    1
    29     8     1    1
    30     4     1    2
    31     1     2    1
    32     1     3    1
