@<TRIPOS>MOLECULE
3irh_DGT_A_1.pdb
 31 33 0 0 0
SMALL
GASTEIGER

@<TRIPOS>ATOM
      1  PG       -35.1440   28.8430  -23.4950 P.3   458  DGT458      0.5373
      2  O1G      -35.1160   29.5700  -22.1630 O.3   458  DGT458     -0.1143
      3  O2G      -35.2730   27.3310  -23.3700 O.3   458  DGT458     -0.1143
      4  O3G      -34.0940   29.2990  -24.4940 O.2   458  DGT458     -0.2221
      5  O3B      -36.5210   29.2610  -24.2280 O.3   458  DGT458     -0.2258
      6  PB       -37.5780   30.3600  -23.7350 P.3   458  DGT458      0.2277
      7  O1B      -38.1940   31.0190  -24.9460 O.2   458  DGT458     -0.5168
      8  O2B      -36.9380   31.2230  -22.6770 O.3   458  DGT458     -0.4368
      9  O3A      -38.7480   29.4260  -23.1300 O.3   458  DGT458     -0.2700
     10  PA       -38.9200   28.9860  -21.5920 P.3   458  DGT458      0.2189
     11  O1A      -39.4450   27.5830  -21.6240 O.2   458  DGT458     -0.5170
     12  O2A      -37.6730   29.2500  -20.7820 O.3   458  DGT458     -0.4371
     13  O5'      -40.0500   29.9830  -21.0240 O.3   458  DGT458     -0.3112
     14  C5'      -40.6490   31.0200  -21.7940 C.3   458  DGT458      0.1812
     15  C4'      -41.5700   31.8690  -20.9350 C.3   458  DGT458      0.1772
     16  O4'      -42.2920   31.0590  -20.0000 O.3   458  DGT458     -0.3347
     17  C3'      -40.7720   32.8850  -20.1340 C.3   458  DGT458      0.1857
     18  O3'      -41.2330   34.2000  -20.4610 O.3   458  DGT458     -0.2203
     19  C2'      -41.0950   32.6100  -18.6790 C.3   458  DGT458      0.0865
     20  C1'      -42.3320   31.7250  -18.7390 C.3   458  DGT458      0.1981
     21  N9       -42.3560   30.7170  -17.6500 N.pl3 458  DGT458     -0.2374
     22  C8       -43.3810   30.5190  -16.7830 C.3   458  DGT458      0.2245
     23  N7       -43.0890   29.5250  -15.9150 N.2   458  DGT458     -0.2322
     24  C5       -41.8680   29.0750  -16.2330 C.2   458  DGT458      0.2182
     25  C6       -40.9670   28.0240  -15.7130 C.1   458  DGT458      0.2372
     26  O6       -41.3740   27.3380  -14.7550 O.2   458  DGT458     -0.2069
     27  N1       -39.7620   27.8590  -16.2950 N.2   458  DGT458     -0.2485
     28  C2       -39.3670   28.6110  -17.3490 C.1   458  DGT458      0.2531
     29  N2       -38.1450   28.3960  -17.9030 N.pl3 458  DGT458     -0.0226
     30  N3       -40.1480   29.5950  -17.8870 N.2   458  DGT458     -0.3074
     31  C4       -41.3790   29.8570  -17.3770 C.2   458  DGT458      0.2299
@<TRIPOS>BOND
     1     7     6    2
     2     4     1    2
     3     5     6    1
     4     5     1    1
     5     6     9    1
     6     6     8    1
     7     1     3    1
     8     1     2    1
     9     9    10    1
    10    14    13    1
    11    14    15    1
    12    11    10    2
    13    10    13    1
    14    10    12    1
    15    15    17    1
    16    15    16    1
    17    18    17    1
    18    17    19    1
    19    16    20    1
    20    20    19    1
    21    20    21    1
    22    29    28    1
    23    30    31    2
    24    30    28    2
    25    21    31    1
    26    21    22    1
    27    31    24    1
    28    28    27    2
    29    22    23    1
    30    27    25    2
    31    24    23    2
    32    24    25    1
    33    25    26    2
