@<TRIPOS>MOLECULE
3irm_1CY_A_1.pdb
 17 18 0 0 0
SMALL
GASTEIGER

@<TRIPOS>ATOM
      1  N1        44.4230   -4.2540   33.8200 N.2   601  1CY601     -0.1797
      2  C2        43.1940   -3.9680   33.6300 C.1   601  1CY601      0.1858
      3  N3        42.5490   -3.0040   34.1520 N.2   601  1CY601     -0.3007
      4  C4        43.0790   -2.1570   34.9500 C.cat 601  1CY601      0.2940
      5  N5        44.4280   -2.2660   35.2870 N.pl3 601  1CY601     -0.2312
      6  C6        45.2440   -3.4020   34.7300 C.3   601  1CY601      0.1615
      7  N7        42.5230   -4.7740   32.7990 N.pl3 601  1CY601     -0.0347
      8  N8        42.2720   -1.1810   35.3980 N.pl3 601  1CY601     -0.0770
      9  C9        46.4790   -2.9430   33.9130 C.3   601  1CY601      0.0465
     10  C10       45.7130   -4.3650   35.8500 C.3   601  1CY601      0.0465
     11  C11       44.9350   -1.2470   36.0950 C.ar  601  1CY601      0.0565
     12  C12       45.5850   -0.1690   35.4990 C.ar  601  1CY601      0.0159
     13  C13       46.1090    0.8470   36.2470 C.ar  601  1CY601      0.0127
     14  C14       45.9960    0.8150   37.6110 C.ar  601  1CY601      0.0578
     15  C15       45.3470   -0.2420   38.2380 C.ar  601  1CY601      0.0127
     16  C16       44.8160   -1.2750   37.4800 C.ar  601  1CY601      0.0159
     17 CL17       46.6780    2.1030   38.5280 Cl    601  1CY601     -0.0822
@<TRIPOS>BOND
     1     7     2    1
     2     2     1    2
     3     2     3    2
     4     1     6    1
     5     9     6    1
     6     3     4    2
     7     6     5    1
     8     6    10    1
     9     4     5    1
    10     4     8    1
    11     5    11    1
    12    12    11   ar
    13    12    13   ar
    14    11    16   ar
    15    13    14   ar
    16    16    15   ar
    17    14    15   ar
    18    14    17    1
