@<TRIPOS>MOLECULE
3irn_NDP_A_1.pdb
 48 52 0 0 0
SMALL
GASTEIGER

@<TRIPOS>ATOM
      1  PA        40.1280    2.3930   45.4290 P.3   701  NDP701      0.2189
      2  O1A       38.7560    2.2370   45.0730 O.3   701  NDP701     -0.4371
      3  O2A       41.2130    2.4800   44.4030 O.2   701  NDP701     -0.5170
      4  O5B       40.2020    3.7570   46.3480 O.3   701  NDP701     -0.3112
      5  C5B       39.1850    3.9660   47.3220 C.3   701  NDP701      0.1813
      6  C4B       39.3660    5.4210   47.6960 C.3   701  NDP701      0.1820
      7  O4B       38.7700    6.2120   46.6110 O.3   701  NDP701     -0.3136
      8  C3B       38.7160    5.9090   48.9240 C.3   701  NDP701      0.2157
      9  O3B       39.2430    5.4750   50.1930 O.3   701  NDP701     -0.2175
     10  C2B       38.4840    7.3470   48.7080 C.3   701  NDP701      0.2314
     11  O2B       39.5770    8.2500   48.8820 O.3   701  NDP701     -0.2630
     12  C1B       37.9980    7.2300   47.2740 C.3   701  NDP701      0.3158
     13  N9A       36.5150    7.1360   47.1130 N.pl3 701  NDP701     -0.1439
     14  C8A       35.7260    6.0650   46.6220 C.3   701  NDP701      0.3377
     15  N7A       34.4420    6.3690   46.6470 N.2   701  NDP701     -0.2095
     16  C5A       34.3480    7.6360   47.1480 C.2   701  NDP701      0.2526
     17  C6A       33.2710    8.5240   47.4300 C.2   701  NDP701      0.4393
     18  N6A       32.0220    8.1570   47.2020 N.pl3 701  NDP701      0.2180
     19  N1A       33.5300    9.7680   47.9440 N.2   701  NDP701      0.0021
     20  C2A       34.8170   10.1520   48.1830 C.3   701  NDP701      0.5254
     21  N3A       35.9070    9.3860   47.9560 N.2   701  NDP701     -0.0055
     22  C4A       35.6000    8.1250   47.4320 C.2   701  NDP701      0.3518
     23  O3        40.6090    1.3310   46.4710 O.3   701  NDP701     -0.2703
     24  PN        40.1550   -0.1000   47.0200 P.3   701  NDP701      0.2189
     25  O1N       40.8800   -0.3220   48.2890 O.3   701  NDP701     -0.4371
     26  O2N       38.6570   -0.1010   46.9270 O.2   701  NDP701     -0.5170
     27  O5D       40.6870   -0.9770   45.7890 O.3   701  NDP701     -0.3112
     28  C5D       42.1250   -1.0750   45.5220 C.3   701  NDP701      0.1813
     29  C4D       42.4550   -2.5900   45.3870 C.3   701  NDP701      0.1799
     30  O4D       41.9630   -2.9730   44.1310 O.3   701  NDP701     -0.3327
     31  C3D       43.9710   -2.8050   45.3020 C.3   701  NDP701      0.2158
     32  O3D       44.3440   -4.0360   45.9430 O.3   701  NDP701     -0.2175
     33  C2D       44.3330   -2.7230   43.8420 C.3   701  NDP701      0.2309
     34  O2D       45.4870   -3.4950   43.5570 O.3   701  NDP701     -0.2158
     35  C1D       43.0180   -3.4120   43.2750 C.3   701  NDP701      0.2263
     36  N1N       42.6950   -2.9610   41.9130 N.pl3 701  NDP701     -0.2787
     37  C2N       42.6000   -4.0020   40.9710 C.3   701  NDP701      0.1244
     38  C3N       42.2700   -3.6230   39.6160 C.2   701  NDP701      0.0544
     39  C7N       42.1570   -4.6650   38.5890 C.2   701  NDP701      0.2818
     40  O7N       41.8700   -4.4290   37.3920 O.2   701  NDP701     -0.2670
     41  N7N       42.3700   -5.9640   38.9250 N.am  701  NDP701     -0.0839
     42  C4N       42.0670   -2.2560   39.3290 C.2   701  NDP701      0.0033
     43  C5N       42.1680   -1.2490   40.2710 C.2   701  NDP701      0.0157
     44  C6N       42.4830   -1.5990   41.5730 C.2   701  NDP701      0.0633
     45  P2B       40.0190    8.8280   50.2280 P.3   701  NDP701      0.5328
     46  O1X       41.0720    9.7710   49.8470 O.2   701  NDP701     -0.2224
     47  O2X       40.5130    7.7300   51.0860 O.3   701  NDP701     -0.1145
     48  O3X       38.8350    9.5350   50.8830 O.3   701  NDP701     -0.1145
@<TRIPOS>BOND
     1    40    39    2
     2    39    41   am
     3    39    38    1
     4    42    38    2
     5    42    43    1
     6    38    37    1
     7    43    44    2
     8    37    36    1
     9    44    36    1
    10    36    35    1
    11    35    33    1
    12    35    30    1
    13    34    33    1
    14    33    31    1
    15    30    29    1
    16     3     1    2
    17     2     1    1
    18    31    29    1
    19    31    32    1
    20    29    28    1
    21     1     4    1
    22     1    23    1
    23    28    27    1
    24    27    24    1
    25     4     5    1
    26    23    24    1
    27     7    12    1
    28     7     6    1
    29    14    15    1
    30    14    13    1
    31    15    16    2
    32    26    24    2
    33    24    25    1
    34    13    12    1
    35    13    22    1
    36    16    17    1
    37    16    22    1
    38    18    17    1
    39    12    10    1
    40     5     6    1
    41    17    19    2
    42    22    21    2
    43     6     8    1
    44    19    20    1
    45    21    20    1
    46    10    11    1
    47    10     8    1
    48    11    45    1
    49     8     9    1
    50    46    45    2
    51    45    48    1
    52    45    47    1
