@<TRIPOS>MOLECULE
3irn_1CY_A_1.pdb
 17 18 0 0 0
SMALL
GASTEIGER

@<TRIPOS>ATOM
      1  N1        44.2290   -4.3500   33.8960 N.2   601  1CY601     -0.1797
      2  C2        43.0450   -3.9660   33.6540 C.1   601  1CY601      0.1858
      3  N3        42.4820   -2.9230   34.0970 N.2   601  1CY601     -0.3007
      4  C4        43.0570   -2.0880   34.8690 C.cat 601  1CY601      0.2940
      5  N5        44.3660   -2.2910   35.2630 N.pl3 601  1CY601     -0.2312
      6  C6        45.0930   -3.5170   34.7950 C.3   601  1CY601      0.1615
      7  N7        42.3230   -4.7430   32.8500 N.pl3 601  1CY601     -0.0347
      8  N8        42.3290   -1.0210   35.2340 N.pl3 601  1CY601     -0.0770
      9  C9        46.3720   -3.1720   34.0000 C.3   601  1CY601      0.0465
     10  C10       45.4480   -4.4620   35.9680 C.3   601  1CY601      0.0465
     11  C11       44.9110   -1.2720   36.0500 C.ar  601  1CY601      0.0565
     12  C12       45.4490   -0.1370   35.4400 C.ar  601  1CY601      0.0159
     13  C13       45.9920    0.8790   36.1950 C.ar  601  1CY601      0.0127
     14  C14       46.0040    0.7770   37.5600 C.ar  601  1CY601      0.0578
     15  C15       45.4750   -0.3330   38.1880 C.ar  601  1CY601      0.0127
     16  C16       44.9290   -1.3560   37.4380 C.ar  601  1CY601      0.0159
     17 CL17       46.6820    2.0390   38.4770 Cl    601  1CY601     -0.0822
@<TRIPOS>BOND
     1     7     2    1
     2     2     1    2
     3     2     3    2
     4     1     6    1
     5     9     6    1
     6     3     4    2
     7     6     5    1
     8     6    10    1
     9     4     8    1
    10     4     5    1
    11     5    11    1
    12    12    11   ar
    13    12    13   ar
    14    11    16   ar
    15    13    14   ar
    16    16    15   ar
    17    14    15   ar
    18    14    17    1
