@<TRIPOS>MOLECULE
3iro_2CY_A_1.pdb
 24 26 0 0 0
SMALL
GASTEIGER

@<TRIPOS>ATOM
      1  N1        44.4770   -4.6830   33.0940 N.2   601  2CY601     -0.3293
      2  C2        43.1280   -4.7120   32.9820 C.1   601  2CY601      0.2422
      3  N3        42.3700   -3.7690   33.5930 N.2   601  2CY601     -0.3110
      4  C4        42.9090   -2.7640   34.3330 C.2   601  2CY601      0.2236
      5  C5        44.3360   -2.6870   34.4780 C.3   601  2CY601      0.1803
      6  C6        45.1000   -3.7170   33.8100 C.2   601  2CY601      0.1377
      7  C7        45.0390   -1.6650   35.2280 C.2   601  2CY601      0.1306
      8  C8        46.4810   -1.7120   35.2800 C.2   601  2CY601      0.0333
      9  C9        47.2040   -2.7340   34.6210 C.2   601  2CY601      0.0051
     10  C10       46.5200   -3.7350   33.8860 C.2   601  2CY601      0.0295
     11  N11       42.5420   -5.6790   32.2680 N.pl3 601  2CY601     -0.0232
     12  N12       42.0240   -1.9100   34.8730 N.pl3 601  2CY601     -0.0961
     13  O13       44.4120   -0.7470   35.8190 O.2   601  2CY601     -0.4787
     14  C14       44.8500    0.5920   36.0240 C.3   601  2CY601      0.2088
     15  C15       44.7150    1.0140   37.4780 C.3   601  2CY601      0.0946
     16  C16       46.0950    0.8900   38.1530 C.3   601  2CY601      0.2093
     17  O17       47.1230    1.2110   37.1970 O.3   601  2CY601     -0.4753
     18  C18       48.3390    0.8970   37.2040 C.ar  601  2CY601      0.1408
     19  C19       49.1190    1.3490   36.0890 C.ar  601  2CY601      0.0370
     20  C20       50.5100    1.0360   35.9970 C.ar  601  2CY601      0.0054
     21  C21       51.1350    0.2630   37.0250 C.ar  601  2CY601      0.0298
     22  C22       50.3690   -0.1980   38.1460 C.ar  601  2CY601      0.1432
     23  C23       48.9790    0.1140   38.2390 C.ar  601  2CY601      0.0665
     24  F24       50.9760   -0.9520   39.1460 F     601  2CY601     -0.2041
@<TRIPOS>BOND
     1    11     2    1
     2     2     1    2
     3     2     3    2
     4     1     6    2
     5     3     4    2
     6     6    10    1
     7     6     5    1
     8    10     9    2
     9     4     5    1
    10     4    12    1
    11     5     7    1
    12     9     8    1
    13     7     8    2
    14     7    13    1
    15    13    14    1
    16    20    19   ar
    17    20    21   ar
    18    14    15    1
    19    19    18   ar
    20    21    22   ar
    21    17    18    1
    22    17    16    1
    23    18    23   ar
    24    15    16    1
    25    22    23   ar
    26    22    24    1
