@<TRIPOS>MOLECULE
3iro_NDP_A_1.pdb
 48 52 0 0 0
SMALL
GASTEIGER

@<TRIPOS>ATOM
      1  PA        40.1570    2.3310   45.3220 P.3   701  NDP701      0.2189
      2  O1A       38.7580    2.2700   44.9690 O.3   701  NDP701     -0.4371
      3  O2A       41.2320    2.3170   44.2810 O.2   701  NDP701     -0.5170
      4  O5B       40.3360    3.7060   46.2060 O.3   701  NDP701     -0.3112
      5  C5B       39.3660    3.9590   47.2200 C.3   701  NDP701      0.1813
      6  C4B       39.5460    5.4230   47.5320 C.3   701  NDP701      0.1820
      7  O4B       38.9570    6.1840   46.4230 O.3   701  NDP701     -0.3136
      8  C3B       38.9040    5.9490   48.7340 C.3   701  NDP701      0.2157
      9  O3B       39.4250    5.5600   50.0190 O.3   701  NDP701     -0.2175
     10  C2B       38.6850    7.3740   48.4770 C.3   701  NDP701      0.2314
     11  O2B       39.7570    8.2800   48.6840 O.3   701  NDP701     -0.2630
     12  C1B       38.2110    7.2370   47.0520 C.3   701  NDP701      0.3158
     13  N9A       36.7310    7.1430   46.9130 N.pl3 701  NDP701     -0.1439
     14  C8A       35.9450    6.0710   46.4310 C.3   701  NDP701      0.3377
     15  N7A       34.6610    6.3710   46.4700 N.2   701  NDP701     -0.2095
     16  C5A       34.5640    7.6400   46.9760 C.2   701  NDP701      0.2526
     17  C6A       33.4850    8.5230   47.2670 C.2   701  NDP701      0.4393
     18  N6A       32.2320    8.1430   47.0400 N.pl3 701  NDP701      0.2180
     19  N1A       33.7420    9.7670   47.7840 N.2   701  NDP701      0.0021
     20  C2A       35.0210   10.1590   48.0170 C.3   701  NDP701      0.5254
     21  N3A       36.1100    9.4050   47.7780 N.2   701  NDP701     -0.0055
     22  C4A       35.8110    8.1350   47.2510 C.2   701  NDP701      0.3518
     23  O3        40.5800    1.2570   46.4060 O.3   701  NDP701     -0.2703
     24  PN        40.2630   -0.2590   46.8490 P.3   701  NDP701      0.2189
     25  O1N       40.8740   -0.4400   48.1700 O.3   701  NDP701     -0.4371
     26  O2N       38.8060   -0.4890   46.6280 O.2   701  NDP701     -0.5170
     27  O5D       41.0290   -1.0180   45.6440 O.3   701  NDP701     -0.3112
     28  C5D       42.4630   -0.7670   45.3510 C.3   701  NDP701      0.1813
     29  C4D       43.2160   -2.1450   45.2570 C.3   701  NDP701      0.1799
     30  O4D       42.7440   -2.7730   44.0710 O.3   701  NDP701     -0.3327
     31  C3D       44.7240   -1.9270   45.0090 C.3   701  NDP701      0.2158
     32  O3D       45.4930   -2.9010   45.7030 O.3   701  NDP701     -0.2175
     33  C2D       44.9260   -1.9300   43.5160 C.3   701  NDP701      0.2309
     34  O2D       46.2190   -2.4170   43.1780 O.3   701  NDP701     -0.2158
     35  C1D       43.8000   -2.9960   43.1250 C.3   701  NDP701      0.2263
     36  N1N       43.2790   -2.7480   41.7360 N.pl3 701  NDP701     -0.2787
     37  C2N       43.3620   -3.8430   40.8390 C.3   701  NDP701      0.1244
     38  C3N       42.8630   -3.6250   39.4800 C.2   701  NDP701      0.0544
     39  C7N       42.9180   -4.7090   38.5010 C.2   701  NDP701      0.2818
     40  O7N       42.5110   -4.6000   37.3260 O.2   701  NDP701     -0.2670
     41  N7N       43.4320   -5.9040   38.8550 N.am  701  NDP701     -0.0839
     42  C4N       42.3390   -2.3670   39.1490 C.2   701  NDP701      0.0033
     43  C5N       42.2690   -1.3230   40.0360 C.2   701  NDP701      0.0157
     44  C6N       42.7350   -1.5040   41.3290 C.2   701  NDP701      0.0633
     45  P2B       40.2110    8.7260   50.0750 P.3   701  NDP701      0.5328
     46  O1X       41.0170    7.5920   50.5510 O.3   701  NDP701     -0.1145
     47  O2X       40.9820    9.9870   49.9540 O.2   701  NDP701     -0.2224
     48  O3X       38.9530    8.9210   50.9410 O.3   701  NDP701     -0.1145
@<TRIPOS>BOND
     1    40    39    2
     2    39    41   am
     3    39    38    1
     4    42    38    2
     5    42    43    1
     6    38    37    1
     7    43    44    2
     8    37    36    1
     9    44    36    1
    10    36    35    1
    11    35    33    1
    12    35    30    1
    13    34    33    1
    14    33    31    1
    15    30    29    1
    16     3     1    2
    17     2     1    1
    18    31    29    1
    19    31    32    1
    20    29    28    1
    21     1     4    1
    22     1    23    1
    23    28    27    1
    24    27    24    1
    25     4     5    1
    26    23    24    1
    27     7    12    1
    28     7     6    1
    29    14    15    1
    30    14    13    1
    31    15    16    2
    32    26    24    2
    33    24    25    1
    34    13    12    1
    35    13    22    1
    36    16    22    1
    37    16    17    1
    38    18    17    1
    39    12    10    1
    40     5     6    1
    41    22    21    2
    42    17    19    2
    43     6     8    1
    44    21    20    1
    45    19    20    1
    46    10    11    1
    47    10     8    1
    48    11    45    1
    49     8     9    1
    50    47    45    2
    51    45    46    1
    52    45    48    1
