@<TRIPOS>MOLECULE
3irx_UDR_A_1.pdb
 36 39 0 0 0
SMALL
GASTEIGER

@<TRIPOS>ATOM
      1  CAA      -52.0760  -31.9410  -35.0700 C.3   556  UDR556      0.2525
      2  CAB      -54.5510  -28.6040  -37.9260 C.3   556  UDR556      0.0774
      3  CAC      -48.7850  -32.6170  -35.5650 C.3   556  UDR556      0.0342
      4  CAD      -52.8040  -24.4250  -36.7700 C.3   556  UDR556      0.0967
      5  CAE      -46.0340  -31.5230  -43.5850 C.3   556  UDR556      0.0343
      6  CAF      -50.9360  -34.3920  -41.1970 C.3   556  UDR556      0.1369
      7  OAG      -52.5660  -29.0180  -35.2730 O.2   556  UDR556     -0.2796
      8  OAH      -49.6420  -35.5350  -43.5140 O.2   556  UDR556     -0.2226
      9  CAI      -47.8660  -28.5630  -39.7730 C.2   556  UDR556     -0.0261
     10  CAJ      -48.6710  -31.1860  -37.6480 C.ar  556  UDR556     -0.0013
     11  CAK      -47.2830  -30.6730  -41.5460 C.ar  556  UDR556     -0.0012
     12  CAL      -50.2420  -29.4030  -38.0450 C.ar  556  UDR556      0.0067
     13  CAM      -49.2000  -31.8380  -40.6710 C.ar  556  UDR556      0.0204
     14  CAN      -47.8910  -27.4940  -38.8810 C.3   556  UDR556      0.0265
     15  CAO      -47.8390  -26.1570  -39.6200 C.3   556  UDR556      0.0144
     16  CAP      -49.2310  -25.7600  -40.1060 C.3   556  UDR556      0.0873
     17  NAQ      -50.6100  -23.5240  -37.6710 N.ar  556  UDR556     -0.1117
     18  NAR      -49.7270  -23.8460  -38.4700 N.ar  556  UDR556     -0.1117
     19  OAS      -51.0180  -31.0060  -34.8600 O.3   556  UDR556     -0.4716
     20  OAT      -51.1750  -25.4910  -38.4700 O.2   556  UDR556     -0.4233
     21  OAU      -48.1460  -33.7770  -43.4440 O.2   556  UDR556     -0.4071
     22  SAV      -52.9600  -27.8940  -37.5650 S.3   556  UDR556     -0.0717
     23  CAW      -52.1360  -28.9330  -36.4180 C.2   556  UDR556      0.2244
     24  CAX      -48.4540  -29.8130  -39.6080 C.2   556  UDR556     -0.0042
     25  CAY      -49.3110  -31.4850  -36.4500 C.ar  556  UDR556      0.0122
     26  CAZ      -51.5220  -24.4890  -37.6340 C.ar  556  UDR556      0.2266
     27  CBA      -47.1540  -31.6410  -42.5430 C.ar  556  UDR556      0.0143
     28  CBB      -49.1260  -30.1360  -38.4460 C.ar  556  UDR556     -0.0003
     29  CBC      -48.3060  -30.7770  -40.6140 C.ar  556  UDR556      0.0010
     30  CBD      -50.0080  -25.0420  -39.0060 C.ar  556  UDR556      0.2261
     31  CBE      -50.8850  -29.7050  -36.8510 C.ar  556  UDR556      0.0786
     32  CBF      -50.4130  -30.7430  -36.0490 C.ar  556  UDR556      0.1382
     33  CBG      -49.2200  -34.4950  -43.0050 C.ar  556  UDR556      0.4220
     34  CBH      -49.0640  -32.7990  -41.6620 C.ar  556  UDR556      0.0997
     35  CBI      -48.0410  -32.6970  -42.5970 C.ar  556  UDR556      0.1620
     36  NBJ      -49.7580  -33.9030  -41.9450 N.ar  556  UDR556     -0.2601
@<TRIPOS>BOND
     1     5    27    1
     2     8    33    2
     3    21    33   ar
     4    21    35   ar
     5    33    36   ar
     6    35    27   ar
     7    35    34   ar
     8    27    11   ar
     9    36    34   ar
    10    36     6    1
    11    34    13   ar
    12    11    29   ar
    13    13    29   ar
    14    29    24    1
    15    16    15    1
    16    16    30    1
    17     9    24    2
    18     9    14    1
    19    15    14    1
    20    24    28    1
    21    30    18   ar
    22    30    20   ar
    23    18    17   ar
    24    20    26   ar
    25    28    12   ar
    26    28    10   ar
    27    12    31   ar
    28     2    22    1
    29    17    26   ar
    30    10    25   ar
    31    26     4    1
    32    22    23    1
    33    31    23    1
    34    31    32   ar
    35    25    32   ar
    36    25     3    1
    37    23     7    2
    38    32    19    1
    39     1    19    1
