@<TRIPOS>MOLECULE
3is4_PTK_A_1.pdb
 32 35 0 0 0
SMALL
GASTEIGER

@<TRIPOS>ATOM
      1  OAA       36.7150   65.0470    2.7130 O.3   501  PTK501     -0.0650
      2  OAB       38.8520   65.5730    3.7950 O.3   501  PTK501     -0.0650
      3  OAC       37.3920   62.6370   -2.3020 O.3   501  PTK501     -0.0650
      4  OAD       36.9080   64.9700   -2.8780 O.3   501  PTK501     -0.0650
      5  OAE       46.0790   64.7400    3.0890 O.3   501  PTK501     -0.0650
      6  OAF       46.1710   67.0250    2.1970 O.3   501  PTK501     -0.0650
      7  OAG       44.2500   63.5930   -3.6170 O.3   501  PTK501     -0.0650
      8  OAH       46.0460   65.1910   -3.1330 O.3   501  PTK501     -0.0650
      9  OAI       37.6810   67.2880    2.4920 O.3   501  PTK501     -0.0650
     10  OAJ       38.9560   63.9050   -3.7010 O.3   501  PTK501     -0.0650
     11  OAK       44.2760   66.3250    3.5870 O.3   501  PTK501     -0.0650
     12  OAL       46.1650   62.9050   -2.2500 O.3   501  PTK501     -0.0650
     13  CAM       38.1550   64.9070    0.0190 C.ar  501  PTK501      0.0378
     14  CAN       45.0960   64.9610   -0.0180 C.ar  501  PTK501      0.0378
     15  CAO       40.9370   65.7390    2.2740 C.ar  501  PTK501      0.0013
     16  CAP       42.3260   65.7490    2.2660 C.ar  501  PTK501      0.0013
     17  CAQ       40.9270   64.1200   -2.2630 C.ar  501  PTK501      0.0013
     18  CAR       42.3150   64.1300   -2.2710 C.ar  501  PTK501      0.0013
     19  CAS       38.8530   65.3170    1.1500 C.ar  501  PTK501      0.1136
     20  CAT       38.8500   64.5090   -1.1180 C.ar  501  PTK501      0.1136
     21  CAU       44.4030   65.3600    1.1200 C.ar  501  PTK501      0.1136
     22  CAV       44.3960   64.5510   -1.1480 C.ar  501  PTK501      0.1136
     23  CAW       40.2410   65.3280    1.1430 C.ar  501  PTK501      0.0177
     24  CAX       40.2380   64.5200   -1.1250 C.ar  501  PTK501      0.0177
     25  CAY       43.0150   65.3490    1.1280 C.ar  501  PTK501      0.0177
     26  CAZ       43.0090   64.5410   -1.1390 C.ar  501  PTK501      0.0177
     27  CBA       40.9330   64.9290    0.0060 C.ar  501  PTK501      0.0026
     28  CBB       42.3200   64.9400   -0.0020 C.ar  501  PTK501      0.0026
     29  SBC       37.9940   65.8230    2.5890 S.3   501  PTK501      0.0421
     30  SBD       37.9950   63.9880   -2.5510 S.3   501  PTK501      0.0421
     31  SBE       45.2650   65.8800    2.5500 S.3   501  PTK501      0.0421
     32  SBF       45.2470   64.0430   -2.5890 S.3   501  PTK501      0.0421
@<TRIPOS>BOND
     1    10    30    1
     2     7    32    1
     3     8    32    1
     4     4    30    1
     5    32    12    1
     6    32    22    1
     7    30     3    1
     8    30    20    1
     9    18    17   ar
    10    18    26   ar
    11    17    24   ar
    12    22    26   ar
    13    22    14   ar
    14    26    28   ar
    15    24    20   ar
    16    24    27   ar
    17    20    13   ar
    18    14    21   ar
    19    28    27   ar
    20    28    25   ar
    21    27    23   ar
    22    13    19   ar
    23    21    25   ar
    24    21    31    1
    25    25    16   ar
    26    23    19   ar
    27    23    15   ar
    28    19    29    1
    29     6    31    1
    30    16    15   ar
    31     9    29    1
    32    31     5    1
    33    31    11    1
    34    29     1    1
    35    29     2    1
