@<TRIPOS>MOLECULE
3is5_ANP_A_1.pdb
 31 33 0 0 0
SMALL
GASTEIGER

@<TRIPOS>ATOM
      1  PG       -18.3020  -82.8330   18.2760 P.3     1  ANP1        0.4884
      2  O1G      -18.2310  -81.8940   19.4600 O.3     1  ANP1       -0.1240
      3  O2G      -17.8170  -82.2350   16.9790 O.2     1  ANP1       -0.2331
      4  O3G      -17.7450  -84.2090   18.5620 O.3     1  ANP1       -0.1240
      5  PB       -20.5080  -84.8040   17.9990 P.3     1  ANP1        0.4669
      6  O1B      -21.9160  -84.9000   17.4640 O.2     1  ANP1       -0.2351
      7  O2B      -20.1950  -85.3590   19.3720 O.3     1  ANP1       -0.1253
      8  N3B      -20.0060  -83.1300   18.0090 N.3     1  ANP1       -0.0163
      9  PA       -18.2920  -86.4450   17.5300 P.3     1  ANP1        0.2220
     10  O1A      -18.3130  -87.7650   16.7870 O.2     1  ANP1       -0.5170
     11  O2A      -18.4170  -86.4170   19.0350 O.3     1  ANP1       -0.4370
     12  O3A      -19.5250  -85.5680   16.9650 O.3     1  ANP1       -0.2360
     13  O5'      -16.9480  -85.6220   17.1400 O.3     1  ANP1       -0.3111
     14  C5'      -15.7060  -86.2390   16.7440 C.3     1  ANP1        0.1813
     15  C4'      -14.9630  -86.8660   17.9250 C.3     1  ANP1        0.1821
     16  O4'      -13.5230  -86.8180   17.8660 O.3     1  ANP1       -0.3135
     17  C3'      -15.2210  -88.3510   18.0670 C.3     1  ANP1        0.2184
     18  O3'      -14.7770  -89.0210   16.8780 O.3     1  ANP1       -0.2174
     19  C2'      -14.2410  -88.6640   19.1680 C.3     1  ANP1        0.2570
     20  O2'      -14.0430  -90.0730   19.2740 O.3     1  ANP1       -0.2130
     21  C1'      -13.0110  -87.8720   18.7180 C.3     1  ANP1        0.3186
     22  N9       -12.2840  -87.3170   19.8920 N.pl3   1  ANP1       -0.1439
     23  C8       -12.7390  -86.3430   20.7080 C.3     1  ANP1        0.3377
     24  N7       -11.8440  -86.0480   21.6820 N.2     1  ANP1       -0.2095
     25  C5       -10.7820  -86.8500   21.4950 C.2     1  ANP1        0.2526
     26  C6        -9.4830  -87.0660   22.1680 C.2     1  ANP1        0.4393
     27  N6        -9.1540  -86.3390   23.2560 N.pl3   1  ANP1        0.2180
     28  N1        -8.6410  -88.0020   21.6610 N.2     1  ANP1        0.0021
     29  C2        -8.9680  -88.7350   20.5800 C.3     1  ANP1        0.5254
     30  N3       -10.1360  -88.5890   19.9240 N.2     1  ANP1       -0.0055
     31  C4       -11.0710  -87.6870   20.3200 C.2     1  ANP1        0.3518
@<TRIPOS>BOND
     1    14    13    1
     2    14    15    1
     3    10     9    2
     4    18    17    1
     5    12     9    1
     6    12     5    1
     7     3     1    2
     8    13     9    1
     9     6     5    2
    10     9    11    1
    11    16    15    1
    12    16    21    1
    13    15    17    1
    14     5     8    1
    15     5     7    1
    16     8     1    1
    17    17    19    1
    18     1     4    1
    19     1     2    1
    20    21    19    1
    21    21    22    1
    22    19    20    1
    23    22    31    1
    24    22    23    1
    25    30    31    2
    26    30    29    1
    27    31    25    1
    28    29    28    1
    29    23    24    1
    30    25    24    2
    31    25    26    1
    32    28    26    2
    33    26    27    1
