@<TRIPOS>MOLECULE
3is7_HEM_A_1.pdb
 43 50 0 0 0
SMALL
GASTEIGER

@<TRIPOS>ATOM
      1  CHA      -40.2560   19.0550   45.0120 C.2   159  HEM159      0.0000
      2  CHB      -35.5200   19.5330   46.0310 C.2   159  HEM159      0.0000
      3  CHC      -36.7000   22.5050   49.6690 C.2   159  HEM159      0.0000
      4  CHD      -41.4150   21.8520   48.8110 C.2   159  HEM159      0.0000
      5  C1A      -38.9020   19.0090   44.9920 C.ar  159  HEM159      0.0000
      6  C2A      -38.1830   18.3130   43.9390 C.ar  159  HEM159      0.0000
      7  C3A      -36.8840   18.4300   44.2000 C.ar  159  HEM159      0.0000
      8  C4A      -36.7430   19.2330   45.4280 C.ar  159  HEM159      0.0000
      9  CMA      -35.7070   17.8630   43.3570 C.3   159  HEM159      0.0000
     10  CAA      -38.8330   17.5990   42.7510 C.3   159  HEM159      0.0000
     11  CBA      -38.9570   18.5850   41.6120 C.3   159  HEM159      0.0000
     12  CGA      -39.5220   17.9620   40.3480 C.2   159  HEM159      0.0000
     13  O1A      -38.8290   17.4070   39.5370 O.co2 159  HEM159      0.0000
     14  O2A      -40.7170   17.9940   40.1110 O.co2 159  HEM159      0.0000
     15  C1B      -35.3910   20.3860   47.0940 C.2   159  HEM159      0.0000
     16  C2B      -34.1760   20.9000   47.7210 C.2   159  HEM159      0.0000
     17  C3B      -34.5700   21.7050   48.7160 C.2   159  HEM159      0.0000
     18  C4B      -36.0020   21.7370   48.7730 C.2   159  HEM159      0.0000
     19  CMB      -32.7180   20.5650   47.3630 C.3   159  HEM159      0.0000
     20  CAB      -33.7040   22.4710   49.7070 C.3   159  HEM159      0.0000
     21  CBB      -32.6030   21.7810   50.0310 C.3   159  HEM159      0.0000
     22  C1C      -38.0630   22.6160   49.7820 C.ar  159  HEM159      0.0000
     23  C2C      -38.7830   23.3300   50.7740 C.ar  159  HEM159      0.0000
     24  C3C      -40.0960   23.1450   50.5180 C.ar  159  HEM159      0.0000
     25  C4C      -40.2420   22.2750   49.3800 C.ar  159  HEM159      0.0000
     26  CMC      -38.1160   24.2070   51.8340 C.3   159  HEM159      0.0000
     27  CAC      -41.3040   23.7180   51.2580 C.3   159  HEM159      0.0000
     28  CBC      -40.9400   24.5590   52.2290 C.3   159  HEM159      0.0000
     29  C1D      -41.5520   21.0210   47.7240 C.2   159  HEM159      0.0000
     30  C2D      -42.8010   20.4920   47.2140 C.2   159  HEM159      0.0000
     31  C3D      -42.4260   19.6580   46.0230 C.2   159  HEM159      0.0000
     32  C4D      -40.9920   19.7000   45.9530 C.2   159  HEM159      0.0000
     33  CMD      -44.1900   20.7650   47.7940 C.3   159  HEM159      0.0000
     34  CAD      -43.3330   18.8020   45.1420 C.3   159  HEM159      0.0000
     35  CBD      -43.6620   17.6210   46.0570 C.3   159  HEM159      0.0000
     36  CGD      -44.7780   16.8220   45.4010 C.2   159  HEM159      0.0000
     37  O1D      -44.5090   15.9880   44.5690 O.co2 159  HEM159      0.0000
     38  O2D      -45.9560   17.0780   45.6540 O.co2 159  HEM159      0.0000
     39  NA       -38.0030   19.6010   45.8860 N.ar  159  HEM159      0.0000
     40  NB       -36.4630   20.9000   47.7490 N.2   159  HEM159      0.0000
     41  NC       -38.9830   21.9900   48.9260 N.ar  159  HEM159      0.0000
     42  ND       -40.5180   20.5190   46.9550 N.2   159  HEM159      0.0000
     43 FE        -38.5240   20.8060   47.3820 Fe    159  HEM159      0.0000
@<TRIPOS>BOND
     1    13    12   ar
     2    14    12   ar
     3    12    11    1
     4    11    10    1
     5    10     6    1
     6     9     7    1
     7     6     7   ar
     8     6     5   ar
     9     7     8   ar
    10    37    36   ar
    11     5     1    2
    12     5    39   ar
    13     1    32    1
    14    34    31    1
    15    34    35    1
    16    36    38   ar
    17    36    35    1
    18     8    39   ar
    19     8     2    2
    20    39    43    1
    21    32    31    1
    22    32    42    2
    23    31    30    2
    24     2    15    1
    25    42    43    1
    26    42    29    1
    27    15    16    1
    28    15    40    2
    29    30    29    1
    30    30    33    1
    31    19    16    1
    32    43    40    1
    33    43    41    1
    34    16    17    2
    35    29     4    2
    36    40    18    1
    37    17    18    1
    38    17    20    1
    39    18     3    2
    40     4    25    1
    41    41    25   ar
    42    41    22   ar
    43    25    24   ar
    44     3    22    1
    45    20    21    1
    46    22    23   ar
    47    24    23   ar
    48    24    27    1
    49    23    26    1
    50    27    28    1
