@<TRIPOS>MOLECULE
3is8_HEM_A_1.pdb
 43 50 0 0 0
SMALL
GASTEIGER

@<TRIPOS>ATOM
      1  CHA      -22.2360    0.3720   16.5160 C.2   165  HEM165      0.0000
      2  CHB      -19.0290    3.6990   14.9680 C.2   165  HEM165      0.0000
      3  CHC      -15.5960    0.4250   15.9370 C.2   165  HEM165      0.0000
      4  CHD      -18.7390   -2.8290   17.4350 C.2   165  HEM165      0.0000
      5  C1A      -21.6580    1.5370   16.0640 C.ar  165  HEM165      0.0000
      6  C2A      -22.4100    2.7420   15.7970 C.ar  165  HEM165      0.0000
      7  C3A      -21.5490    3.6820   15.3730 C.ar  165  HEM165      0.0000
      8  C4A      -20.2210    3.0870   15.3490 C.ar  165  HEM165      0.0000
      9  CMA      -21.8970    5.1300   14.9760 C.3   165  HEM165      0.0000
     10  CAA      -23.9340    2.8420   15.9850 C.3   165  HEM165      0.0000
     11  CBA      -24.2180    3.3970   17.3730 C.3   165  HEM165      0.0000
     12  CGA      -25.7180    3.6650   17.5480 C.2   165  HEM165      0.0000
     13  O1A      -26.1790    4.7960   17.3390 O.co2 165  HEM165      0.0000
     14  O2A      -26.4680    2.7520   17.9260 O.co2 165  HEM165      0.0000
     15  C1B      -17.7950    3.1030   15.1130 C.2   165  HEM165      0.0000
     16  C2B      -16.4650    3.6850   14.8920 C.2   165  HEM165      0.0000
     17  C3B      -15.5910    2.7410   15.1860 C.2   165  HEM165      0.0000
     18  C4B      -16.2730    1.5540   15.5900 C.2   165  HEM165      0.0000
     19  CMB      -16.0600    5.0920   14.4160 C.3   165  HEM165      0.0000
     20  CAB      -14.0650    2.8580   15.0830 C.3   165  HEM165      0.0000
     21  CBB      -13.6770    3.7920   14.2180 C.3   165  HEM165      0.0000
     22  C1C      -16.1240   -0.7190   16.4420 C.ar  165  HEM165      0.0000
     23  C2C      -15.3720   -1.8560   16.8740 C.ar  165  HEM165      0.0000
     24  C3C      -16.2480   -2.7460   17.3110 C.ar  165  HEM165      0.0000
     25  C4C      -17.5690   -2.1920   17.1350 C.ar  165  HEM165      0.0000
     26  CMC      -13.8160   -1.9210   16.8250 C.3   165  HEM165      0.0000
     27  CAC      -16.0500   -4.1710   17.8910 C.2   165  HEM165      0.0000
     28  CBC      -14.8760   -4.7830   17.7480 C.2   165  HEM165      0.0000
     29  C1D      -19.9940   -2.3270   17.2650 C.2   165  HEM165      0.0000
     30  C2D      -21.2230   -3.0860   17.4350 C.2   165  HEM165      0.0000
     31  C3D      -22.3290   -2.0780   17.1590 C.2   165  HEM165      0.0000
     32  C4D      -21.6280   -0.8250   16.8280 C.2   165  HEM165      0.0000
     33  CMD      -21.3730   -4.5710   17.8200 C.3   165  HEM165      0.0000
     34  CAD      -23.8370   -2.3420   17.1930 C.3   165  HEM165      0.0000
     35  CBD      -24.1580   -2.8570   15.8170 C.3   165  HEM165      0.0000
     36  CGD      -25.5610   -3.3880   15.7070 C.2   165  HEM165      0.0000
     37  O1D      -26.3890   -2.6910   15.0350 O.co2 165  HEM165      0.0000
     38  O2D      -25.8180   -4.5110   16.2390 O.co2 165  HEM165      0.0000
     39  NA       -20.3420    1.7900   15.7860 N.ar  165  HEM165      0.0000
     40  NB       -17.6330    1.7900   15.5270 N.2   165  HEM165      0.0000
     41  NC       -17.4580   -0.9570   16.6110 N.ar  165  HEM165      0.0000
     42  ND       -20.2670   -1.0290   16.8960 N.2   165  HEM165      0.0000
     43 FE        -18.9140    0.3690   16.2690 Fe    165  HEM165      0.0000
@<TRIPOS>BOND
     1    21    20    1
     2    19    16    1
     3    16    15    1
     4    16    17    2
     5     2    15    1
     6     2     8    2
     7     9     7    1
     8    37    36   ar
     9    20    17    1
    10    15    40    2
    11    17    18    1
    12     8     7   ar
    13     8    39   ar
    14     7     6   ar
    15    40    18    1
    16    40    43    1
    17    18     3    2
    18    36    35    1
    19    36    38   ar
    20    39     5   ar
    21    39    43    1
    22     6    10    1
    23     6     5   ar
    24    35    34    1
    25     3    22    1
    26    10    11    1
    27     5     1    2
    28    43    41    1
    29    43    42    1
    30    22    41   ar
    31    22    23   ar
    32     1    32    1
    33    41    25   ar
    34    26    23    1
    35    32    42    2
    36    32    31    1
    37    23    24   ar
    38    42    29    1
    39    25    24   ar
    40    25     4    1
    41    31    34    1
    42    31    30    2
    43    29     4    2
    44    29    30    1
    45    24    27    1
    46    13    12   ar
    47    11    12    1
    48    30    33    1
    49    12    14   ar
    50    28    27    2
