@<TRIPOS>MOLECULE
3is9_AC7_A_1.pdb
 37 38 0 0 0
SMALL
GASTEIGER

@<TRIPOS>ATOM
      1  C1        50.0780  -28.7320   38.2230 C.ar  556  AC7556      0.0095
      2  O1        51.1610  -30.4810   35.0620 O.3   556  AC7556     -0.4705
      3  C2        50.8800  -29.0920   37.0940 C.ar  556  AC7556      0.1102
      4  O2        46.2770  -33.0780   43.3100 O.3   556  AC7556     -0.4705
      5  C3        50.4020  -30.1070   36.1830 C.ar  556  AC7556      0.1544
      6  O3        50.8840  -23.4290   36.9350 O.3   556  AC7556     -0.4444
      7  C4        49.0810  -30.6380   36.3720 C.ar  556  AC7556      0.1025
      8  C5        48.3140  -30.2690   37.4840 C.ar  556  AC7556      0.0133
      9  O5        52.7230  -27.4860   37.9320 O.3   556  AC7556     -0.4413
     10  C6        48.7630  -29.2870   38.4090 C.ar  556  AC7556      0.0008
     11  C7        52.2600  -28.4570   36.9450 C.2   556  AC7556      0.3443
     12  O7        48.4850  -34.6450   42.2630 O.3   556  AC7556     -0.4413
     13  C8        47.8620  -28.8750   39.6160 C.2   556  AC7556     -0.0042
     14  C9        47.3970  -27.5950   39.7910 C.2   556  AC7556     -0.0261
     15  C10       46.6500  -32.0640   42.4300 C.ar  556  AC7556      0.1544
     16  C11       45.9410  -30.8010   42.4270 C.ar  556  AC7556      0.1025
     17  C12       46.3310  -29.7760   41.5070 C.ar  556  AC7556      0.0133
     18  C13       47.4390  -29.9640   40.6240 C.ar  556  AC7556      0.0008
     19  C14       48.1220  -31.1970   40.6590 C.ar  556  AC7556      0.0095
     20  C15       47.7750  -32.2300   41.5400 C.ar  556  AC7556      0.1102
     21  C16       48.6310  -33.4810   41.4210 C.2   556  AC7556      0.3443
     22  C17       47.6760  -26.4120   38.8800 C.3   556  AC7556      0.0266
     23  C18       48.8430  -25.5930   39.3880 C.3   556  AC7556      0.0163
     24  C19       49.0600  -24.3980   38.4590 C.3   556  AC7556      0.1099
     25  C20       50.3360  -24.5690   37.6550 C.2   556  AC7556      0.3171
     26  C21       52.1170  -23.4990   36.2090 C.3   556  AC7556      0.2556
     27  C22       51.0120  -29.8900   33.7540 C.3   556  AC7556      0.2525
     28  C23       45.2570  -34.0320   42.9220 C.3   556  AC7556      0.2525
     29  C24       53.9920  -27.6510   38.5720 C.3   556  AC7556      0.2560
     30  C25       49.1610  -35.8510   41.8700 C.3   556  AC7556      0.2560
     31  O35       52.9960  -28.7190   35.9900 O.2   556  AC7556     -0.2448
     32  O36       49.5160  -33.5310   40.5610 O.2   556  AC7556     -0.2448
     33  O37       50.9150  -25.6540   37.5960 O.2   556  AC7556     -0.2501
     34  N69       48.1740  -32.3420   34.8860 N.1   556  AC7556     -0.1907
     35  N74       44.0190  -30.3670   43.9280 N.1   556  AC7556     -0.1907
     36  C77       48.6020  -31.5380   35.5970 C.1   556  AC7556      0.1035
     37  C82       44.9210  -30.5790   43.2150 C.1   556  AC7556      0.1035
@<TRIPOS>BOND
     1    27     2    1
     2    34    36    3
     3     2     5    1
     4    36     7    1
     5    31    11    2
     6     5     7   ar
     7     5     3   ar
     8    26     6    1
     9     7     8   ar
    10     6    25    1
    11    11     3    1
    12    11     9    1
    13     3     1   ar
    14     8    10   ar
    15    33    25    2
    16    25    24    1
    17     9    29    1
    18     1    10   ar
    19    10    13    1
    20    24    23    1
    21    22    23    1
    22    22    14    1
    23    13    14    2
    24    13    18    1
    25    32    21    2
    26    18    19   ar
    27    18    17   ar
    28    19    20   ar
    29    21    20    1
    30    21    12    1
    31    17    16   ar
    32    20    15   ar
    33    30    12    1
    34    16    15   ar
    35    16    37    1
    36    15     4    1
    37    28     4    1
    38    37    35    3
