@<TRIPOS>MOLECULE
3isd_F2A_A_1.pdb
 30 32 0 0 0
SMALL
GASTEIGER

@<TRIPOS>ATOM
      1  PA        -4.0600    2.7630   34.1930 P.3   412  F2A412      0.3820
      2  O1A       -5.2740    2.7110   35.0460 O.3   412  F2A412     -0.1392
      3  O2A       -2.8360    3.4200   34.7060 O.2   412  F2A412     -0.2548
      4  C3A       -3.5640    0.9780   33.9530 C.3   412  F2A412      0.2357
      5  O5'       -4.4520    3.4420   32.8030 O.3   412  F2A412     -0.2896
      6  PB        -4.6700   -0.3640   33.2690 P.3   412  F2A412      0.3895
      7  O1B       -4.1150   -0.5410   31.9040 O.2   412  F2A412     -0.2544
      8  O2B       -6.0980    0.0150   33.4430 O.3   412  F2A412     -0.1388
      9  O3B       -4.4150   -1.6020   34.0690 O.3   412  F2A412     -0.2026
     10  PG        -4.4760   -1.6410   35.5660 P.3   412  F2A412      0.5389
     11  O1G       -3.0700   -1.6650   36.0280 O.3   412  F2A412     -0.1143
     12  O2G       -5.3870   -2.7400   35.9510 O.2   412  F2A412     -0.2220
     13  O3G       -5.0680   -0.3770   36.0780 O.3   412  F2A412     -0.1143
     14  C5'       -5.5480    2.9610   32.0280 C.3   412  F2A412      0.1835
     15  C4'       -5.3310    3.2450   30.5550 C.3   412  F2A412      0.1795
     16  O4'       -4.8150    4.5840   30.3530 O.3   412  F2A412     -0.3155
     17  C1'       -3.9550    4.5930   29.2240 C.3   412  F2A412      0.2873
     18  N9        -2.6590    5.1550   29.6230 N.pl3 412  F2A412     -0.1460
     19  C4        -1.6000    5.4510   28.7930 C.2   412  F2A412      0.3518
     20  N3        -1.5210    5.2620   27.4610 N.2   412  F2A412     -0.0055
     21  C2        -0.3450    5.6880   26.9910 C.3   412  F2A412      0.5254
     22  N1         0.6820    6.2390   27.6510 N.2   412  F2A412      0.0021
     23  C6         0.5710    6.4180   28.9900 C.2   412  F2A412      0.4393
     24  N6         1.5900    6.9780   29.6510 N.pl3 412  F2A412      0.2180
     25  C5        -0.6250    6.0030   29.6100 C.2   412  F2A412      0.2526
     26  N7        -1.0510    6.0370   30.9310 N.2   412  F2A412     -0.2095
     27  C8        -2.2540    5.5200   30.8870 C.3   412  F2A412      0.3377
     28  C2'       -3.8910    3.1670   28.6710 C.3   412  F2A412      0.1151
     29  C3'       -4.3200    2.3410   29.8780 C.3   412  F2A412      0.1883
     30  O3'       -4.9660    1.1410   29.4870 O.3   412  F2A412     -0.2202
@<TRIPOS>BOND
     1    21    20    1
     2    21    22    1
     3    20    19    2
     4    22    23    2
     5    28    17    1
     6    28    29    1
     7    19    25    1
     8    19    18    1
     9    23    25    1
    10    23    24    1
    11    17    18    1
    12    17    16    1
    13    30    29    1
    14    25    26    2
    15    18    27    1
    16    29    15    1
    17    16    15    1
    18    15    14    1
    19    27    26    1
    20     7     6    2
    21    14     5    1
    22     5     1    1
    23     6     8    1
    24     6     4    1
    25     6     9    1
    26     4     1    1
    27     9    10    1
    28     1     3    2
    29     1     2    1
    30    10    12    2
    31    10    11    1
    32    10    13    1
