@<TRIPOS>MOLECULE
3ise_HEM_B_1.pdb
 43 50 0 0 0
SMALL
GASTEIGER

@<TRIPOS>ATOM
      1  CHA      -40.3240   19.1920   45.2590 C.2   159  HEM159      0.0000
      2  CHB      -35.5690   19.7360   46.2530 C.2   159  HEM159      0.0000
      3  CHC      -36.6230   22.6910   50.0470 C.2   159  HEM159      0.0000
      4  CHD      -41.3370   22.0130   49.1700 C.2   159  HEM159      0.0000
      5  C1A      -38.9470   19.0860   45.1650 C.ar  159  HEM159      0.0000
      6  C2A      -38.1770   18.3650   44.1630 C.ar  159  HEM159      0.0000
      7  C3A      -36.8870   18.5370   44.4530 C.ar  159  HEM159      0.0000
      8  C4A      -36.7640   19.3640   45.6380 C.ar  159  HEM159      0.0000
      9  CMA      -35.6770   17.9720   43.7010 C.3   159  HEM159      0.0000
     10  CAA      -38.7300   17.5480   42.9820 C.3   159  HEM159      0.0000
     11  CBA      -38.7830   18.4500   41.7590 C.3   159  HEM159      0.0000
     12  CGA      -39.5160   17.8760   40.5690 C.2   159  HEM159      0.0000
     13  O1A      -38.8870   17.3290   39.6290 O.co2 159  HEM159      0.0000
     14  O2A      -40.7520   18.0140   40.5370 O.co2 159  HEM159      0.0000
     15  C1B      -35.4550   20.5570   47.3610 C.2   159  HEM159      0.0000
     16  C2B      -34.2320   20.9830   48.0130 C.2   159  HEM159      0.0000
     17  C3B      -34.5770   21.7780   49.0230 C.2   159  HEM159      0.0000
     18  C4B      -35.9970   21.9030   49.0860 C.2   159  HEM159      0.0000
     19  CMB      -32.7770   20.6160   47.6500 C.3   159  HEM159      0.0000
     20  CAB      -33.6560   22.4680   50.0270 C.2   159  HEM159      0.0000
     21  CBB      -32.4930   21.8480   50.2540 C.2   159  HEM159      0.0000
     22  C1C      -37.9740   22.8040   50.1520 C.ar  159  HEM159      0.0000
     23  C2C      -38.7310   23.5670   51.1180 C.ar  159  HEM159      0.0000
     24  C3C      -40.0240   23.3460   50.8420 C.ar  159  HEM159      0.0000
     25  C4C      -40.1440   22.4540   49.7100 C.ar  159  HEM159      0.0000
     26  CMC      -38.1710   24.4640   52.2330 C.3   159  HEM159      0.0000
     27  CAC      -41.2450   23.9260   51.5550 C.2   159  HEM159      0.0000
     28  CBC      -41.0670   25.0530   52.2430 C.2   159  HEM159      0.0000
     29  C1D      -41.5090   21.1860   48.0720 C.2   159  HEM159      0.0000
     30  C2D      -42.8000   20.7320   47.5730 C.2   159  HEM159      0.0000
     31  C3D      -42.4940   19.8780   46.3680 C.2   159  HEM159      0.0000
     32  C4D      -41.0490   19.8690   46.2470 C.2   159  HEM159      0.0000
     33  CMD      -44.1900   21.0570   48.1360 C.3   159  HEM159      0.0000
     34  CAD      -43.5200   19.1760   45.4980 C.3   159  HEM159      0.0000
     35  CBD      -43.8200   17.8560   46.1650 C.3   159  HEM159      0.0000
     36  CGD      -44.6260   17.0150   45.2130 C.2   159  HEM159      0.0000
     37  O1D      -44.0380   16.4690   44.2550 O.co2 159  HEM159      0.0000
     38  O2D      -45.8610   16.8960   45.4080 O.co2 159  HEM159      0.0000
     39  NA       -38.0590   19.6770   46.0400 N.ar  159  HEM159      0.0000
     40  NB       -36.5160   21.1370   48.0410 N.2   159  HEM159      0.0000
     41  NC       -38.8530   22.1360   49.3040 N.ar  159  HEM159      0.0000
     42  ND       -40.5130   20.6590   47.2700 N.2   159  HEM159      0.0000
     43 FE        -38.5140   20.8950   47.5530 Fe    159  HEM159      0.0000
@<TRIPOS>BOND
     1    13    12   ar
     2    14    12   ar
     3    12    11    1
     4    11    10    1
     5    10     6    1
     6     9     7    1
     7     6     7   ar
     8     6     5   ar
     9    37    36   ar
    10     7     8   ar
    11     5     1    2
    12     5    39   ar
    13    36    38   ar
    14    36    35    1
    15     1    32    1
    16    34    35    1
    17    34    31    1
    18     8    39   ar
    19     8     2    2
    20    39    43    1
    21    32    31    1
    22    32    42    2
    23     2    15    1
    24    31    30    2
    25    42    43    1
    26    42    29    1
    27    15    16    1
    28    15    40    2
    29    43    40    1
    30    43    41    1
    31    30    29    1
    32    30    33    1
    33    19    16    1
    34    16    17    2
    35    40    18    1
    36    29     4    2
    37    17    18    1
    38    17    20    1
    39    18     3    2
    40     4    25    1
    41    41    25   ar
    42    41    22   ar
    43    25    24   ar
    44    20    21    2
    45     3    22    1
    46    22    23   ar
    47    24    23   ar
    48    24    27    1
    49    23    26    1
    50    27    28    2
