@<TRIPOS>MOLECULE
3isf_HEM_B_1.pdb
 43 50 0 0 0
SMALL
GASTEIGER

@<TRIPOS>ATOM
      1  CHA       27.6180   43.6780   19.5440 C.2   159  HEM159      0.0000
      2  CHB       31.6720   44.9960   21.8820 C.2   159  HEM159      0.0000
      3  CHC       32.3260   40.3140   22.8090 C.2   159  HEM159      0.0000
      4  CHD       28.3540   38.8900   20.4030 C.2   159  HEM159      0.0000
      5  C1A       28.6090   44.4820   20.1210 C.2   159  HEM159      0.0000
      6  C2A       28.6870   45.9340   20.1160 C.2   159  HEM159      0.0000
      7  C3A       29.7640   46.3060   20.7850 C.2   159  HEM159      0.0000
      8  C4A       30.4680   45.1170   21.2030 C.2   159  HEM159      0.0000
      9  CMA       30.2360   47.7380   21.0630 C.3   159  HEM159      0.0000
     10  CAA       27.5940   46.8600   19.5250 C.3   159  HEM159      0.0000
     11  CBA       26.5040   46.8570   20.5870 C.3   159  HEM159      0.0000
     12  CGA       25.4950   47.9780   20.3600 C.2   159  HEM159      0.0000
     13  O1A       25.7670   49.1490   20.6310 O.co2 159  HEM159      0.0000
     14  O2A       24.3510   47.7340   19.9530 O.co2 159  HEM159      0.0000
     15  C1B       32.2200   43.8150   22.3690 C.ar  159  HEM159      0.0000
     16  C2B       33.3720   43.6350   23.2130 C.ar  159  HEM159      0.0000
     17  C3B       33.5270   42.3350   23.4670 C.ar  159  HEM159      0.0000
     18  C4B       32.5150   41.6540   22.7600 C.ar  159  HEM159      0.0000
     19  CMB       34.2200   44.8230   23.7170 C.3   159  HEM159      0.0000
     20  CAB       34.6020   41.6590   24.2980 C.3   159  HEM159      0.0000
     21  CBB       35.8050   42.2790   24.2750 C.3   159  HEM159      0.0000
     22  C1C       31.3080   39.5820   22.2740 C.2   159  HEM159      0.0000
     23  C2C       31.2810   38.1430   22.3260 C.2   159  HEM159      0.0000
     24  C3C       30.2140   37.7050   21.6730 C.2   159  HEM159      0.0000
     25  C4C       29.5020   38.8540   21.1440 C.2   159  HEM159      0.0000
     26  CMC       32.3180   37.2770   23.0460 C.3   159  HEM159      0.0000
     27  CAC       29.9170   36.2230   21.5490 C.2   159  HEM159      0.0000
     28  CBC       28.7780   35.8080   21.0120 C.2   159  HEM159      0.0000
     29  C1D       27.7900   40.0430   19.8940 C.ar  159  HEM159      0.0000
     30  C2D       26.6320   40.1410   19.0260 C.ar  159  HEM159      0.0000
     31  C3D       26.4490   41.6230   18.7840 C.ar  159  HEM159      0.0000
     32  C4D       27.4740   42.3050   19.5350 C.ar  159  HEM159      0.0000
     33  CMD       25.7750   39.0040   18.4140 C.3   159  HEM159      0.0000
     34  CAD       25.4050   42.3010   17.8630 C.3   159  HEM159      0.0000
     35  CBD       26.0300   42.1910   16.4880 C.3   159  HEM159      0.0000
     36  CGD       25.0820   42.5990   15.3680 C.2   159  HEM159      0.0000
     37  O1D       24.9890   43.7990   15.0840 O.co2 159  HEM159      0.0000
     38  O2D       24.4140   41.7700   14.7380 O.co2 159  HEM159      0.0000
     39  NA        29.7340   44.0470   20.7800 N.2   159  HEM159      0.0000
     40  NB        31.7300   42.5780   22.0980 N.ar  159  HEM159      0.0000
     41  NC        30.2110   39.9960   21.5310 N.2   159  HEM159      0.0000
     42  ND        28.2630   41.3350   20.1840 N.ar  159  HEM159      0.0000
     43 FE         29.9440   41.9910   21.1220 Fe    159  HEM159      0.0000
@<TRIPOS>BOND
     1    38    36   ar
     2    37    36   ar
     3    36    35    1
     4    35    34    1
     5    34    31    1
     6    33    30    1
     7    31    30   ar
     8    31    32   ar
     9    30    29   ar
    10    10     6    1
    11    10    11    1
    12    32     1    2
    13    32    42   ar
    14     1     5    1
    15    29    42   ar
    16    29     4    2
    17    14    12   ar
    18     6     5    1
    19     6     7    2
    20     5    39    2
    21    42    43    1
    22    12    11    1
    23    12    13   ar
    24     4    25    1
    25    39    43    1
    26    39     8    1
    27     7     9    1
    28     7     8    1
    29    28    27    2
    30    43    41    1
    31    43    40    1
    32    25    41    2
    33    25    24    1
    34     8     2    2
    35    41    22    1
    36    27    24    1
    37    24    23    2
    38     2    15    1
    39    40    15   ar
    40    40    18   ar
    41    22    23    1
    42    22     3    2
    43    23    26    1
    44    15    16   ar
    45    18     3    1
    46    18    17   ar
    47    16    17   ar
    48    16    19    1
    49    17    20    1
    50    21    20    1
