@<TRIPOS>MOLECULE
3isg_DRW_A_1.pdb
 27 28 0 0 0
SMALL
GASTEIGER

@<TRIPOS>ATOM
      1  CAA       -9.0360   17.2200  -38.9950 C.3   300  DRW300      0.0360
      2  CAB      -10.7840   17.1180  -42.2300 C.3   300  DRW300      0.0033
      3  NAC      -17.2620   21.7220  -43.7530 N.3   300  DRW300      0.0528
      4  OAD       -7.6690   14.1460  -42.3990 O.2   300  DRW300     -0.2882
      5  OAE      -11.1630   11.5440  -43.1330 O.co2 300  DRW300     -0.2392
      6  OAF      -16.7870   20.8950  -41.3730 O.2   300  DRW300     -0.1371
      7  OAG      -17.9210   19.3800  -42.9510 O.2   300  DRW300     -0.1371
      8  OAH      -13.2280   12.2340  -43.3100 O.co2 300  DRW300     -0.2392
      9  OAI       -8.5790   14.8720  -38.5110 O.3   300  DRW300     -0.2226
     10  CAJ       -8.3010   14.1970  -41.2820 C.2   300  DRW300      0.2115
     11  CAK      -14.7280   15.8340  -45.6270 C.3   300  DRW300      0.0995
     12  CAL      -15.4690   19.2350  -44.5910 C.3   300  DRW300      0.1340
     13  CAM      -14.3050   17.2520  -43.7150 C.3   300  DRW300      0.0312
     14  NAN      -10.6010   13.7350  -41.4170 N.2   300  DRW300     -0.2688
     15  NAO      -15.4250   17.1180  -45.7940 N.3   300  DRW300     -0.2170
     16  NAP      -15.4070   19.8480  -43.2540 N.3   300  DRW300     -0.0626
     17  SAQ      -12.3040   15.5330  -44.3450 S.3   300  DRW300     -0.1341
     18  CAR      -12.0370   12.4330  -42.9990 C.2   300  DRW300      0.4014
     19  CAS      -11.6110   13.7400  -42.3970 C.2   300  DRW300      0.1428
     20  CAT       -8.4550   15.8910  -39.4950 C.3   300  DRW300      0.1613
     21  CAU      -11.4830   15.9180  -41.5830 C.3   300  DRW300      0.0387
     22  CAV      -15.5450   17.7170  -44.4580 C.3   300  DRW300      0.0930
     23  CAW      -14.0930   15.8480  -44.2370 C.3   300  DRW300      0.0668
     24  CAX       -9.0570   15.4210  -40.8330 C.3   300  DRW300      0.1175
     25  CAY      -10.5210   15.0230  -40.7590 C.3   300  DRW300      0.1141
     26  CAZ      -12.1030   14.9750  -42.6350 C.3   300  DRW300      0.0957
     27  SBA      -16.8620   20.4430  -42.8060 S.O2  300  DRW300      0.1465
@<TRIPOS>BOND
     1    15    11    1
     2    15    22    1
     3    11    23    1
     4    12    22    1
     5    12    16    1
     6    22    13    1
     7    17    23    1
     8    17    26    1
     9    23    13    1
    10     3    27    1
    11     8    18   ar
    12    16    27    1
    13     5    18   ar
    14    18    19    1
    15     7    27    2
    16    27     6    2
    17    26    19    1
    18    26    21    1
    19     4    10    2
    20    19    14    2
    21     2    21    1
    22    21    25    1
    23    14    25    1
    24    10    24    1
    25    24    25    1
    26    24    20    1
    27    20     1    1
    28    20     9    1
