@<TRIPOS>MOLECULE
3isi_B88_X_1.pdb
 15 14 0 0 0
SMALL
GASTEIGER

@<TRIPOS>ATOM
      1  O4       -14.2170   39.4480   -2.5750 O.2   2000  B882000    -0.2855
      2  P2       -13.5250   38.0780   -2.7250 P.3   2000  B882000     0.2709
      3  O5       -12.2450   37.9460   -1.9510 O.3   2000  B882000    -0.1664
      4  C9       -14.5840   36.5940   -2.4640 C.3   2000  B882000     0.1712
      5  N1       -14.4650   35.9600   -1.1620 N.3   2000  B882000    -0.1224
      6  C12      -16.0440   36.9620   -2.5680 C.3   2000  B882000     0.0311
      7  C6       -13.2240   38.0620   -4.5310 C.3   2000  B882000     0.1026
      8  C7       -11.9270   38.6290   -5.1470 C.3   2000  B882000     0.1244
      9  C8       -10.7240   38.8630   -4.2690 C.2   2000  B882000     0.3654
     10  O1       -10.1430   37.8150   -3.9680 O.co2 2000  B882000    -0.2456
     11  O6       -10.3140   40.0220   -3.9830 O.co2 2000  B882000    -0.2456
     12  C13      -12.1160   39.8370   -6.0610 C.3   2000  B882000     0.1258
     13  C14      -13.3960   39.7380   -6.8620 C.2   2000  B882000     0.3654
     14  O3       -14.1600   40.7180   -6.7210 O.co2 2000  B882000    -0.2456
     15  O2       -13.6370   38.7130   -7.5710 O.co2 2000  B882000    -0.2456
@<TRIPOS>BOND
     1    15    13   ar
     2    13    14   ar
     3    13    12    1
     4    12     8    1
     5     8     7    1
     6     8     9    1
     7     7     2    1
     8     9    11   ar
     9     9    10   ar
    10     2     1    2
    11     2     4    1
    12     2     3    1
    13     6     4    1
    14     4     5    1
