@<TRIPOS>MOLECULE
3isj_A8D_A_1.pdb
 18 19 0 0 0
SMALL
GASTEIGER

@<TRIPOS>ATOM
      1  CAA       11.0400    9.5660   -5.2060 C.3   308  A8D308      0.2525
      2  CAB       14.2820   10.5410    4.7060 C.3   308  A8D308      0.2018
      3  OAC       17.0380   11.3770    1.0800 O.2   308  A8D308     -0.2639
      4  OAD       16.8010   10.4920    3.8290 O.2   308  A8D308     -0.1527
      5  OAE       15.7360   12.7050    3.6400 O.2   308  A8D308     -0.1527
      6  CAF       14.6860   10.1600   -4.7680 C.ar  308  A8D308      0.0395
      7  CAG       15.6850   10.4580   -3.8230 C.ar  308  A8D308      0.0352
      8  CAH       13.0970    9.9720   -2.9520 C.ar  308  A8D308      0.0395
      9  CAI       14.1390   10.4010   -0.7280 C.2   308  A8D308      0.0395
     10  NAJ       14.9930   10.8070    1.9470 N.am  308  A8D308     -0.0567
     11  NAK       16.1710   10.7820   -1.4720 N.2   308  A8D308     -0.3972
     12  OAL       12.4860    9.5880   -5.3440 O.3   308  A8D308     -0.4714
     13  CAM       15.8730   10.9740    0.9110 C.2   308  A8D308      0.3150
     14  CAN       13.3710    9.9150   -4.3520 C.ar  308  A8D308      0.1389
     15  CAO       15.3970   10.7170   -0.3580 C.2   308  A8D308      0.1878
     16  CAP       14.1150   10.2490   -2.0700 C.ar  308  A8D308      0.0353
     17  CAQ       15.3830   10.5020   -2.5250 C.ar  308  A8D308      0.1318
     18  SAR       15.5060   11.1820    3.5930 S.O2  308  A8D308      0.0779
@<TRIPOS>BOND
     1    12     1    1
     2    12    14    1
     3     6    14   ar
     4     6     7   ar
     5    14     8   ar
     6     7    17   ar
     7     8    16   ar
     8    17    16   ar
     9    17    11    2
    10    16     9    2
    11    11    15    2
    12     9    15    1
    13    15    13    1
    14    13     3    2
    15    13    10   am
    16    10    18    1
    17    18     5    2
    18    18     4    2
    19    18     2    1
