@<TRIPOS>MOLECULE
3isl_PLP_A_1.pdb
 15 15 0 0 0
SMALL
GASTEIGER

@<TRIPOS>ATOM
      1  N1        11.7000   -2.2290   24.3770 N.ar  419  PLP419     -0.2452
      2  C2        11.7930   -1.0310   23.5260 C.ar  419  PLP419      0.0978
      3  C2A       12.8810   -0.1360   23.5060 C.3   419  PLP419      0.0555
      4  C3        10.7640   -0.6690   22.6470 C.ar  419  PLP419      0.2049
      5  O3        10.8540    0.4420   21.8480 O.3   419  PLP419     -0.2857
      6  C4         9.6190   -1.4210   22.5070 C.ar  419  PLP419      0.0182
      7  C4A        8.5090   -0.9680   21.4810 C.3   419  PLP419      0.0342
      8  C5         9.4930   -2.5680   23.2810 C.ar  419  PLP419      0.0261
      9  C6        10.4890   -2.9860   24.2200 C.ar  419  PLP419      0.0965
     10  C5A        8.2110   -3.3190   23.1370 C.3   419  PLP419      0.1815
     11  O4P        8.4520   -4.6140   22.8420 O.3   419  PLP419     -0.2653
     12  P          7.1130   -5.4190   22.6020 P.3   419  PLP419      0.5329
     13  O1P        5.8930   -4.5080   22.5310 O.3   419  PLP419     -0.1145
     14  O2P        7.1900   -6.4960   23.8660 O.3   419  PLP419     -0.1145
     15  O3P        7.2850   -6.3410   21.2080 O.2   419  PLP419     -0.2224
@<TRIPOS>BOND
     1    15    12    2
     2     7     6    1
     3     5     4    1
     4     6     4   ar
     5     6     8   ar
     6    13    12    1
     7    12    11    1
     8    12    14    1
     9     4     2   ar
    10    11    10    1
    11    10     8    1
    12     8     9   ar
    13     3     2    1
    14     2     1   ar
    15     9     1   ar
