@<TRIPOS>MOLECULE
3isn_EDM_C_1.pdb
 15 15 0 0 0
SMALL
GASTEIGER

@<TRIPOS>ATOM
      1  C23      -56.0850  -63.7300   17.2220 C.3   561  EDM561      0.1143
      2  N21      -55.3730  -62.5290   16.8220 N.pl3 561  EDM561     -0.2824
      3  C25      -55.7110  -61.2590   17.4230 C.3   561  EDM561      0.1143
      4  C1       -54.4460  -62.5350   15.7010 C.2   561  EDM561      0.1810
      5  C2       -54.4400  -61.3940   14.8740 C.3   561  EDM561      0.1356
      6  N6       -53.6310  -63.5940   15.4520 N.2   561  EDM561     -0.3147
      7  C5       -52.7890  -63.5480   14.3920 C.1   561  EDM561      0.2526
      8  S17      -51.6930  -64.9680   13.9880 S.O2  561  EDM561      0.0850
      9  C29      -52.7330  -66.4550   13.8010 C.3   561  EDM561      0.1960
     10  O27      -50.9290  -64.6410   12.5500 O.2   561  EDM561     -0.1572
     11  O19      -50.5740  -65.2630   15.2040 O.2   561  EDM561     -0.1572
     12  N4       -52.8030  -62.3750   13.5430 N.2   561  EDM561     -0.3299
     13  C3       -53.6020  -61.3380   13.7820 C.2   561  EDM561      0.1311
     14  C13      -53.6140  -60.1040   12.8640 C.2   561  EDM561      0.0290
     15  C15      -53.6480  -60.2410   11.5470 C.2   561  EDM561      0.0024
@<TRIPOS>BOND
     1    15    14    2
     2    10     8    2
     3    14    13    1
     4    12    13    2
     5    12     7    2
     6    13     5    1
     7     9     8    1
     8     8     7    1
     9     8    11    2
    10     7     6    2
    11     5     4    1
    12     6     4    2
    13     4     2    1
    14     2     1    1
    15     2     3    1
