@<TRIPOS>MOLECULE
3iso_GSH_A_1.pdb
 20 19 0 0 0
SMALL
GASTEIGER

@<TRIPOS>ATOM
      1  N1       -39.2880    4.6460   -5.3200 N.3   219  GSH219     -0.1208
      2  CA1      -37.8450    4.5400   -5.5330 C.3   219  GSH219      0.1948
      3  C1       -37.3940    3.6710   -6.6940 C.2   219  GSH219      0.3819
      4  O11      -37.9070    2.5360   -6.6000 O.co2 219  GSH219     -0.2441
      5  O12      -36.3710    3.8490   -7.3940 O.co2 219  GSH219     -0.2441
      6  CB1      -36.8760    4.7430   -4.4010 C.3   219  GSH219      0.0402
      7  CG1      -35.4600    5.2220   -4.8660 C.3   219  GSH219      0.0889
      8  CD1      -34.6020    5.3590   -3.5560 C.2   219  GSH219      0.2418
      9  OE1      -35.2670    5.3240   -2.3880 O.2   219  GSH219     -0.2733
     10  N2       -33.3080    5.5590   -3.6530 N.am  219  GSH219     -0.1968
     11  CA2      -32.4300    5.6280   -2.4950 C.3   219  GSH219      0.1843
     12  C2       -31.4310    6.7200   -2.8410 C.2   219  GSH219      0.2627
     13  O2       -30.1580    6.5190   -2.4610 O.2   219  GSH219     -0.2714
     14  CB2      -31.6160    4.3240   -2.6310 C.3   219  GSH219      0.0997
     15  SG2      -32.6190    2.8000   -2.2570 S.3   219  GSH219     -0.0797
     16  N3       -31.8280    7.7590   -3.5400 N.am  219  GSH219     -0.1917
     17  CA3      -30.8550    8.7840   -3.9370 C.3   219  GSH219      0.2285
     18  C3       -31.3220   10.1950   -3.5020 C.2   219  GSH219      0.3865
     19  O31      -32.4220   10.2990   -2.9300 O.co2 219  GSH219     -0.2437
     20  O32      -30.5910   11.1430   -3.8470 O.co2 219  GSH219     -0.2437
@<TRIPOS>BOND
     1     5     3   ar
     2     3     4   ar
     3     3     2    1
     4     2     1    1
     5     2     6    1
     6     7     6    1
     7     7     8    1
     8    17    16    1
     9    17    18    1
    10    20    18   ar
    11    10     8   am
    12    10    11    1
    13     8     9    2
    14    16    12   am
    15    18    19   ar
    16    12    11    1
    17    12    13    2
    18    14    11    1
    19    14    15    1
