@<TRIPOS>MOLECULE
3iss_EPU_A_1.pdb
 44 46 0 0 0
SMALL
GASTEIGER

@<TRIPOS>ATOM
      1  N1U       -6.6410  -13.4470   -3.0100 N.am  601  EPU601     -0.1766
      2  C2U       -7.1240  -14.7250   -2.9110 C.1   601  EPU601      0.2845
      3  N3U       -6.6650  -15.5980   -2.0290 N.2   601  EPU601     -0.2452
      4  C4U       -5.6980  -15.2340   -1.2170 C.1   601  EPU601      0.2182
      5  C5U       -5.1900  -13.9610   -1.2970 C.2   601  EPU601      0.1242
      6  C6U       -5.6850  -13.0600   -2.2130 C.2   601  EPU601      0.0929
      7  O2U       -8.0100  -15.0620   -3.6700 O.2   601  EPU601     -0.1918
      8  O4U       -5.2740  -16.0480   -0.4080 O.2   601  EPU601     -0.2085
      9  C1D       -7.2320  -12.5820   -4.0010 C.3   601  EPU601      0.2401
     10  C2D       -7.6600  -11.2930   -3.3680 C.3   601  EPU601      0.2319
     11  O2D       -9.0650  -11.1990   -3.4050 O.3   601  EPU601     -0.2157
     12  C3D       -7.1370  -10.2390   -4.2750 C.3   601  EPU601      0.2158
     13  C4D       -6.0930  -10.9070   -5.1270 C.3   601  EPU601      0.1799
     14  O4D       -6.3210  -12.2840   -5.0350 O.3   601  EPU601     -0.3320
     15  O3D       -8.2400   -9.8360   -5.0600 O.3   601  EPU601     -0.2175
     16  C5D       -4.6810  -10.7320   -4.6180 C.3   601  EPU601      0.1813
     17  O5D       -4.5030   -9.6740   -3.7060 O.3   601  EPU601     -0.3112
     18  PA        -3.1430   -9.5890   -2.9850 P.3   601  EPU601      0.2189
     19  O1A       -3.0910  -10.6890   -2.0790 O.3   601  EPU601     -0.4371
     20  O2A       -2.1740   -9.4550   -4.0380 O.2   601  EPU601     -0.5170
     21  O3A       -3.2630   -8.2410   -2.2060 O.3   601  EPU601     -0.2703
     22  PB        -3.0210   -7.9580   -0.6700 P.3   601  EPU601      0.2208
     23  O1B       -1.8490   -8.6330   -0.1880 O.2   601  EPU601     -0.5170
     24  O2B       -4.2350   -8.1290    0.0830 O.3   601  EPU601     -0.4371
     25  C1        -1.5870   -5.9570   -1.0160 C.3   601  EPU601      0.2632
     26  C2        -1.5590   -4.5210   -0.5750 C.3   601  EPU601      0.1813
     27  C3        -2.7840   -3.8320   -1.0950 C.3   601  EPU601      0.1734
     28  C4        -2.6850   -3.8910   -2.5690 C.3   601  EPU601      0.2103
     29  C5        -2.6940   -5.3370   -2.9390 C.3   601  EPU601      0.1833
     30  C6        -2.5970   -5.3690   -4.4240 C.3   601  EPU601      0.2142
     31  C7        -0.7350   -4.3130    1.6070 C.2   601  EPU601      0.2420
     32  C8        -0.9520   -4.2270    3.0680 C.3   601  EPU601      0.0964
     33  N2        -1.7740   -4.4730    0.8340 N.am  601  EPU601     -0.1994
     34  O1        -2.8150   -6.4500   -0.6700 O.3   601  EPU601     -0.2864
     35  O3        -2.7760   -2.4830   -0.7410 O.3   601  EPU601     -0.3429
     36  O4        -3.8520   -3.2760   -3.0240 O.3   601  EPU601     -0.2178
     37  O5        -1.5720   -5.9780   -2.4100 O.3   601  EPU601     -0.3260
     38  O6        -1.7830   -4.2610   -4.7070 O.3   601  EPU601     -0.2176
     39  O7         0.3520   -4.2500    1.1460 O.2   601  EPU601     -0.2733
     40  C1E       -3.0590   -1.0700    1.2070 C.2   601  EPU601      0.3913
     41  O1E       -2.5150   -0.1290    0.6530 O.co2 601  EPU601     -0.2430
     42  O2E       -3.1390   -1.0800    2.4340 O.co2 601  EPU601     -0.2430
     43  C2E       -3.5950   -2.2050    0.3800 C.3   601  EPU601      0.2178
     44  C3E       -5.0050   -1.9230   -0.0830 C.3   601  EPU601      0.0444
@<TRIPOS>BOND
     1    13    14    1
     2    13    16    1
     3    13    12    1
     4    15    12    1
     5    14     9    1
     6    38    30    1
     7    16    17    1
     8    30    29    1
     9    12    10    1
    10    20    18    2
    11     9    10    1
    12     9     1    1
    13    17    18    1
    14     7     2    2
    15    11    10    1
    16    36    28    1
    17     1     2   am
    18     1     6    1
    19    18    21    1
    20    18    19    1
    21    29    28    1
    22    29    37    1
    23     2     3    2
    24    28    27    1
    25    37    25    1
    26     6     5    2
    27    21    22    1
    28     3     4    2
    29     5     4    1
    30     4     8    2
    31    27    35    1
    32    27    26    1
    33    25    34    1
    34    25    26    1
    35    35    43    1
    36    22    34    1
    37    22    23    2
    38    22    24    1
    39    26    33    1
    40    44    43    1
    41    43    40    1
    42    41    40   ar
    43    33    31   am
    44    39    31    2
    45    40    42   ar
    46    31    32    1
