@<TRIPOS>MOLECULE
3it1_TLA_A_1.pdb
 10 9 0 0 0
SMALL
GASTEIGER

@<TRIPOS>ATOM
      1  O1         9.6930   21.8990  -10.0280 O.co2 402  TLA402     -0.2427
      2  O11       11.0620   20.5980  -11.2030 O.co2 402  TLA402     -0.2427
      3  C1        10.0820   20.7930  -10.4370 C.2   402  TLA402      0.3979
      4  C2         9.3000   19.5590   -9.9540 C.3   402  TLA402      0.2950
      5  O2         8.2710   19.9180   -8.9990 O.3   402  TLA402     -0.2075
      6  C3        10.3010   18.5730   -9.3490 C.3   402  TLA402      0.2950
      7  O3        10.9960   19.1980   -8.2830 O.3   402  TLA402     -0.2075
      8  C4         9.5500   17.3310   -8.8800 C.2   402  TLA402      0.3979
      9  O4         8.8870   16.7470   -9.7470 O.co2 402  TLA402     -0.2427
     10  O41        9.6330   16.9730   -7.6720 O.co2 402  TLA402     -0.2427
@<TRIPOS>BOND
     1     2     3   ar
     2     3     1   ar
     3     3     4    1
     4     4     6    1
     5     4     5    1
     6     9     8   ar
     7     6     8    1
     8     6     7    1
     9     8    10   ar
