@<TRIPOS>MOLECULE
3it3_3AM_A_1.pdb
 23 25 0 0 0
SMALL
GASTEIGER

@<TRIPOS>ATOM
      1  O1P        9.5620   17.3790   -7.3140 O.3   343  3AM343     -0.1145
      2  P          9.6200   18.2550   -8.6830 P.3   343  3AM343      0.5327
      3  O2P        8.8290   19.6530   -8.6000 O.3   343  3AM343     -0.1145
      4  O3P        9.2300   17.4750   -9.8680 O.2   343  3AM343     -0.2224
      5  O2'       10.8620   21.4290   -9.0910 O.3   343  3AM343     -0.2131
      6  C2'       11.1990   20.6780  -10.2200 C.3   343  3AM343      0.2543
      7  C3'       11.7050   19.2720   -9.9500 C.3   343  3AM343      0.1929
      8  O3'       11.2030   18.6590   -8.7930 O.3   343  3AM343     -0.2673
      9  C1'       12.3270   21.3030  -10.9650 C.3   343  3AM343      0.3185
     10  O4'       13.5280   20.5760  -10.7370 O.3   343  3AM343     -0.3135
     11  C4'       13.2610   19.4520   -9.8390 C.3   343  3AM343      0.1824
     12  C5'       14.0720   18.1940  -10.1340 C.3   343  3AM343      0.2142
     13  O5'       13.8050   17.5510  -11.3520 O.3   343  3AM343     -0.2176
     14  N9        12.1340   21.3790  -12.4130 N.pl3 343  3AM343     -0.1439
     15  C8        12.6000   20.4950  -13.3200 C.3   343  3AM343      0.3377
     16  N7        12.3320   21.0480  -14.6290 N.2   343  3AM343     -0.2095
     17  C5        11.7100   22.2950  -14.4480 C.2   343  3AM343      0.2526
     18  C6        11.2360   23.2620  -15.3640 C.2   343  3AM343      0.4393
     19  N6        11.4000   23.0430  -16.7870 N.pl3 343  3AM343      0.2180
     20  C4        11.5760   22.5300  -13.1010 C.2   343  3AM343      0.3518
     21  N3        10.9860   23.7080  -12.6240 N.2   343  3AM343     -0.0055
     22  C2        10.5090   24.6800  -13.5520 C.3   343  3AM343      0.5254
     23  N1        10.6360   24.4490  -14.8980 N.2   343  3AM343      0.0021
@<TRIPOS>BOND
     1    19    18    1
     2    18    23    2
     3    18    17    1
     4    23    22    1
     5    16    17    2
     6    16    15    1
     7    17    20    1
     8    22    21    1
     9    15    14    1
    10    20    21    2
    11    20    14    1
    12    14     9    1
    13    13    12    1
    14     9    10    1
    15     9     6    1
    16    10    11    1
    17     6     7    1
    18     6     5    1
    19    12    11    1
    20     7    11    1
    21     7     8    1
    22     4     2    2
    23     8     2    1
    24     2     3    1
    25     2     1    1
