@<TRIPOS>MOLECULE
3ita_AIC_D_1.pdb
 24 26 0 0 0
SMALL
GASTEIGER

@<TRIPOS>ATOM
      1  C8        25.4810  -85.7570   14.2640 C.ar  501  AIC501     -0.0003
      2  C5        26.0670  -87.4000   12.5960 C.ar  501  AIC501      0.0038
      3  C6        24.3720  -93.0220   12.9690 C.3   501  AIC501      0.0681
      4  N1        27.1820  -90.3600   11.6880 N.am  501  AIC501     -0.1937
      5  C2        25.6070  -95.1170   13.3920 C.2   501  AIC501      0.3833
      6  N3        26.5690  -93.1800   12.3010 N.am  501  AIC501     -0.2594
      7  C4        27.0350  -87.9520   11.6090 C.3   501  AIC501      0.1915
      8  C1        23.5650  -93.6740   14.0910 C.3   501  AIC501      0.0131
      9  C3        27.6650  -89.1980   12.1400 C.2   501  AIC501      0.2635
     10  C7        26.3830  -86.2630   13.3360 C.ar  501  AIC501     -0.0024
     11  C9        24.2500  -86.3890   14.4580 C.ar  501  AIC501     -0.0000
     12  C10       23.9290  -87.5260   13.7190 C.ar  501  AIC501     -0.0003
     13  C11       24.8400  -88.0340   12.7950 C.ar  501  AIC501     -0.0024
     14  C12       25.3930  -94.0120   12.4010 C.3   501  AIC501      0.1888
     15  C13       26.9680  -92.2280   13.3090 C.3   501  AIC501      0.1529
     16  C14       27.7760  -91.6090   12.1360 C.3   501  AIC501      0.1996
     17  C15       27.3230  -92.7780   11.3220 C.2   501  AIC501      0.2491
     18  C16       23.4690  -92.5000   11.8500 C.3   501  AIC501      0.0131
     19  N2        28.1050  -87.0170   11.2740 N.3   501  AIC501     -0.1182
     20  O1        25.8430  -96.2630   12.9520 O.co2 501  AIC501     -0.2438
     21  O2        25.5440  -94.8440   14.6130 O.co2 501  AIC501     -0.2438
     22  O3        28.5830  -89.1200   12.9450 O.2   501  AIC501     -0.2714
     23  O4        27.5560  -93.1530   10.1850 O.2   501  AIC501     -0.2729
     24  S1        25.3250  -91.6730   13.6190 S.3   501  AIC501     -0.1184
@<TRIPOS>BOND
     1    23    17    2
     2    19     7    1
     3    17    16    1
     4    17     6   am
     5     7     9    1
     6     7     2    1
     7     4    16    1
     8     4     9   am
     9    18     3    1
    10    16    15    1
    11     9    22    2
    12     6    14    1
    13     6    15    1
    14    14     3    1
    15    14     5    1
    16     2    13   ar
    17     2    10   ar
    18    13    12   ar
    19    20     5   ar
    20     3    24    1
    21     3     8    1
    22    15    24    1
    23    10     1   ar
    24     5    21   ar
    25    12    11   ar
    26     1    11   ar
