@<TRIPOS>MOLECULE
3ita_AIX_A_1.pdb
 24 25 0 0 0
SMALL
GASTEIGER

@<TRIPOS>ATOM
      1  C8        13.9280  -17.3800    8.4980 C.ar  500  AIX500     -0.0003
      2  C5        14.7540  -15.9700    6.7260 C.ar  500  AIX500      0.0038
      3  C6        10.3080  -17.0290    5.2280 C.3   500  AIX500      0.0658
      4  N1        12.8160  -13.9670    5.1580 N.am  500  AIX500     -0.1953
      5  C2         8.8490  -15.8450    7.0090 C.2   500  AIX500      0.3811
      6  N3         9.8990  -14.6480    5.0930 N.3   500  AIX500     -0.1957
      7  C4        14.9270  -14.6120    6.1600 C.3   500  AIX500      0.1915
      8  C1         9.0550  -17.6680    4.6430 C.3   500  AIX500      0.0129
      9  C3        14.0640  -14.4190    4.9410 C.2   500  AIX500      0.2635
     10  C7        14.1070  -16.1220    7.9460 C.ar  500  AIX500     -0.0024
     11  C9        14.4130  -18.4950    7.8200 C.ar  500  AIX500     -0.0000
     12  C10       15.0810  -18.3460    6.6080 C.ar  500  AIX500     -0.0003
     13  C11       15.2450  -17.0840    6.0510 C.ar  500  AIX500     -0.0024
     14  C12        9.9970  -15.7610    6.0270 C.3   500  AIX500      0.1857
     15  C13       10.7590  -14.7370    3.9250 C.3   500  AIX500      0.1479
     16  C14       11.9190  -13.7420    4.0190 C.3   500  AIX500      0.1856
     17  C15       11.3520  -12.3510    4.0080 C.2   500  AIX500      0.2311
     18  C16       11.1060  -18.0200    6.0700 C.3   500  AIX500      0.0129
     19  N2        16.3150  -14.4100    5.7910 N.3   500  AIX500     -0.1182
     20  O1         7.8660  -15.0920    6.8410 O.co2 500  AIX500     -0.2441
     21  O2         8.9290  -16.6280    7.9840 O.co2 500  AIX500     -0.2441
     22  O3        14.5170  -14.6570    3.8190 O.2   500  AIX500     -0.2714
     23  O4        11.3930  -11.5830    4.9630 O.2   500  AIX500     -0.2863
     24  S1        11.2600  -16.4470    3.8670 S.3   500  AIX500     -0.1212
@<TRIPOS>BOND
     1    22     9    2
     2    24    15    1
     3    24     3    1
     4    15    16    1
     5    15     6    1
     6    17    16    1
     7    17    23    2
     8    16     4    1
     9     8     3    1
    10     9     4   am
    11     9     7    1
    12     6    14    1
    13     3    14    1
    14     3    18    1
    15    19     7    1
    16    14     5    1
    17    13    12   ar
    18    13     2   ar
    19     7     2    1
    20    12    11   ar
    21     2    10   ar
    22    20     5   ar
    23     5    21   ar
    24    11     1   ar
    25    10     1   ar
