@<TRIPOS>MOLECULE
3itc_CIT_A_1.pdb
 13 12 0 0 0
SMALL
GASTEIGER

@<TRIPOS>ATOM
      1  C1       -27.9770  -31.5900  -20.4630 C.2   503  CIT503      0.3680
      2  O1       -27.5540  -30.7200  -19.7370 O.co2 503  CIT503     -0.2455
      3  O2       -27.9350  -32.8590  -20.0260 O.co2 503  CIT503     -0.2455
      4  C2       -28.6110  -31.3000  -21.7880 C.3   503  CIT503      0.1560
      5  C3       -28.1080  -29.9680  -22.3480 C.3   503  CIT503      0.2402
      6  O7       -26.6880  -29.8960  -22.4170 O.3   503  CIT503     -0.2129
      7  C4       -28.6510  -29.7840  -23.7770 C.3   503  CIT503      0.1560
      8  C5       -28.1970  -31.0040  -24.5490 C.2   503  CIT503      0.3680
      9  O3       -27.0200  -31.2720  -24.6350 O.co2 503  CIT503     -0.2455
     10  O4       -29.1260  -31.7150  -25.2040 O.co2 503  CIT503     -0.2455
     11  C6       -28.7050  -28.8240  -21.5530 C.2   503  CIT503      0.3927
     12  O5       -28.0020  -27.9170  -21.1660 O.co2 503  CIT503     -0.2429
     13  O6       -30.0160  -28.9040  -21.2880 O.co2 503  CIT503     -0.2429
@<TRIPOS>BOND
     1    10     8   ar
     2     9     8   ar
     3     8     7    1
     4     7     5    1
     5     6     5    1
     6     5     4    1
     7     5    11    1
     8     4     1    1
     9    11    13   ar
    10    11    12   ar
    11     1     3   ar
    12     1     2   ar
