@<TRIPOS>MOLECULE
3ith_EDM_A_1.pdb
 15 15 0 0 0
SMALL
GASTEIGER

@<TRIPOS>ATOM
      1  C23        0.3630  -21.4800  100.5880 C.3   561  EDM561      0.1143
      2  N21       -0.3710  -22.6970  100.2160 N.pl3 561  EDM561     -0.2824
      3  C25        0.3730  -23.9100   99.8560 C.3   561  EDM561      0.1143
      4  C1        -1.7060  -22.6890  100.1570 C.2   561  EDM561      0.1807
      5  C2        -2.4270  -21.6600  100.7380 C.3   561  EDM561      0.1310
      6  N6        -2.3580  -23.6540   99.4890 N.2   561  EDM561     -0.3147
      7  C5        -3.6930  -23.6340   99.3760 C.1   561  EDM561      0.2523
      8  S17       -4.5190  -24.9570   98.5790 S.O2  561  EDM561      0.0850
      9  C29       -4.2570  -26.4610   99.4810 C.3   561  EDM561      0.1960
     10  O27       -5.9230  -24.6800   98.5130 O.2   561  EDM561     -0.1572
     11  O19       -3.9750  -25.1040   97.1840 O.2   561  EDM561     -0.1572
     12  N4        -4.4110  -22.6410   99.9240 N.2   561  EDM561     -0.3343
     13  C3        -3.8130  -21.6560  100.6010 C.2   561  EDM561      0.1088
     14  C13       -4.5650  -20.6290  101.1630 C.3   561  EDM561      0.0559
     15  C15       -5.9510  -20.6940  101.1350 C.3   561  EDM561      0.0075
@<TRIPOS>BOND
     1    11     8    2
     2    10     8    2
     3     8     7    1
     4     8     9    1
     5     7     6    2
     6     7    12    2
     7     6     4    2
     8     3     2    1
     9    12    13    2
    10     4     2    1
    11     4     5    1
    12     2     1    1
    13    13     5    1
    14    13    14    1
    15    15    14    1
