@<TRIPOS>MOLECULE
3iti_BRV_A_1.pdb
 16 16 0 0 0
SMALL
GASTEIGER

@<TRIPOS>ATOM
      1  C10       62.7150   35.8920   20.3320 C.2   301  BRV301      0.3888
      2  C7        64.3070   37.2710   15.7590 C.2   301  BRV301      0.3888
      3  C5        62.0000   39.0120   18.2010 C.ar  301  BRV301      0.1018
      4  C4        62.0340   38.0610   19.2270 C.ar  301  BRV301      0.0586
      5  C3        62.7730   36.9000   19.2120 C.ar  301  BRV301      0.0937
      6  C2        63.5300   36.6780   18.0840 C.ar  301  BRV301      0.0483
      7  N13       61.2790   40.1670   18.3040 N.pl3 301  BRV301     -0.1270
      8 BR1        64.6420   35.1460   17.9490 Br    301  BRV301     -0.0485
      9 BR2        60.9230   38.3990   20.7310 Br    301  BRV301     -0.0474
     10 BR3        62.7510   39.9030   15.5680 Br    301  BRV301     -0.0474
     11  C1        63.5170   37.5580   17.0120 C.ar  301  BRV301      0.0937
     12  C6        62.7600   38.7230   17.0590 C.ar  301  BRV301      0.0586
     13  O8        63.6630   36.6130   14.9040 O.co2 301  BRV301     -0.2405
     14  O9        65.4710   37.7210   15.6920 O.co2 301  BRV301     -0.2405
     15  O11       61.8500   34.9860   20.3440 O.co2 301  BRV301     -0.2405
     16  O12       63.5680   36.0110   21.2490 O.co2 301  BRV301     -0.2405
@<TRIPOS>BOND
     1    13     2   ar
     2    10    12    1
     3    14     2   ar
     4     2    11    1
     5    11    12   ar
     6    11     6   ar
     7    12     3   ar
     8     8     6    1
     9     6     5   ar
    10     3     7    1
    11     3     4   ar
    12     5     4   ar
    13     5     1    1
    14     4     9    1
    15     1    15   ar
    16     1    16   ar
