@<TRIPOS>MOLECULE
3itl_LRH_A_1.pdb
 11 11 0 0 0
SMALL
GASTEIGER

@<TRIPOS>ATOM
      1  C1       -42.0770    4.1830   13.4510 C.3   601  LRH601      0.2434
      2  C2       -42.0080    3.6460   12.0390 C.3   601  LRH601      0.2807
      3  C3       -43.3410    3.1220   11.4850 C.3   601  LRH601      0.2408
      4  C4       -43.6190    3.9740   10.2440 C.3   601  LRH601      0.2141
      5  C5       -42.6830    5.1700   10.3680 C.3   601  LRH601      0.1509
      6  C6       -42.0920    5.6220    9.0460 C.3   601  LRH601      0.0350
      7  O1       -40.7880    4.5900   13.8900 O.3   601  LRH601     -0.2148
      8  O2       -41.0200    2.6300   11.9700 O.3   601  LRH601     -0.1896
      9  O3       -43.2030    1.7640   11.0920 O.3   601  LRH601     -0.2149
     10  O4       -44.9680    4.4070   10.2430 O.3   601  LRH601     -0.2176
     11  O5       -41.6000    4.7440   11.2030 O.3   601  LRH601     -0.3281
@<TRIPOS>BOND
     1     6     5    1
     2    10     4    1
     3     4     5    1
     4     4     3    1
     5     5    11    1
     6     9     3    1
     7    11     2    1
     8     3     2    1
     9     8     2    1
    10     2     1    1
    11     1     7    1
