@<TRIPOS>MOLECULE
3itn_III_B_1.pdb
 36 35 0 0 0
SMALL
GASTEIGER

@<TRIPOS>ATOM
      1  C         41.5320   13.8530   74.2850 C.2   989  ACE989      0.2423
      2  O         40.3240   13.8160   74.0720 O.2   989  ACE989     -0.2733
      3  CH3       42.1120   14.0490   75.6540 C.3   989  ACE989      0.0964
      4  N         42.6230   13.6950   73.5130 N.am  990  ASP990     -0.1972
      5  CA        42.1740   13.5800   72.1320 C.3   990  ASP990      0.1839
      6  C         41.8140   12.1300   71.8050 C.2   990  ASP990      0.2622
      7  O         42.5490   11.2050   72.1480 O.2   990  ASP990     -0.2715
      8  CB        43.2740   14.0670   71.1860 C.3   990  ASP990      0.1450
      9  CG        43.6410   15.5220   71.4150 C.2   990  ASP990      0.3671
     10  OD1       42.7290   16.3740   71.4410 O.co2 990  ASP990     -0.2456
     11  OD2       44.8440   15.8190   71.5600 O.co2 990  ASP990     -0.2456
     12  N         40.6740   11.9400   71.1450 N.am  991  GLU991     -0.1963
     13  CA        40.2070   10.6070   70.7570 C.3   991  GLU991      0.1733
     14  C         39.6830   10.6610   69.3220 C.2   991  GLU991      0.2616
     15  O         39.4660   11.7450   68.7820 O.2   991  GLU991     -0.2715
     16  CB        39.0780   10.1430   71.6830 C.3   991  GLU991      0.0429
     17  CG        39.3510   10.3500   73.1640 C.3   991  GLU991      0.1163
     18  CD        38.2220    9.8460   74.0500 C.2   991  GLU991      0.3649
     19  OE1       37.0420   10.0360   73.6880 O.co2 991  GLU991     -0.2457
     20  OE2       38.5150    9.2710   75.1190 O.co2 991  GLU991     -0.2457
     21  N         39.4790    9.4930   68.7130 N.am  992  VAL992     -0.1963
     22  CA        38.9730    9.4190   67.3430 C.3   992  VAL992      0.1727
     23  C         37.5000    9.0100   67.3030 C.2   992  VAL992      0.2616
     24  O         36.9940    8.3770   68.2310 O.2   992  VAL992     -0.2715
     25  CB        39.7820    8.4100   66.4920 C.3   992  VAL992      0.0290
     26  CG1       41.1890    8.9310   66.2640 C.3   992  VAL992      0.0023
     27  CG2       39.8210    7.0570   67.1860 C.3   992  VAL992      0.0023
     28  N         36.8190    9.3700   66.2170 N.am  993  ASP993     -0.1976
     29  CA        35.4030    9.0520   66.0470 C.3   993  ASP993      0.1635
     30  C         35.2310    7.8260   65.1480 C.2   993  ASP993      0.1713
     31  O         34.4070    7.8310   64.2320 O.2   993  ASP993     -0.2942
     32  CB        34.6600   10.2500   65.4510 C.3   993  ASP993      0.1432
     33  CG        34.1000   11.1700   66.5150 C.2   993  ASP993      0.3671
     34  OD1       33.9360   10.7000   67.6590 O.co2 993  ASP993     -0.2456
     35  OD2       33.8290   12.3560   66.2170 O.co2 993  ASP993     -0.2456
     36  C1        36.0730    6.5560   65.3330 C.3   994  0QE994      0.0741
@<TRIPOS>BOND
     1    31    30    2
     2    30    36    1
     3    30    29    1
     4    32    29    1
     5    32    33    1
     6    29    28    1
     7    35    33   ar
     8    28    23   am
     9    26    25    1
    10    25    27    1
    11    25    22    1
    12    33    34   ar
    13    23    22    1
    14    23    24    2
    15    22    21    1
    16    21    14   am
    17    15    14    2
    18    14    13    1
    19    13    12    1
    20    13    16    1
    21    12     6   am
    22     8     9    1
    23     8     5    1
    24     9    10   ar
    25     9    11   ar
    26    16    17    1
    27     6     5    1
    28     6     7    2
    29     5     4    1
    30    17    18    1
    31     4     1   am
    32    19    18   ar
    33    18    20   ar
    34     2     1    2
    35     1     3    1
