@<TRIPOS>MOLECULE
3ito_PSV_A_1.pdb
 12 12 0 0 0
SMALL
GASTEIGER

@<TRIPOS>ATOM
      1  C1       -41.9640    4.4460   13.4560 C.3   601  PSV601      0.2434
      2  O1       -40.6370    4.8440   13.7520 O.3   601  PSV601     -0.2148
      3  C2       -42.0450    3.7010   12.1360 C.3   601  PSV601      0.2807
      4  O2       -41.2550    2.5250   12.1850 O.3   601  PSV601     -0.1896
      5  C3       -43.4860    3.3750   11.7410 C.3   601  PSV601      0.2409
      6  O3       -43.5080    2.1530   11.0170 O.3   601  PSV601     -0.2149
      7  C4       -43.8730    4.5280   10.8120 C.3   601  PSV601      0.2168
      8  O4       -44.7890    4.0800    9.8240 O.3   601  PSV601     -0.2175
      9  C5       -42.5440    4.9100   10.1670 C.3   601  PSV601      0.1836
     10  O5       -41.5160    4.5570   11.1100 O.3   601  PSV601     -0.3253
     11  C6       -42.4050    6.3880    9.8760 C.3   601  PSV601      0.2142
     12  O6       -41.4530    6.6120    8.8460 O.3   601  PSV601     -0.2176
@<TRIPOS>BOND
     1    12    11    1
     2     8     7    1
     3    11     9    1
     4     9     7    1
     5     9    10    1
     6     7     5    1
     7     6     5    1
     8    10     3    1
     9     5     3    1
    10     3     4    1
    11     3     1    1
    12     1     2    1
