@<TRIPOS>MOLECULE
3itp_THP_A_1.pdb
 25 26 0 0 0
SMALL
GASTEIGER

@<TRIPOS>ATOM
      1  P2        17.9320   10.5720    4.6820 P.3   150  THP150      0.5327
      2  O4P       16.7340   11.2650    5.2430 O.3   150  THP150     -0.1145
      3  O5P       17.9540    9.0760    5.0610 O.2   150  THP150     -0.2224
      4  O6P       19.2490   11.2890    5.2760 O.3   150  THP150     -0.1145
      5  P1        21.1210   13.9840    0.6910 P.3   150  THP150      0.5326
      6  O1P       20.5200   14.9930    1.5290 O.3   150  THP150     -0.1145
      7  O2P       21.7820   12.8690    1.6170 O.3   150  THP150     -0.1145
      8  O3P       22.2530   14.6100   -0.2180 O.2   150  THP150     -0.2224
      9  O5'       17.9410   10.5930    3.0830 O.3   150  THP150     -0.2675
     10  C5'       18.0810   11.9050    2.5350 C.3   150  THP150      0.1857
     11  C4'       18.8900   11.7020    1.2430 C.3   150  THP150      0.1748
     12  O4'       18.3480   10.6190    0.4780 O.3   150  THP150     -0.3340
     13  C3'       18.8540   12.9930    0.3260 C.3   150  THP150      0.1600
     14  O3'       20.1290   13.2720   -0.3110 O.3   150  THP150     -0.2700
     15  C2'       17.8770   12.5750   -0.7570 C.3   150  THP150      0.0847
     16  C1'       18.0250   11.0430   -0.8390 C.3   150  THP150      0.2089
     17  N1        16.6900   10.4320   -1.2570 N.am  150  THP150     -0.1794
     18  C2        16.4020   10.2070   -2.5950 C.1   150  THP150      0.2844
     19  O2        17.2650   10.4860   -3.4490 O.2   150  THP150     -0.1918
     20  N3        15.1800    9.7440   -2.9980 N.2   150  THP150     -0.2455
     21  C4        14.2160    9.4450   -2.0480 C.1   150  THP150      0.2134
     22  O4        13.1460    9.0410   -2.4000 O.2   150  THP150     -0.2088
     23  C5        14.5170    9.6520   -0.6640 C.2   150  THP150      0.0891
     24  C5M       13.4940    9.3440    0.4150 C.3   150  THP150      0.0462
     25  C6        15.7360   10.1400   -0.3060 C.2   150  THP150      0.0877
@<TRIPOS>BOND
     1    19    18    2
     2    20    18    2
     3    20    21    2
     4    18    17   am
     5    22    21    2
     6    21    23    1
     7    17    16    1
     8    17    25    1
     9    16    15    1
    10    16    12    1
    11    15    13    1
    12    23    25    2
    13    23    24    1
    14    14    13    1
    15    14     5    1
    16     8     5    2
    17    13    11    1
    18    12    11    1
    19     5     6    1
    20     5     7    1
    21    11    10    1
    22    10     9    1
    23     9     1    1
    24     1     3    2
    25     1     2    1
    26     1     4    1
