@<TRIPOS>MOLECULE
3itt_RNS_A_1.pdb
 11 10 0 0 0
SMALL
GASTEIGER

@<TRIPOS>ATOM
      1  C1       -41.9540    4.4390   13.3560 C.2   2001  RNS2001     0.2427
      2  C2       -42.3470    3.1140   12.7190 C.3   2001  RNS2001     0.2486
      3  C3       -43.4050    3.3340   11.6410 C.3   2001  RNS2001     0.2224
      4  C4       -43.1050    4.5590   10.7750 C.3   2001  RNS2001     0.2152
      5  C5       -44.0350    4.5690    9.5580 C.3   2001  RNS2001     0.1849
      6  C6       -43.7240    5.7840    8.7020 C.3   2001  RNS2001     0.0383
      7  O1       -40.8870    4.5370   13.9620 O.2   2001  RNS2001    -0.2854
      8  O2       -41.2070    2.4800   12.1570 O.3   2001  RNS2001    -0.2118
      9  O3       -43.5010    2.1780   10.8210 O.3   2001  RNS2001    -0.2171
     10  O4       -41.7520    4.5420   10.3510 O.3   2001  RNS2001    -0.2176
     11  O5       -45.3950    4.6040    9.9670 O.3   2001  RNS2001    -0.2203
@<TRIPOS>BOND
     1     6     5    1
     2     5    11    1
     3     5     4    1
     4    10     4    1
     5     4     3    1
     6     9     3    1
     7     3     2    1
     8     8     2    1
     9     2     1    1
    10     1     7    2
