@<TRIPOS>MOLECULE
3itu_IBM_A_1.pdb
 16 17 0 0 0
SMALL
GASTEIGER

@<TRIPOS>ATOM
      1  N9        10.0430   -6.4090   -6.2220 N.2   999  IBM999     -0.2256
      2  C8        10.5860   -6.8080   -7.4800 C.3   999  IBM999      0.2523
      3  N7         9.8290   -6.3660   -8.5440 N.2   999  IBM999     -0.2364
      4  C5         8.7620   -5.7220   -7.9230 C.ar  999  IBM999      0.1681
      5  C4         8.9470   -5.7620   -6.5670 C.ar  999  IBM999      0.1667
      6  N3         8.0780   -5.2310   -5.6650 N.ar  999  IBM999     -0.2651
      7  C2         6.9930   -4.6100   -6.0990 C.ar  999  IBM999      0.3350
      8  N1         6.7490   -4.4950   -7.4050 N.ar  999  IBM999     -0.2454
      9  C6         7.6290   -5.0500   -8.3500 C.ar  999  IBM999      0.2846
     10  O6         7.3730   -4.9740   -9.5670 O.2   999  IBM999     -0.2651
     11  O2         6.2310   -4.1510   -5.2150 O.2   999  IBM999     -0.2461
     12  C10        5.5100   -3.7990   -7.8080 C.3   999  IBM999      0.1383
     13  C11        8.3260   -5.3180   -4.2240 C.3   999  IBM999      0.1119
     14  C12        9.3130   -4.2460   -3.7330 C.3   999  IBM999      0.0228
     15  C13        8.9320   -2.7680   -3.9360 C.3   999  IBM999      0.0020
     16  C14        9.5970   -4.5510   -2.2470 C.3   999  IBM999      0.0020
@<TRIPOS>BOND
     1    10     9    2
     2     3     4    2
     3     3     2    1
     4     9     4   ar
     5     9     8   ar
     6     4     5   ar
     7    12     8    1
     8     2     1    1
     9     8     7   ar
    10     5     1    2
    11     5     6   ar
    12     7     6   ar
    13     7    11    2
    14     6    13    1
    15    13    14    1
    16    15    14    1
    17    14    16    1
