@<TRIPOS>MOLECULE
3itv_PSJ_A_1.pdb
 12 11 0 0 0
SMALL
GASTEIGER

@<TRIPOS>ATOM
      1  C1       -41.7170    4.6990   13.1230 C.3   601  PSJ601      0.2486
      2  O1       -40.3980    4.7340   13.6410 O.3   601  PSJ601     -0.2118
      3  C2       -41.8840    3.4920   12.2160 C.2   601  PSJ601      0.2165
      4  O2       -40.9670    2.6760   12.1030 O.2   601  PSJ601     -0.2905
      5  C3       -43.2000    3.2680   11.4810 C.3   601  PSJ601      0.2440
      6  O3       -43.0970    2.1200   10.6490 O.3   601  PSJ601     -0.2122
      7  C4       -43.5450    4.4970   10.6340 C.3   601  PSJ601      0.2221
      8  O4       -44.8800    4.3930   10.1530 O.3   601  PSJ601     -0.2171
      9  C5       -42.5820    4.6590    9.4560 C.3   601  PSJ601      0.2179
     10  O5       -41.2400    4.6200    9.9190 O.3   601  PSJ601     -0.2175
     11  C6       -42.8420    5.9870    8.7600 C.3   601  PSJ601      0.2175
     12  O6       -42.5420    7.0580    9.6380 O.3   601  PSJ601     -0.2175
@<TRIPOS>BOND
     1    11     9    1
     2    11    12    1
     3     9    10    1
     4     9     7    1
     5     8     7    1
     6     7     5    1
     7     6     5    1
     8     5     3    1
     9     4     3    2
    10     3     1    1
    11     1     2    1
