@<TRIPOS>MOLECULE
3itz_P66_A_1.pdb
 31 35 0 0 0
SMALL
GASTEIGER

@<TRIPOS>ATOM
      1  N1         1.9830   31.0080   31.0480 N.ar  401  P66401     -0.1309
      2  N3        -0.4300   34.2020   30.9690 N.ar  401  P66401     -0.2235
      3  C4        -1.7040   34.3970   31.3390 C.ar  401  P66401      0.1375
      4  C5        -2.7500   34.1340   30.4560 C.ar  401  P66401      0.1599
      5  C6        -2.0020   34.8700   32.6210 C.ar  401  P66401      0.1599
      6  C7         2.4040   32.2100   30.5850 C.ar  401  P66401      0.1765
      7  C8        -4.0720   34.3380   30.8490 C.ar  401  P66401      0.0313
      8  C10       -3.3250   35.0810   33.0180 C.ar  401  P66401      0.0313
      9  C13        4.4680   30.4450   29.0390 C.ar  401  P66401      0.0220
     10  C15        6.3650   29.2370   29.9250 C.ar  401  P66401      0.0055
     11  C17        5.5340   31.2080   31.0650 C.ar  401  P66401      0.0729
     12  C20        6.5090   26.9030   25.2830 C.3   401  P66401      0.0234
     13  C21        7.6190   26.1930   26.0500 C.3   401  P66401      0.0234
     14  C19        6.2440   26.3920   26.7020 C.3   401  P66401      0.0957
     15  N5         6.1790   27.4270   27.7500 N.am  401  P66401     -0.2034
     16  C18        5.2570   28.3990   27.7800 C.2   401  P66401      0.2648
     17  O1         4.3680   28.5490   26.9400 O.2   401  P66401     -0.2684
     18  C14        5.3700   29.3820   28.9560 C.ar  401  P66401      0.0564
     19  C16        6.4450   30.1490   30.9780 C.ar  401  P66401      0.0129
     20 CL1         5.6770   32.3170   32.3890 Cl    401  P66401     -0.0809
     21  C12        4.5390   31.3620   30.0890 C.ar  401  P66401      0.0828
     22  N4         3.6590   32.3700   30.1360 N.pl3 401  P66401     -0.1917
     23  N6         0.8350   30.8120   31.4770 N.ar  401  P66401     -0.1435
     24  C11       -0.0950   31.7640   31.5220 C.ar  401  P66401      0.1414
     25  C1         0.2200   33.0440   31.0690 C.ar  401  P66401      0.1082
     26  C2         1.4950   33.2770   30.5890 C.ar  401  P66401      0.0752
     27  C3         1.5160   34.5620   30.2320 C.ar  401  P66401      0.1249
     28  N2         0.3070   35.0760   30.4890 N.ar  401  P66401     -0.1632
     29  F1        -2.4870   33.6750   29.2200 F     401  P66401     -0.2025
     30  C9        -4.3640   34.8150   32.1290 C.ar  401  P66401      0.0047
     31  F2        -1.0100   35.1250   33.4890 F     401  P66401     -0.2025
@<TRIPOS>BOND
     1    12    13    1
     2    12    14    1
     3    13    14    1
     4    14    15    1
     5    17    16    2
     6    15    16   am
     7    16    18    1
     8    18     9   ar
     9    18    10   ar
    10     9    21   ar
    11    29     4    1
    12    10    19   ar
    13    21    22    1
    14    21    11   ar
    15    22     6    1
    16    27    28   ar
    17    27    26   ar
    18     4     7   ar
    19     4     3   ar
    20    28     2   ar
    21     6    26   ar
    22     6     1   ar
    23    26    25   ar
    24     7    30   ar
    25     2    25   ar
    26     2     3    1
    27    19    11   ar
    28     1    23   ar
    29    11    20    1
    30    25    24   ar
    31     3     5   ar
    32    23    24   ar
    33    30     8   ar
    34     5     8   ar
    35     5    31    1
