@<TRIPOS>MOLECULE
3iu2_096_A_1.pdb
 31 34 0 0 0
SMALL
GASTEIGER

@<TRIPOS>ATOM
      1  S        -10.7410   22.7910   -0.9890 S.3   1002  0961002    -0.1066
      2  C1        -7.5470   22.3630    3.9450 C.3   1002  0961002     0.2526
      3  N1        -8.3840   23.7340   -1.1160 N.am  1002  0961002    -0.2448
      4  O1        -6.9760   21.3070    3.1720 O.3   1002  0961002    -0.4682
      5  C2        -7.5510   20.8930    1.9930 C.ar  1002  0961002     0.1771
      6  N2        -4.7620   23.3120   -1.6450 N.ar  1002  0961002    -0.2410
      7  O2        -8.7950   25.9520   -1.3180 O.2   1002  0961002    -0.2736
      8  C3        -7.9830   21.8230    1.0420 C.ar  1002  0961002     0.0381
      9  N3       -12.9220   18.9280   -0.9740 N.3   1002  0961002    -0.2703
     10  O3        -7.2840   18.6050    2.6540 O.3   1002  0961002    -0.2833
     11  C4        -8.5710   21.4080   -0.1580 C.ar  1002  0961002     0.0056
     12  N4       -15.4710   18.5880   -0.5530 N.3   1002  0961002    -0.2691
     13  C5        -9.0290   22.4120   -1.1680 C.3   1002  0961002     0.1507
     14  C6       -10.6710   24.5130   -1.3160 C.3   1002  0961002     0.1448
     15  C7        -9.1890   24.8050   -1.2430 C.2   1002  0961002     0.2413
     16  C8        -6.9810   23.9150   -0.9960 C.ar  1002  0961002     0.0740
     17  C9        -6.4550   24.8820   -0.1310 C.ar  1002  0961002     0.0181
     18  C10       -5.0710   25.0470   -0.0490 C.ar  1002  0961002     0.0220
     19  C11       -4.2360   24.2380   -0.8220 C.ar  1002  0961002     0.0990
     20  C12       -6.0930   23.1350   -1.7430 C.ar  1002  0961002     0.1137
     21  C13       -8.7160   20.0380   -0.4030 C.ar  1002  0961002    -0.0203
     22  C14       -9.3540   19.4990   -1.6710 C.3   1002  0961002     0.0277
     23  C15      -10.5560   18.6580   -1.2330 C.3   1002  0961002     0.0220
     24  C16      -11.8470   19.0150   -1.9590 C.3   1002  0961002     0.0725
     25  C17      -13.6590   20.1490   -0.6670 C.3   1002  0961002     0.0897
     26  C18      -14.9260   19.7690    0.1000 C.3   1002  0961002     0.0897
     27  C19      -16.7760   18.6600   -1.1980 C.3   1002  0961002     0.0897
     28  C20      -14.7260   17.3320   -0.5730 C.3   1002  0961002     0.0897
     29  C21      -13.2510   17.6580   -0.3170 C.3   1002  0961002     0.0897
     30  C22       -8.2800   19.1110    0.5500 C.ar  1002  0961002     0.0407
     31  C23       -7.7020   19.5330    1.7430 C.ar  1002  0961002     0.2289
@<TRIPOS>BOND
     1    24    23    1
     2    24     9    1
     3    20     6   ar
     4    20    16   ar
     5    22    23    1
     6    22    21    1
     7     6    19   ar
     8     7    15    2
     9    14    15    1
    10    14     1    1
    11    15     3   am
    12    27    12    1
    13    13     3    1
    14    13     1    1
    15    13    11    1
    16     3    16    1
    17    16    17   ar
    18     9    25    1
    19     9    29    1
    20    19    18   ar
    21    25    26    1
    22    28    12    1
    23    28    29    1
    24    12    26    1
    25    21    11   ar
    26    21    30   ar
    27    11     8   ar
    28    17    18   ar
    29    30    31   ar
    30     8     5   ar
    31    31     5   ar
    32    31    10    1
    33     5     4    1
    34     4     2    1
