@<TRIPOS>MOLECULE
3iu7_FCD_A_1.pdb
 15 16 0 0 0
SMALL
GASTEIGER

@<TRIPOS>ATOM
      1  OA       -35.1640  -29.4720   -4.3730 O.2   288  FCD288     -0.4468
      2  CA       -34.1030  -29.6920   -3.5940 C.ar  288  FCD288      0.2246
      3  C        -34.0930  -29.2450   -2.2270 C.2   288  FCD288      0.4216
      4  OB       -35.0930  -28.5180   -1.8160 O.co2 288  FCD288     -0.2371
      5  CB       -33.0580  -30.3410   -4.3020 C.ar  288  FCD288      0.0475
      6  CG       -33.5990  -30.5650   -5.5650 C.ar  288  FCD288      0.0409
      7  CD       -34.8880  -30.0280   -5.5630 C.ar  288  FCD288      0.1464
      8  OXT      -33.1780  -29.4490   -1.3860 O.co2 288  FCD288     -0.2371
      9  C1       -35.8690  -29.8390   -6.6680 C.ar  288  FCD288      0.0451
     10  C2       -36.5820  -28.5880   -6.6690 C.ar  288  FCD288      0.0039
     11  C3       -37.4600  -28.3340   -7.7290 C.ar  288  FCD288      0.0002
     12  C4       -37.6930  -29.2430   -8.7520 C.ar  288  FCD288      0.0009
     13  C5       -37.0780  -30.4720   -8.7110 C.ar  288  FCD288      0.0115
     14  C6       -36.0740  -30.7170   -7.7070 C.ar  288  FCD288      0.0606
     15 CL2       -35.2770  -32.2650   -7.7410 Cl    288  FCD288     -0.0821
@<TRIPOS>BOND
     1    12    13   ar
     2    12    11   ar
     3    13    14   ar
     4    15    14    1
     5    11    10   ar
     6    14     9   ar
     7    10     9   ar
     8     9     7    1
     9     6     7   ar
    10     6     5   ar
    11     7     1   ar
    12     1     2   ar
    13     5     2   ar
    14     2     3    1
    15     3     4   ar
    16     3     8   ar
