@<TRIPOS>MOLECULE
3iu8_T03_A_1.pdb
 14 15 0 0 0
SMALL
GASTEIGER

@<TRIPOS>ATOM
      1  F          6.7540   46.4650    8.4770 F     289  T03289     -0.2042
      2  S         10.4220   43.0520    4.4420 S.3   289  T03289     -0.0361
      3  C1         9.6980   45.2510    5.7960 C.ar  289  T03289     -0.0102
      4  N1         7.8540   43.0640    3.5700 N.2   289  T03289     -0.1627
      5  C2        10.0570   45.4040    7.1650 C.ar  289  T03289     -0.0011
      6  N2         8.0370   43.2670    1.4100 N.2   289  T03289     -0.1152
      7  C3         9.0470   45.7890    8.0870 C.ar  289  T03289      0.0293
      8  N3         9.3680   43.2330    1.9050 N.2   289  T03289     -0.0857
      9  C4         7.7320   46.0720    7.6200 C.ar  289  T03289      0.1401
     10  C5         7.3720   45.9370    6.2690 C.ar  289  T03289      0.0293
     11  C6         8.3720   45.5350    5.3760 C.ar  289  T03289     -0.0011
     12  C7        10.7110   44.7790    4.7380 C.3   289  T03289      0.0987
     13  C8         7.1260   43.1350    2.4240 C.2   289  T03289      0.2322
     14  C9         9.1430   43.1040    3.2370 C.1   289  T03289      0.0865
@<TRIPOS>BOND
     1     6     8    1
     2     6    13    2
     3     8    14    2
     4    13     4    1
     5    14     4    2
     6    14     2    1
     7     2    12    1
     8    12     3    1
     9    11     3   ar
    10    11    10   ar
    11     3     5   ar
    12    10     9   ar
    13     5     7   ar
    14     9     7   ar
    15     9     1    1
