@<TRIPOS>MOLECULE
3iu9_T07_A_1.pdb
 16 17 0 0 0
SMALL
GASTEIGER

@<TRIPOS>ATOM
      1  S        -10.8170   43.8280   -4.3810 S.3   288  T07288     -0.0233
      2  C1        -9.9410   49.1270   -3.9830 C.ar  288  T07288      0.0585
      3  N1        -8.1450   43.8390   -3.7660 N.2   288  T07288     -0.2715
      4 CL1        -7.7360   46.7360   -6.2830 Cl    288  T07288     -0.0825
      5  C2        -9.0700   47.3530   -5.2420 C.ar  288  T07288      0.0554
      6  N2        -8.1860   43.7230   -1.5830 N.2   288  T07288     -0.0541
      7 CL2        -9.7920   50.7880   -3.4710 Cl    288  T07288     -0.0822
      8  C3       -10.0750   46.5420   -4.8600 C.ar  288  T07288      0.0004
      9  N3        -6.0240   43.8800   -2.5770 N.pl3 288  T07288     -0.0327
     10  C4       -10.1840   45.1440   -5.4510 C.3   288  T07288      0.1005
     11  N4        -9.5310   43.6660   -1.9910 N.2   288  T07288     -0.0637
     12  C5        -8.9170   48.6720   -4.8090 C.ar  288  T07288      0.0225
     13  C6       -10.9780   47.0060   -3.8940 C.ar  288  T07288     -0.0017
     14  C7       -10.8740   48.2940   -3.4900 C.ar  288  T07288      0.0112
     15  C8        -7.3950   43.8240   -2.6410 C.1   288  T07288      0.2151
     16  C9        -9.4170   43.7770   -3.3170 C.1   288  T07288      0.1481
@<TRIPOS>BOND
     1     4     5    1
     2    10     8    1
     3    10     1    1
     4     5     8   ar
     5     5    12   ar
     6     8    13   ar
     7    12     2   ar
     8     1    16    1
     9     2    14   ar
    10     2     7    1
    11    13    14   ar
    12     3    16    2
    13     3    15    2
    14    16    11    2
    15    15     9    1
    16    15     6    2
    17    11     6    1
