@<TRIPOS>MOLECULE
3iub_FG2_A_1.pdb
 24 26 0 0 0
SMALL
GASTEIGER

@<TRIPOS>ATOM
      1  CAA       10.8770    9.4100   -5.0490 C.3   302  FG2302      0.2525
      2  CAB       20.1760    7.7200    4.4200 C.3   302  FG2302      0.0327
      3  OAC       16.6800   11.2270    0.9690 O.2   302  FG2302     -0.2638
      4  OAD       14.1780   10.3500    4.3490 O.2   302  FG2302     -0.1467
      5  OAE       15.4650   12.3990    3.7040 O.2   302  FG2302     -0.1467
      6  CAF       19.1370    9.9050    4.1180 C.ar  302  FG2302      0.0002
      7  CAG       17.9810   10.6580    3.8810 C.ar  302  FG2302      0.0396
      8  CAH       14.5280    9.8560   -4.8460 C.ar  302  FG2302      0.0395
      9  CAI       15.5000   10.1140   -3.8770 C.ar  302  FG2302      0.0352
     10  CAJ       17.8180    7.8980    4.0050 C.ar  302  FG2302      0.0961
     11  CAK       12.8560    9.9910   -3.1000 C.ar  302  FG2302      0.0395
     12  CAL       13.7790   10.4290   -0.8570 C.2   302  FG2302      0.0395
     13  NAM       16.6770    8.6680    3.7610 N.ar  302  FG2302     -0.2245
     14  NAN       14.6890   10.6340    1.8330 N.am  302  FG2302     -0.0512
     15  NAO       15.8550   10.4990   -1.4940 N.2   302  FG2302     -0.3972
     16  OAP       12.2640    9.5650   -5.4360 O.3   302  FG2302     -0.4714
     17  CAQ       15.5220   10.8470    0.7990 C.2   302  FG2302      0.3153
     18  CAR       19.0480    8.5140    4.1830 C.ar  302  FG2302     -0.0026
     19  CAS       13.1900    9.7990   -4.4600 C.ar  302  FG2302      0.1389
     20  CAT       16.7520   10.0120    3.7060 C.ar  302  FG2302      0.2079
     21  CAU       15.0480   10.6080   -0.4490 C.2   302  FG2302      0.1878
     22  CAV       13.8270   10.2250   -2.1910 C.ar  302  FG2302      0.0353
     23  CAW       15.1220   10.2680   -2.5810 C.ar  302  FG2302      0.1318
     24  SAX       15.2520   10.9220    3.4070 S.O2  302  FG2302      0.1124
@<TRIPOS>BOND
     1    16     1    1
     2    16    19    1
     3     8    19   ar
     4     8     9   ar
     5    19    11   ar
     6     9    23   ar
     7    11    22   ar
     8    23    22   ar
     9    23    15    2
    10    22    12    2
    11    15    21    2
    12    12    21    1
    13    21    17    1
    14    17     3    2
    15    17    14   am
    16    14    24    1
    17    24     5    2
    18    24    20    1
    19    24     4    2
    20    20    13   ar
    21    20     7   ar
    22    13    10   ar
    23     7     6   ar
    24    10    18   ar
    25     6    18   ar
    26    18     2    1
