@<TRIPOS>MOLECULE
3iuc_ADP_A_1.pdb
 27 29 0 0 0
SMALL
GASTEIGER

@<TRIPOS>ATOM
      1  PB         0.3330   -0.6570    0.3950 P.3     1  ADP1        0.5373
      2  O1B       -0.4280   -1.2750   -0.7550 O.2     1  ADP1       -0.2221
      3  O2B        0.8090    0.7890    0.2070 O.3     1  ADP1       -0.1143
      4  O3B       -0.2960   -0.8440    1.7470 O.3     1  ADP1       -0.1143
      5  PA         2.0540   -2.9890    0.0210 P.3     1  ADP1        0.2231
      6  O1A        1.2740   -3.2630   -1.2530 O.2     1  ADP1       -0.5169
      7  O2A        3.5610   -3.1660   -0.0350 O.3     1  ADP1       -0.4370
      8  O3A        1.7320   -1.4920    0.4510 O.3     1  ADP1       -0.2261
      9  O5'        1.5530   -3.9580    1.1710 O.3     1  ADP1       -0.3111
     10  C5'        1.9850   -3.6760    2.5140 C.3     1  ADP1        0.1813
     11  C4'        1.6010   -4.8250    3.4360 C.3     1  ADP1        0.1821
     12  O4'        2.1800   -6.0140    2.9240 O.3     1  ADP1       -0.3135
     13  C3'        2.1160   -4.6950    4.8710 C.3     1  ADP1        0.2184
     14  O3'        1.0790   -4.9070    5.8160 O.3     1  ADP1       -0.2174
     15  C2'        3.1000   -5.8280    5.0240 C.3     1  ADP1        0.2570
     16  O2'        3.1880   -6.3830    6.3270 O.3     1  ADP1       -0.2130
     17  C1'        2.5670   -6.8180    4.0160 C.3     1  ADP1        0.3186
     18  N9         3.6600   -7.7210    3.6910 N.pl3   1  ADP1       -0.1439
     19  C8         4.8430   -7.4100    3.0940 C.3     1  ADP1        0.3377
     20  N7         5.6360   -8.5220    2.9870 N.2     1  ADP1       -0.2095
     21  C5         4.9200   -9.5380    3.5330 C.2     1  ADP1        0.2526
     22  C6         5.1080  -10.9550    3.7550 C.2     1  ADP1        0.4393
     23  N6         6.2770  -11.5080    3.3790 N.pl3   1  ADP1        0.2180
     24  N1         4.1190  -11.6740    4.3680 N.2     1  ADP1        0.0021
     25  C2         2.9750  -11.1190    4.7900 C.3     1  ADP1        0.5254
     26  N3         2.7320   -9.8050    4.6000 N.2     1  ADP1       -0.0055
     27  C4         3.6330   -9.0070    3.9920 C.2     1  ADP1        0.3518
@<TRIPOS>BOND
     1     6     5    2
     2     2     1    2
     3     7     5    1
     4     5     8    1
     5     5     9    1
     6     3     1    1
     7     1     8    1
     8     1     4    1
     9     9    10    1
    10    10    11    1
    11    12    11    1
    12    12    17    1
    13    20    19    1
    14    20    21    2
    15    19    18    1
    16    23    22    1
    17    11    13    1
    18    21    22    1
    19    21    27    1
    20    18    27    1
    21    18    17    1
    22    22    24    2
    23    27    26    2
    24    17    15    1
    25    24    25    1
    26    26    25    1
    27    13    15    1
    28    13    14    1
    29    15    16    1
