@<TRIPOS>MOLECULE
3iue_FG3_A_1.pdb
 28 30 0 0 0
SMALL
GASTEIGER

@<TRIPOS>ATOM
      1  C         18.6200   11.0520   -1.1570 C.2   302  FG3302      0.3875
      2  N         16.0930   10.3500   -1.4670 N.ar  302  FG3302     -0.3135
      3  O         18.2980   12.2380   -0.9520 O.co2 302  FG3302     -0.2435
      4  CA        17.5690   10.0710   -1.6130 C.3   302  FG3302      0.2212
      5  CAA       11.0540    9.6080   -5.1280 C.3   302  FG3302      0.2525
      6  CAB       19.9850    7.7090    4.8470 C.3   302  FG3302      0.0327
      7  OAD       16.9500   10.7940    1.1980 O.2   302  FG3302     -0.2651
      8  OAE       13.9870   10.2830    4.2130 O.2   302  FG3302     -0.1467
      9  OAF       15.3610   12.3710    3.7000 O.2   302  FG3302     -0.1467
     10  CAH       18.8460    9.8750    4.6980 C.ar  302  FG3302      0.0002
     11  CAI       17.7060   10.6180    4.3760 C.ar  302  FG3302      0.0396
     12  CAJ       14.5800   10.0230   -4.8140 C.ar  302  FG3302      0.0384
     13  CAK       15.5910   10.0650   -3.8550 C.ar  302  FG3302      0.0203
     14  CAL       17.7160    7.8430    3.9890 C.ar  302  FG3302      0.0961
     15  CAM       12.9950   10.4720   -3.0660 C.ar  302  FG3302      0.0384
     16  CAN       14.0450   10.6770   -0.8170 C.ar  302  FG3302      0.0235
     17  NAP       16.5950    8.6130    3.6530 N.ar  302  FG3302     -0.2245
     18  NAQ       14.7750   10.7060    1.8030 N.am  302  FG3302     -0.0522
     19  OAR       12.3180   10.1840   -5.4460 O.3   302  FG3302     -0.4714
     20  CAT       15.7470   10.7110    0.8890 C.2   302  FG3302      0.3015
     21  CAU       18.8480    8.4810    4.5160 C.ar  302  FG3302     -0.0026
     22  CAV       13.2570   10.2100   -4.4360 C.ar  302  FG3302      0.1388
     23  CAW       16.5930    9.9560    3.8430 C.ar  302  FG3302      0.2079
     24  CAX       15.3170   10.5750   -0.3960 C.ar  302  FG3302      0.1177
     25  CAY       14.0120   10.4790   -2.1580 C.ar  302  FG3302      0.0204
     26  CAZ       15.2890   10.2730   -2.5480 C.ar  302  FG3302      0.0606
     27  SBB       15.1420   10.8860    3.4060 S.O2  302  FG3302      0.1123
     28  OXT       19.7740   10.5630   -1.0800 O.co2 302  FG3302     -0.2435
@<TRIPOS>BOND
     1    19     5    1
     2    19    22    1
     3    12    22   ar
     4    12    13   ar
     5    22    15   ar
     6    13    26   ar
     7    15    25   ar
     8    26    25   ar
     9    26     2   ar
    10    25    16   ar
    11     4     2    1
    12     4     1    1
    13     2    24   ar
    14     1    28   ar
    15     1     3   ar
    16    16    24   ar
    17    24    20    1
    18    20     7    2
    19    20    18   am
    20    18    27    1
    21    27     9    2
    22    27    23    1
    23    27     8    2
    24    17    23   ar
    25    17    14   ar
    26    23    11   ar
    27    14    21   ar
    28    11    10   ar
    29    21    10   ar
    30    21     6    1
