@<TRIPOS>MOLECULE
3iup_NDP_A_1.pdb
 48 52 0 0 0
SMALL
GASTEIGER

@<TRIPOS>ATOM
      1  PA        26.4550   36.3990   20.9190 P.3   401  NDP401      0.2189
      2  O1A       27.3910   36.2130   19.8300 O.2   401  NDP401     -0.5170
      3  O2A       26.3110   35.3360   21.9380 O.3   401  NDP401     -0.4371
      4  O5B       26.9510   37.7970   21.6540 O.3   401  NDP401     -0.3112
      5  C5B       26.1330   38.2780   22.7260 C.3   401  NDP401      0.1813
      6  C4B       26.6230   39.6370   23.1230 C.3   401  NDP401      0.1820
      7  O4B       25.7630   40.0620   24.1400 O.3   401  NDP401     -0.3136
      8  C3B       28.0590   39.6270   23.6720 C.3   401  NDP401      0.2157
      9  O3B       28.9010   40.6260   23.1360 O.3   401  NDP401     -0.2175
     10  C2B       27.8650   39.9220   25.1760 C.3   401  NDP401      0.2314
     11  O2B       28.9030   40.7100   25.7580 O.3   401  NDP401     -0.2630
     12  C1B       26.5550   40.6970   25.1510 C.3   401  NDP401      0.3158
     13  N9A       25.8020   40.6120   26.4090 N.pl3 401  NDP401     -0.1439
     14  C8A       25.4810   39.4410   27.0650 C.3   401  NDP401      0.3377
     15  N7A       24.7180   39.7400   28.1310 N.2   401  NDP401     -0.2095
     16  C5A       24.5250   41.1080   28.1680 C.2   401  NDP401      0.2526
     17  C6A       23.8390   41.9860   29.0310 C.2   401  NDP401      0.4393
     18  N6A       23.2290   41.5890   30.1620 N.pl3 401  NDP401      0.2180
     19  N1A       23.8480   43.3380   28.7570 N.2   401  NDP401      0.0021
     20  C2A       24.5300   43.8450   27.6950 C.3   401  NDP401      0.5254
     21  N3A       25.1970   42.9850   26.8530 N.2   401  NDP401     -0.0055
     22  C4A       25.1990   41.6500   27.0810 C.2   401  NDP401      0.3518
     23  O3        24.9350   36.7130   20.4660 O.3   401  NDP401     -0.2703
     24  PN        24.3560   36.6210   19.0190 P.3   401  NDP401      0.2189
     25  O1N       25.0930   37.3800   18.0390 O.2   401  NDP401     -0.5170
     26  O2N       24.0290   35.2050   18.6380 O.3   401  NDP401     -0.4371
     27  O5D       22.9300   37.3730   19.2580 O.3   401  NDP401     -0.3112
     28  C5D       22.9140   38.7960   19.4500 C.3   401  NDP401      0.1813
     29  C4D       21.5300   39.2330   19.9180 C.3   401  NDP401      0.1799
     30  O4D       20.6730   39.2120   18.7570 O.3   401  NDP401     -0.3327
     31  C3D       20.8710   38.3580   21.0040 C.3   401  NDP401      0.2158
     32  O3D       20.1520   39.1440   21.9330 O.3   401  NDP401     -0.2175
     33  C2D       19.8910   37.5370   20.1820 C.3   401  NDP401      0.2309
     34  O2D       18.7920   36.9940   20.8980 O.3   401  NDP401     -0.2158
     35  C1D       19.4520   38.6080   19.1800 C.3   401  NDP401      0.2263
     36  N1N       18.7260   38.0630   18.0100 N.pl3 401  NDP401     -0.2787
     37  C2N       17.4130   38.3880   17.9180 C.3   401  NDP401      0.1244
     38  C3N       16.6350   37.9270   16.8890 C.2   401  NDP401      0.0544
     39  C7N       15.2070   38.4120   16.7280 C.2   401  NDP401      0.2818
     40  O7N       14.4580   37.7950   15.7300 O.2   401  NDP401     -0.2670
     41  N7N       14.6340   39.3530   17.4900 N.am  401  NDP401     -0.0839
     42  C4N       17.2780   37.2990   15.7140 C.2   401  NDP401      0.0033
     43  C5N       18.7440   36.9990   15.9040 C.2   401  NDP401      0.0157
     44  C6N       19.4150   37.4050   17.0510 C.2   401  NDP401      0.0633
     45  P2B       29.6140   40.2690   27.1730 P.3   401  NDP401      0.5328
     46  O1X       30.8970   39.5130   26.8010 O.2   401  NDP401     -0.2224
     47  O2X       28.7080   39.4030   28.0430 O.3   401  NDP401     -0.1145
     48  O3X       29.9130   41.6110   27.8590 O.3   401  NDP401     -0.1145
@<TRIPOS>BOND
     1    42    43    1
     2    42    38    2
     3    40    39    2
     4    43    44    2
     5    39    38    1
     6    39    41   am
     7    38    37    1
     8    44    36    1
     9    37    36    1
    10    36    35    1
    11    25    24    2
    12    26    24    1
    13    30    35    1
    14    30    29    1
    15    24    27    1
    16    24    23    1
    17    35    33    1
    18    27    28    1
    19    28    29    1
    20     2     1    2
    21    29    31    1
    22    33    34    1
    23    33    31    1
    24    23     1    1
    25     1     4    1
    26     1     3    1
    27    31    32    1
    28     4     5    1
    29     5     6    1
    30     6     8    1
    31     6     7    1
    32     9     8    1
    33     8    10    1
    34     7    12    1
    35    12    10    1
    36    12    13    1
    37    10    11    1
    38    11    45    1
    39    13    14    1
    40    13    22    1
    41    46    45    2
    42    21    22    2
    43    21    20    1
    44    14    15    1
    45    22    16    1
    46    45    48    1
    47    45    47    1
    48    20    19    1
    49    15    16    2
    50    16    17    1
    51    19    17    2
    52    17    18    1
