@<TRIPOS>MOLECULE
3iuq_ZPR_A_1.pdb
 17 18 0 0 0
SMALL
GASTEIGER

@<TRIPOS>ATOM
      1  C1        52.5210   -1.5390   55.7260 C.3   700  ZPR700      0.2017
      2  O2        53.2130   -1.8720   54.5090 O.3   700  ZPR700     -0.2186
      3  C3        53.4730   -1.5720   56.9120 C.3   700  ZPR700      0.1083
      4  C4        54.5390   -0.4490   56.8340 C.3   700  ZPR700      0.0243
      5  C5        55.8360   -1.1580   56.3570 C.3   700  ZPR700      0.0233
      6  C6        55.6160   -2.6490   56.6730 C.3   700  ZPR700      0.0935
      7  N7        54.1950   -2.8710   56.9980 N.am  700  ZPR700     -0.2772
      8  C8        53.6200   -4.0710   57.3270 C.2   700  ZPR700      0.2439
      9  O9        52.4300   -4.1090   57.5710 O.2   700  ZPR700     -0.2731
     10  C10       54.4420   -5.3640   57.3910 C.3   700  ZPR700      0.1551
     11  C11       54.4990   -6.0110   55.9880 C.3   700  ZPR700      0.0311
     12  C12       53.4060   -7.1080   56.0500 C.3   700  ZPR700      0.0238
     13  C13       53.5230   -7.5870   57.5170 C.3   700  ZPR700      0.0973
     14  N14       53.8310   -6.3680   58.3110 N.am  700  ZPR700     -0.2363
     15  C15       53.5870   -6.2290   59.6500 C.2   700  ZPR700      0.4476
     16  O16       53.8710   -5.1960   60.2340 O.co2 700  ZPR700     -0.2223
     17  O17       53.0220   -7.2470   60.3440 O.co2 700  ZPR700     -0.2223
@<TRIPOS>BOND
     1     2     1    1
     2     1     3    1
     3    11    12    1
     4    11    10    1
     5    12    13    1
     6     5     6    1
     7     5     4    1
     8     6     7    1
     9     4     3    1
    10     3     7    1
    11     7     8   am
    12     8    10    1
    13     8     9    2
    14    10    14    1
    15    13    14    1
    16    14    15   am
    17    15    16   ar
    18    15    17   ar
