@<TRIPOS>MOLECULE
3iur_III_B_1.pdb
 41 40 0 0 0
SMALL
GASTEIGER

@<TRIPOS>ATOM
      1  N         33.6290   59.7260   19.2270 N.3    53  MET53      -0.1230
      2  CA        33.9560   58.2990   19.5110 C.3    53  MET53       0.1702
      3  C         33.1590   57.7530   20.7030 C.2    53  MET53       0.2593
      4  O         33.0370   58.4160   21.7300 O.2    53  MET53      -0.2718
      5  CB        35.4530   58.1660   19.7800 C.3    53  MET53       0.0401
      6  CG        35.8770   56.8090   20.3040 C.3    53  MET53       0.0596
      7  SD        37.6290   56.8000   20.6920 S.3    53  MET53      -0.1393
      8  CE        37.7210   58.1800   21.8560 C.3    53  MET53       0.0692
      9  N         32.6310   56.5380   20.5550 N.am   54  THR54      -0.1939
     10  CA        31.8320   55.8870   21.6010 C.3    54  THR54       0.2028
     11  C         32.6880   55.2040   22.6760 C.2    54  THR54       0.2642
     12  O         33.9040   55.0570   22.5080 O.2    54  THR54      -0.2714
     13  CB        30.8870   54.8180   20.9870 C.3    54  THR54       0.1808
     14  OG1       31.6660   53.8230   20.3060 O.3    54  THR54      -0.2208
     15  CG2       29.9140   55.4620   20.0000 C.3    54  THR54       0.0379
     16  N         32.0540   54.7950   23.7790 N.am   55  ARG55      -0.1963
     17  CA        32.7730   54.1110   24.8560 C.3    55  ARG55       0.1729
     18  C         33.3430   52.8240   24.2830 C.2    55  ARG55       0.2617
     19  O         34.4680   52.4290   24.5930 O.2    55  ARG55      -0.2715
     20  CB        31.8310   53.7700   26.0230 C.3    55  ARG55       0.0348
     21  CG        31.4620   54.9510   26.9100 C.3    55  ARG55       0.0492
     22  CD        30.3490   54.6120   27.8960 C.3    55  ARG55       0.2205
     23  NE        30.7350   53.6680   28.9480 N.pl3  55  ARG55      -0.0865
     24  CZ        30.9280   53.9900   30.2290 C.cat  55  ARG55       0.5346
     25  NH1       30.7840   55.2460   30.6400 N.pl3  55  ARG55       0.1354
     26  NH2       31.2270   53.0440   31.1130 N.pl3  55  ARG55       0.1354
     27  N         32.5470   52.1860   23.4310 N.am   56  SER56      -0.1936
     28  CA        32.9130   50.9320   22.7810 C.3    56  SER56       0.2055
     29  C         34.2510   50.9780   22.0330 C.2    56  SER56       0.2643
     30  O         35.0440   50.0360   22.1120 O.2    56  SER56      -0.2714
     31  CB        31.7940   50.5200   21.8190 C.3    56  SER56       0.2130
     32  OG        32.1120   49.3170   21.1480 O.3    56  SER56      -0.2179
     33  N         34.5040   52.0670   21.3120 N.am   57  ALA57      -0.1963
     34  CA        35.7480   52.2100   20.5580 C.3    57  ALA57       0.1728
     35  C         36.9550   52.4240   21.4720 C.2    57  ALA57       0.2616
     36  O         37.9790   52.9520   21.0370 O.2    57  ALA57      -0.2715
     37  CB        35.6300   53.3690   19.5700 C.3    57  ALA57       0.0334
     38  N         36.8220   52.0040   22.7310 N.am   58  PHE58      -0.1955
     39  CA        37.8710   52.1280   23.7420 C.3    58  PHE58       0.1869
     40  C         39.2350   52.4790   23.1650 C.2    58  PHE58       0.2309
     41  O         40.2190   51.8780   23.6420 O.2    58  PHE58      -0.2863
@<TRIPOS>BOND
     1     1     2    1
     2     2     5    1
     3     2     3    1
     4    37    34    1
     5     5     6    1
     6    15    13    1
     7     6     7    1
     8    14    13    1
     9     9     3   am
    10     9    10    1
    11    34    33    1
    12    34    35    1
    13     7     8    1
    14     3     4    2
    15    13    10    1
    16    36    35    2
    17    32    31    1
    18    33    29   am
    19    35    38   am
    20    10    11    1
    21    31    28    1
    22    29    30    2
    23    29    28    1
    24    12    11    2
    25    11    16   am
    26    38    39    1
    27    28    27    1
    28    40    41    2
    29    40    39    1
    30    27    18   am
    31    16    17    1
    32    18    19    2
    33    18    17    1
    34    17    20    1
    35    20    21    1
    36    21    22    1
    37    22    23    1
    38    23    24    2
    39    24    25    1
    40    24    26    1
