@<TRIPOS>MOLECULE
3iut_KB2_A_1.pdb
 30 32 0 0 0
SMALL
GASTEIGER

@<TRIPOS>ATOM
      1  C1         0.8790   13.3170   -1.3890 C.ar  300  KB2300      0.0988
      2  N2         1.3520   14.0030   -0.3630 N.ar  300  KB2300     -0.2438
      3  C3         0.8690   13.7880    0.8960 C.ar  300  KB2300      0.0813
      4  C4        -0.1000   12.7710    1.1390 C.ar  300  KB2300      0.0174
      5  C5        -0.6190   12.1120    0.0280 C.ar  300  KB2300      0.0031
      6  C6        -0.0920   12.3970   -1.1990 C.ar  300  KB2300      0.0207
      7  C7        -0.5070   12.5480    2.4700 C.ar  300  KB2300     -0.0014
      8  C8         0.0510   13.2680    3.5200 C.ar  300  KB2300     -0.0047
      9  C9         0.9910   14.2840    3.2680 C.ar  300  KB2300     -0.0013
     10  C10        1.4050   14.5290    1.9630 C.ar  300  KB2300      0.0188
     11  C11       -0.3240   12.9150    4.9850 C.3   300  KB2300      0.1153
     12  N12       -0.1450   11.3910    5.1680 N.3   300  KB2300     -0.2106
     13  C13        0.2450   10.9200    6.5290 C.3   300  KB2300      0.0939
     14  C14        1.6060   11.5790    6.8650 C.2   300  KB2300      0.0890
     15  N15        2.6520   11.4320    5.9860 N.2   300  KB2300     -0.1527
     16  N16        3.6720   12.0390    6.4630 N.pl3 300  KB2300     -0.0627
     17  N17        3.3310   12.5080    7.6110 N.3   300  KB2300     -0.1577
     18  C18        2.0360   12.2710    7.9230 C.3   300  KB2300      0.1398
     19  C19        4.3390   13.2990    8.3610 C.3   300  KB2300      0.1366
     20  C20        5.1730   12.4330    9.3040 C.2   300  KB2300      0.1671
     21  O21        6.4080   12.5410    9.3540 O.2   300  KB2300     -0.2946
     22  C22        4.5260   11.3850   10.1020 C.3   300  KB2300      0.0738
     23  C23        3.7280   14.4820    9.0420 C.3   300  KB2300      0.0253
     24  C24        3.2540   15.4900    7.9650 C.3   300  KB2300      0.0019
     25  C25        4.3970   16.1390    7.1830 C.3   300  KB2300      0.0001
     26  C26        5.0030   17.3820    7.8650 C.3   300  KB2300      0.0000
     27  C27        0.4150    9.3660    6.4580 C.3   300  KB2300      0.0199
     28  C28       -0.8250    8.5920    6.1170 C.3   300  KB2300      0.0018
     29  C29        1.0690    8.7930    7.7590 C.3   300  KB2300      0.0018
     30  C30       -0.8650   11.3220    7.5520 C.3   300  KB2300      0.0233
@<TRIPOS>BOND
     1     1     6   ar
     2     1     2   ar
     3     6     5   ar
     4     2     3   ar
     5     5     4   ar
     6     3     4   ar
     7     3    10   ar
     8     4     7   ar
     9    10     9   ar
    10     7     8   ar
    11     9     8   ar
    12     8    11    1
    13    11    12    1
    14    12    13    1
    15    15    16    1
    16    15    14    2
    17    28    27    1
    18    27    13    1
    19    27    29    1
    20    16    17    1
    21    13    14    1
    22    13    30    1
    23    14    18    1
    24    25    26    1
    25    25    24    1
    26    17    18    1
    27    17    19    1
    28    24    23    1
    29    19    23    1
    30    19    20    1
    31    20    21    2
    32    20    22    1
