@<TRIPOS>MOLECULE
3iuy_AMP_A_1.pdb
 23 25 0 0 0
SMALL
GASTEIGER

@<TRIPOS>ATOM
      1  P         -4.0690    6.6800   26.6630 P.3   160  AMP160      0.5327
      2  O1P       -4.3290    7.2850   25.2910 O.2   160  AMP160     -0.2224
      3  O2P       -2.6900    6.1750   26.9260 O.3   160  AMP160     -0.1145
      4  O3P       -5.1280    5.7090   27.1430 O.3   160  AMP160     -0.1145
      5  O5'       -4.1130    8.0270   27.5810 O.3   160  AMP160     -0.2675
      6  C5'       -5.2920    8.8640   27.7230 C.3   160  AMP160      0.1860
      7  C4'       -4.9010   10.2070   28.3580 C.3   160  AMP160      0.1823
      8  O4'       -4.7570   10.0880   29.7780 O.3   160  AMP160     -0.3135
      9  C3'       -3.5680   10.7200   27.8760 C.3   160  AMP160      0.2184
     10  O3'       -3.7100   12.0960   27.4930 O.3   160  AMP160     -0.2174
     11  C2'       -2.5980   10.5960   29.0590 C.3   160  AMP160      0.2570
     12  O2'       -1.5400   11.6060   29.0940 O.3   160  AMP160     -0.2130
     13  C1'       -3.5370   10.6140   30.2630 C.3   160  AMP160      0.3186
     14  N9        -3.0200    9.8050   31.4300 N.pl3 160  AMP160     -0.1439
     15  C8        -2.2370    8.6860   31.3620 C.3   160  AMP160      0.3377
     16  N7        -1.9800    8.1950   32.5780 N.2   160  AMP160     -0.2095
     17  C5        -2.5830    8.9930   33.4700 C.2   160  AMP160      0.2526
     18  C6        -2.7050    9.0390   34.9350 C.2   160  AMP160      0.4393
     19  N6        -2.0770    8.0800   35.6750 N.pl3 160  AMP160      0.2180
     20  N1        -3.4470   10.0500   35.4960 N.2   160  AMP160      0.0021
     21  C2        -4.0590   10.9740   34.7690 C.3   160  AMP160      0.5254
     22  N3        -3.9680   10.9780   33.4300 N.2   160  AMP160     -0.0055
     23  C4        -3.2680   10.0490   32.7330 C.2   160  AMP160      0.3518
@<TRIPOS>BOND
     1     2     1    2
     2     1     3    1
     3     1     4    1
     4     1     5    1
     5    10     9    1
     6     5     6    1
     7     6     7    1
     8     9     7    1
     9     9    11    1
    10     7     8    1
    11    11    12    1
    12    11    13    1
    13     8    13    1
    14    13    14    1
    15    15    14    1
    16    15    16    1
    17    14    23    1
    18    16    17    2
    19    23    22    2
    20    23    17    1
    21    22    21    1
    22    17    18    1
    23    21    20    1
    24    18    20    2
    25    18    19    1
