@<TRIPOS>MOLECULE
3iv6_SAM_A_1.pdb
 27 29 0 0 0
SMALL
GASTEIGER

@<TRIPOS>ATOM
      1  N         16.9510   42.2260   -9.1580 N.3   301  SAM301     -0.1208
      2  CA        16.6550   43.2720  -10.1200 C.3   301  SAM301      0.1952
      3  C         16.6630   42.7320  -11.5340 C.2   301  SAM301      0.3819
      4  O         16.9140   41.5510  -11.8120 O.co2 301  SAM301     -0.2441
      5  OXT       16.3810   43.5270  -12.4010 O.co2 301  SAM301     -0.2441
      6  CB        17.5850   44.4670   -9.9460 C.3   301  SAM301      0.0414
      7  CG        18.4350   44.4660   -8.6680 C.3   301  SAM301      0.0503
      8  SD        19.9510   43.4560   -8.6830 S.3   301  SAM301     -0.1761
      9  CE        19.8630   42.5790  -10.2700 C.3   301  SAM301      0.0590
     10  C5'       19.6470   42.2230   -7.3680 C.3   301  SAM301      0.0806
     11  C4'       20.3810   40.8890   -7.4440 C.3   301  SAM301      0.1622
     12  O4'       21.7750   41.1020   -7.3060 O.3   301  SAM301     -0.3153
     13  C3'       20.0070   39.9440   -6.3160 C.3   301  SAM301      0.2168
     14  O3'       20.0140   38.6440   -6.8590 O.3   301  SAM301     -0.2175
     15  C2'       21.1570   40.0370   -5.3350 C.3   301  SAM301      0.2569
     16  O2'       21.4070   38.8010   -4.7000 O.3   301  SAM301     -0.2130
     17  C1'       22.3360   40.4110   -6.2150 C.3   301  SAM301      0.3185
     18  N9        23.2770   41.2950   -5.5140 N.pl3 301  SAM301     -0.1439
     19  C8        22.9530   42.4110   -4.7870 C.3   301  SAM301      0.3377
     20  N7        24.0940   42.9440   -4.2730 N.2   301  SAM301     -0.2095
     21  C5        25.1590   42.1870   -4.6590 C.2   301  SAM301      0.2526
     22  C6        26.5420   42.2890   -4.4160 C.2   301  SAM301      0.4393
     23  N6        27.0740   43.2600   -3.6690 N.pl3 301  SAM301      0.2180
     24  N1        27.3690   41.3320   -4.9490 N.2   301  SAM301      0.0021
     25  C2        26.8230   40.2930   -5.6920 C.3   301  SAM301      0.5254
     26  N3        25.4770   40.1910   -5.9500 N.2   301  SAM301     -0.0055
     27  C4        24.6490   41.1300   -5.4360 C.2   301  SAM301      0.3518
@<TRIPOS>BOND
     1     5     3   ar
     2     4     3   ar
     3     3     2    1
     4     9     8    1
     5     2     6    1
     6     2     1    1
     7     6     7    1
     8     8     7    1
     9     8    10    1
    10    11    10    1
    11    11    12    1
    12    11    13    1
    13    12    17    1
    14    14    13    1
    15    13    15    1
    16    17    18    1
    17    17    15    1
    18    26    25    1
    19    26    27    2
    20    25    24    1
    21    18    27    1
    22    18    19    1
    23    27    21    1
    24    15    16    1
    25    24    22    2
    26    19    20    1
    27    21    22    1
    28    21    20    2
    29    22    23    1
