@<TRIPOS>MOLECULE
3iv8_F6P_A_1.pdb
 16 16 0 0 0
SMALL
GASTEIGER

@<TRIPOS>ATOM
      1  O1        -9.1290  -23.9130   35.6960 O.3   500  F6P500     -0.2148
      2  C1        -8.5070  -22.7930   35.0800 C.3   500  F6P500      0.2434
      3  C2        -6.9920  -22.6950   35.3000 C.3   500  F6P500      0.2807
      4  O2        -6.7740  -21.6360   36.2970 O.3   500  F6P500     -0.1896
      5  C3        -6.3230  -24.0110   35.7000 C.3   500  F6P500      0.2409
      6  O3        -6.7040  -25.1380   34.9160 O.3   500  F6P500     -0.2149
      7  C4        -4.8730  -23.7400   35.3790 C.3   500  F6P500      0.2167
      8  O4        -4.3770  -22.7970   36.2980 O.3   500  F6P500     -0.2175
      9  C5        -4.9630  -23.0270   34.0650 C.3   500  F6P500      0.1808
     10  O5        -6.2680  -22.4100   34.0970 O.3   500  F6P500     -0.3254
     11  C6        -4.6540  -24.0110   32.9160 C.3   500  F6P500      0.1859
     12  O6        -3.2560  -24.1270   32.6960 O.3   500  F6P500     -0.2675
     13  P         -2.6930  -24.6830   31.2980 P.3   500  F6P500      0.5327
     14  O1P       -2.4400  -26.1460   31.5370 O.3   500  F6P500     -0.1145
     15  O2P       -1.4310  -23.9680   30.8460 O.3   500  F6P500     -0.1145
     16  O3P       -3.7020  -24.6330   30.1750 O.2   500  F6P500     -0.2224
@<TRIPOS>BOND
     1    16    13    2
     2    15    13    1
     3    13    14    1
     4    13    12    1
     5    12    11    1
     6    11     9    1
     7     9    10    1
     8     9     7    1
     9    10     3    1
    10     6     5    1
    11     2     3    1
    12     2     1    1
    13     3     5    1
    14     3     4    1
    15     7     5    1
    16     7     8    1
