@<TRIPOS>MOLECULE
3iva_SAH_A_1.pdb
 26 28 0 0 0
SMALL
GASTEIGER

@<TRIPOS>ATOM
      1  N         71.0470    5.7930   54.4630 N.3   1401  SAH1401    -0.1208
      2  CA        70.3040    6.4420   53.3730 C.3   1401  SAH1401     0.1952
      3  CB        70.5030    7.9570   53.4540 C.3   1401  SAH1401     0.0422
      4  CG        69.7330    8.6740   52.3420 C.3   1401  SAH1401     0.0597
      5  SD        67.9190    8.4730   52.4770 S.3   1401  SAH1401    -0.1375
      6  C         70.8300    5.9330   52.0290 C.2   1401  SAH1401     0.3819
      7  O         72.0490    5.6680   51.9630 O.co2 1401  SAH1401    -0.2441
      8  OXT       70.0010    5.8260   51.0990 O.co2 1401  SAH1401    -0.2441
      9  C5'       67.5610    9.7440   53.7450 C.3   1401  SAH1401     0.0899
     10  C4'       67.5810   11.1700   53.1890 C.3   1401  SAH1401     0.1630
     11  O4'       66.4730   11.4300   52.3070 O.3   1401  SAH1401    -0.3153
     12  C3'       67.4570   12.2240   54.2880 C.3   1401  SAH1401     0.2168
     13  O3'       68.7320   12.4220   54.9050 O.3   1401  SAH1401    -0.2175
     14  C2'       67.1390   13.4130   53.3860 C.3   1401  SAH1401     0.2569
     15  O2'       68.2660   13.6950   52.5510 O.3   1401  SAH1401    -0.2130
     16  C1'       66.0300   12.7810   52.5410 C.3   1401  SAH1401     0.3185
     17  N9        64.7710   12.7310   53.3230 N.pl3 1401  SAH1401    -0.1439
     18  C8        64.3320   11.7000   54.0440 C.3   1401  SAH1401     0.3377
     19  N7        63.1390   11.9870   54.5600 N.2   1401  SAH1401    -0.2095
     20  C5        62.8130   13.2170   54.1690 C.2   1401  SAH1401     0.2526
     21  C6        61.7110   14.0380   54.3770 C.2   1401  SAH1401     0.4393
     22  N6        60.6800   13.6180   55.1060 N.pl3 1401  SAH1401     0.2180
     23  N1        61.6970   15.2580   53.8180 N.2   1401  SAH1401     0.0021
     24  C2        62.7100   15.6790   53.0810 C.3   1401  SAH1401     0.5254
     25  N3        63.7720   14.9240   52.8590 N.2   1401  SAH1401    -0.0055
     26  C4        63.8550   13.6930   53.3850 C.2   1401  SAH1401     0.3518
@<TRIPOS>BOND
     1     8     6   ar
     2     7     6   ar
     3     6     2    1
     4    11    16    1
     5    11    10    1
     6     4     5    1
     7     4     3    1
     8     5     9    1
     9    16    17    1
    10    16    14    1
    11    15    14    1
    12    25    24    1
    13    25    26    2
    14    24    23    1
    15    10     9    1
    16    10    12    1
    17    17    26    1
    18    17    18    1
    19     2     3    1
    20     2     1    1
    21    26    20    1
    22    14    12    1
    23    23    21    2
    24    18    19    1
    25    20    21    1
    26    20    19    2
    27    12    13    1
    28    21    22    1
