@<TRIPOS>MOLECULE
3ivc_FG4_A_1.pdb
 28 31 0 0 0
SMALL
GASTEIGER

@<TRIPOS>ATOM
      1  C         17.8110   11.4290   -0.7810 C.2   302  FG4302      0.3875
      2  N         15.5440   10.2960   -1.2630 N.ar  302  FG4302     -0.3120
      3  O         17.2150   12.5230   -0.6310 O.co2 302  FG4302     -0.2435
      4  CA        17.0270   10.1610   -1.2120 C.3   302  FG4302      0.2212
      5  CAA       10.9910    8.8770   -5.0130 C.3   302  FG4302      0.2525
      6  OAC       16.0950   10.4000    1.7240 O.2   302  FG4302     -0.2432
      7  CAE       13.6090    8.3450    7.8690 C.ar  302  FG4302      0.0002
      8  CAF       14.8080    7.7130    7.5610 C.ar  302  FG4302      0.0031
      9  CAG       14.3170    9.6580   -4.7160 C.ar  302  FG4302      0.0384
     10  CAH       13.1990    9.4280    7.1210 C.ar  302  FG4302      0.0031
     11  CAI       15.6100    8.1550    6.5150 C.ar  302  FG4302      0.0375
     12  CAJ       15.2710    9.7940   -3.7030 C.ar  302  FG4302      0.0203
     13  CAK       12.5850   10.1700   -3.0770 C.ar  302  FG4302      0.0384
     14  CAL       13.8240   10.8490    5.2050 C.ar  302  FG4302      0.0398
     15  CAM       13.4470   10.5840   -0.7490 C.ar  302  FG4302      0.0253
     16  CAN       14.9640   11.9010    3.2460 C.3   302  FG4302      0.2724
     17  OAP       12.0430    9.7380   -5.3770 O.3   302  FG4302     -0.4714
     18  OAQ       14.2640   11.5950    2.0960 O.3   302  FG4302     -0.4360
     19  OAR       15.7240    9.8840    4.6690 O.2   302  FG4302     -0.4540
     20  CAT       15.0530   10.8480    1.2480 C.2   302  FG4302      0.3577
     21  CAU       12.9720    9.8490   -4.3940 C.ar  302  FG4302      0.1388
     22  CAV       14.8540   10.8900    4.3840 C.ar  302  FG4302      0.1669
     23  CAW       14.6870   10.5700   -0.2580 C.ar  302  FG4302      0.1370
     24  CAX       13.9860    9.8570    6.0640 C.ar  302  FG4302      0.0374
     25  CAY       13.5320   10.2980   -2.0670 C.ar  302  FG4302      0.0205
     26  CAZ       15.1820    9.2290    5.7460 C.ar  302  FG4302      0.1450
     27  CBA       14.8750   10.1040   -2.3890 C.ar  302  FG4302      0.0607
     28  OXT       19.0430   11.2440   -0.6290 O.co2 302  FG4302     -0.2435
@<TRIPOS>BOND
     1    17     5    1
     2    17    21    1
     3     9    21   ar
     4     9    12   ar
     5    21    13   ar
     6    12    27   ar
     7    13    25   ar
     8    27    25   ar
     9    27     2   ar
    10    25    15   ar
    11     2     4    1
    12     2    23   ar
    13     4     1    1
    14     1     3   ar
    15     1    28   ar
    16    15    23   ar
    17    23    20    1
    18    20     6    2
    19    20    18    1
    20    18    16    1
    21    16    22    1
    22    22    19   ar
    23    22    14   ar
    24    19    26   ar
    25    14    24   ar
    26    26    24   ar
    27    26    11   ar
    28    24    10   ar
    29    11     8   ar
    30    10     7   ar
    31     8     7   ar
