@<TRIPOS>MOLECULE
3ivd_URI_A_1.pdb
 17 18 0 0 0
SMALL
GASTEIGER

@<TRIPOS>ATOM
      1  N1        -4.0710   -7.1230    0.1950 N.am  603  URI603     -0.1766
      2  C2        -3.9990   -8.4990    0.2220 C.1   603  URI603      0.2845
      3  N3        -4.1340   -9.1140    1.4440 N.2   603  URI603     -0.2452
      4  C4        -4.3380   -8.4120    2.6180 C.1   603  URI603      0.2182
      5  C5        -4.4090   -6.9630    2.4990 C.2   603  URI603      0.1242
      6  C6        -4.3070   -6.3720    1.3090 C.2   603  URI603      0.0929
      7  O2        -3.7980   -9.1240   -0.7970 O.2   603  URI603     -0.1918
      8  O4        -4.4450   -9.0320    3.6700 O.2   603  URI603     -0.2085
      9  C1'       -3.9190   -6.4840   -1.1540 C.3   603  URI603      0.2401
     10  C2'       -5.2360   -6.1470   -1.8730 C.3   603  URI603      0.2319
     11  C3'       -5.2380   -4.6170   -1.9210 C.3   603  URI603      0.2159
     12  C4'       -3.7520   -4.3100   -1.9460 C.3   603  URI603      0.1829
     13  O2'       -5.1870   -6.7270   -3.1780 O.3   603  URI603     -0.2157
     14  O3'       -5.9170   -4.0440   -3.0980 O.3   603  URI603     -0.2175
     15  O4'       -3.1490   -5.3050   -1.0550 O.3   603  URI603     -0.3318
     16  C5'       -3.4480   -2.8880   -1.5100 C.3   603  URI603      0.2142
     17  O5'       -2.0550   -2.6210   -1.6300 O.3   603  URI603     -0.2176
@<TRIPOS>BOND
     1    13    10    1
     2    14    11    1
     3    12    11    1
     4    12    16    1
     5    12    15    1
     6    11    10    1
     7    10     9    1
     8    17    16    1
     9     9    15    1
    10     9     1    1
    11     7     2    2
    12     1     2   am
    13     1     6    1
    14     2     3    2
    15     6     5    2
    16     3     4    2
    17     5     4    1
    18     4     8    2
