@<TRIPOS>MOLECULE
3ive_CTN_A_1.pdb
 17 18 0 0 0
SMALL
GASTEIGER

@<TRIPOS>ATOM
      1  O5'       20.7010   69.5700    7.8030 O.3   603  CTN603     -0.2176
      2  C5'       20.7910   69.3370    6.4110 C.3   603  CTN603      0.2142
      3  C4'       21.0260   67.8730    6.1880 C.3   603  CTN603      0.1829
      4  O4'       19.8680   67.0900    6.6120 O.3   603  CTN603     -0.3318
      5  C1'       19.9330   65.8940    5.8650 C.3   603  CTN603      0.2400
      6  N1        18.5670   65.5190    5.3810 N.am  603  CTN603     -0.1778
      7  C6        17.6440   66.4970    5.0940 C.2   603  CTN603      0.0836
      8  C5        16.4040   66.1680    4.6980 C.2   603  CTN603      0.0687
      9  C4        16.1080   64.7660    4.6090 C.2   603  CTN603      0.2346
     10  N3        17.0120   63.8070    4.8710 N.2   603  CTN603     -0.3024
     11  C2        18.2530   64.1530    5.2790 C.1   603  CTN603      0.2756
     12  O2        19.1170   63.2970    5.5620 O.2   603  CTN603     -0.1925
     13  N4        14.8960   64.3820    4.2170 N.pl3 603  CTN603     -0.0921
     14  C2'       20.9710   66.0580    4.7460 C.3   603  CTN603      0.2319
     15  O2'       22.1460   65.3250    5.0950 O.3   603  CTN603     -0.2157
     16  C3'       21.2090   67.5510    4.7260 C.3   603  CTN603      0.2159
     17  O3'       22.5570   67.8620    4.3200 O.3   603  CTN603     -0.2175
@<TRIPOS>BOND
     1    13     9    1
     2    17    16    1
     3     9     8    1
     4     9    10    2
     5     8     7    2
     6    16    14    1
     7    16     3    1
     8    14    15    1
     9    14     5    1
    10    10    11    2
    11     7     6    1
    12    11     6   am
    13    11    12    2
    14     6     5    1
    15     5     4    1
    16     3     2    1
    17     3     4    1
    18     2     1    1
