@<TRIPOS>MOLECULE
3ivg_FG5_B_1.pdb
 29 32 0 0 0
SMALL
GASTEIGER

@<TRIPOS>ATOM
      1  C          2.1690  -13.2940   38.7590 C.2   305  FG5305      0.3875
      2  N          1.0270  -10.9390   38.7200 N.ar  305  FG5305     -0.3193
      3  O          3.2920  -13.8500   38.9340 O.co2 305  FG5305     -0.2435
      4  CA         2.0520  -11.8850   39.3060 C.3   305  FG5305      0.2209
      5  CAA       -2.9080   -6.8670   40.9480 C.3   305  FG5305      0.2525
      6  OAC       -0.9840  -10.2620   33.7540 O.2   305  FG5305     -0.1486
      7  OAD        0.2400  -12.4860   33.7990 O.2   305  FG5305     -0.1486
      8  CAF        2.3080  -10.0390   27.9140 C.ar  305  FG5305      0.0002
      9  CAG        3.4440   -9.5110   28.5220 C.ar  305  FG5305      0.0031
     10  CAH       -0.6190   -9.5480   41.6640 C.ar  305  FG5305      0.0384
     11  CAI        1.3050  -10.5040   28.7450 C.ar  305  FG5305      0.0032
     12  CAJ        3.5490   -9.4570   29.9090 C.ar  305  FG5305      0.0375
     13  CAK        0.2420  -10.3270   40.9140 C.ar  305  FG5305      0.0203
     14  CAL       -1.4020   -8.6720   39.5410 C.ar  305  FG5305      0.0384
     15  CAM       -0.2960   -9.6160   37.5530 C.ar  305  FG5305      0.0158
     16  CAN        0.6370  -10.8250   31.0380 C.ar  305  FG5305      0.0615
     17  CAO        1.3880  -11.1080   36.2430 C.3   305  FG5305      0.1590
     18  NAQ        1.3760  -10.2290   35.0640 N.3   305  FG5305     -0.0684
     19  OAR       -2.3030   -7.9420   41.6670 O.3   305  FG5305     -0.4714
     20  OAS        2.3800  -10.0170   32.0480 O.2   305  FG5305     -0.4356
     21  CAU       -1.4540   -8.7030   40.9490 C.ar  305  FG5305      0.1388
     22  CAV        0.6860  -10.5270   37.4960 C.ar  305  FG5305      0.0572
     23  CAW        1.1860  -10.5710   32.2120 C.ar  305  FG5305      0.2686
     24  CAX        1.4560  -10.4350   30.0710 C.ar  305  FG5305      0.0391
     25  CAY       -0.5460   -9.4560   38.8590 C.ar  305  FG5305      0.0200
     26  CAZ        2.5520   -9.9290   30.6510 C.ar  305  FG5305      0.1471
     27  CBA        0.2700  -10.2680   39.5690 C.ar  305  FG5305      0.0603
     28  SBC        0.3880  -10.9540   33.7370 S.O2  305  FG5305      0.1097
     29  OXT        1.1570  -13.8020   38.2310 O.co2 305  FG5305     -0.2435
@<TRIPOS>BOND
     1     8     9   ar
     2     8    11   ar
     3     9    12   ar
     4    11    24   ar
     5    12    26   ar
     6    24    26   ar
     7    24    16   ar
     8    26    20   ar
     9    16    23   ar
    10    20    23   ar
    11    23    28    1
    12    28     6    2
    13    28     7    2
    14    28    18    1
    15    18    17    1
    16    17    22    1
    17    22    15   ar
    18    22     2   ar
    19    15    25   ar
    20    29     1   ar
    21     2     4    1
    22     2    27   ar
    23     1     3   ar
    24     1     4    1
    25    25    14   ar
    26    25    27   ar
    27    14    21   ar
    28    27    13   ar
    29    13    10   ar
    30     5    19    1
    31    21    10   ar
    32    21    19    1
