@<TRIPOS>MOLECULE
3ivh_1LI_A_1.pdb
 34 36 0 0 0
SMALL
GASTEIGER

@<TRIPOS>ATOM
      1  C4        13.2080   -4.5360   18.2520 C.2     1  1LI1        0.2419
      2  C7        15.6830   -5.5280   16.0490 C.3     1  1LI1        0.1894
      3  C8        13.4220   -6.5450   15.4070 C.3     1  1LI1        0.0508
      4  C10       10.9310   -6.0910   15.2820 C.ar    1  1LI1        0.0256
      5  C13       10.4510   -7.6790   17.5070 C.ar    1  1LI1        0.1421
      6  C17       16.4400   -4.7730   17.1580 C.3     1  1LI1        0.1235
      7  C20       18.8230   -4.4490   18.0190 C.3     1  1LI1        0.0781
      8  C21       18.3630   -3.1590   18.7120 C.3     1  1LI1        0.0202
      9  C22       19.3990   -2.5060   19.6350 C.3     1  1LI1        0.0017
     10  C24       18.8690   -5.6940   18.8930 C.ar    1  1LI1       -0.0084
     11  C26       18.9560   -8.0430   20.4340 C.ar    1  1LI1       -0.0043
     12  C28       19.3470   -6.8890   18.3550 C.ar    1  1LI1       -0.0073
     13  F16       10.2280   -8.4380   18.5820 F       1  1LI1       -0.2041
     14  C14       11.7510   -7.5270   17.0260 C.ar    1  1LI1        0.0256
     15  C12        9.3910   -7.0440   16.8750 C.ar    1  1LI1        0.0592
     16  C11        9.6320   -6.2580   15.7550 C.ar    1  1LI1        0.1421
     17  F15        8.6070   -5.6230   15.1510 F       1  1LI1       -0.2041
     18  C9        11.9990   -6.7290   15.9100 C.ar    1  1LI1       -0.0159
     19  C31       14.2690   -5.9030   16.5060 C.3     1  1LI1        0.1313
     20  N6        13.5850   -4.7050   16.9810 N.am    1  1LI1       -0.2042
     21  O5        13.4770   -5.3380   19.1160 O.2     1  1LI1       -0.2733
     22  C3        12.4310   -3.2930   18.5710 C.3     1  1LI1        0.0964
     23  O18       16.4000   -6.6910   15.6900 O.3     1  1LI1       -0.2197
     24  N19       17.8760   -4.7100   16.9280 N.3     1  1LI1       -0.2140
     25  C34       20.7780   -2.3900   18.9880 C.3     1  1LI1        0.0001
     26  C33       21.2150   -3.7330   18.4190 C.3     1  1LI1        0.0017
     27  C32       20.1930   -4.2100   17.3920 C.3     1  1LI1        0.0202
     28  C23       18.4330   -5.7000   20.2190 C.ar    1  1LI1       -0.0030
     29  C27       19.4110   -8.0750   19.1090 C.ar    1  1LI1       -0.0231
     30  C25       18.4810   -6.8700   20.9810 C.ar    1  1LI1       -0.0006
     31  C29       19.9210   -9.3560   18.4800 C.3     1  1LI1        0.0189
     32  C30       21.0730   -9.0790   17.5150 C.3     1  1LI1        0.0044
     33  C2        20.4570  -10.3410   19.5220 C.3     1  1LI1        0.0044
     34  C1        18.7590   -9.9850   17.7150 C.3     1  1LI1        0.0044
@<TRIPOS>BOND
     1    17    16    1
     2     4    16   ar
     3     4    18   ar
     4     3    18    1
     5     3    19    1
     6    23     2    1
     7    16    15   ar
     8    18    14   ar
     9     2    19    1
    10     2     6    1
    11    19    20    1
    12    15     5   ar
    13    24     6    1
    14    24     7    1
    15    20     1   am
    16    14     5   ar
    17    27     7    1
    18    27    26    1
    19     5    13    1
    20    32    31    1
    21    34    31    1
    22     7     8    1
    23     7    10    1
    24     1    22    1
    25     1    21    2
    26    12    10   ar
    27    12    29   ar
    28    26    25    1
    29    31    29    1
    30    31    33    1
    31     8     9    1
    32    10    28   ar
    33    25     9    1
    34    29    11   ar
    35    28    30   ar
    36    11    30   ar
