@<TRIPOS>MOLECULE
3ivi_2LI_A_1.pdb
 37 40 0 0 0
SMALL
GASTEIGER

@<TRIPOS>ATOM
      1  C4        15.5350    0.2800   49.1850 C.3     1  2LI1        0.0827
      2  C5        14.1880   -0.2680   48.8130 C.3     1  2LI1        0.0319
      3  C6        14.3000   -1.7560   48.5190 C.3     1  2LI1        0.0792
      4  C7        14.4200   -2.5880   49.8060 C.ar    1  2LI1       -0.0083
      5  C8        14.4670   -2.0180   51.0890 C.ar    1  2LI1       -0.0030
      6  C10       14.6890   -4.1830   52.1330 C.ar    1  2LI1       -0.0043
      7  C13       14.7490   -6.2920   50.7090 C.3     1  2LI1        0.0189
      8  C15       15.1790   -6.9490   52.0240 C.3     1  2LI1        0.0044
      9  C20        9.4020   -2.3460   48.5640 C.3     1  2LI1        0.1313
     10  C22        9.1380   -0.2440   49.8570 C.2     1  2LI1        0.2419
     11  C26        8.1650   -3.0390   47.9860 C.3     1  2LI1        0.0508
     12  C28        5.8090   -2.0830   48.1800 C.ar    1  2LI1        0.0256
     13  F34        3.6170   -1.1810   48.3510 F       1  2LI1       -0.2041
     14  C29        4.6830   -1.7470   48.9470 C.ar    1  2LI1        0.1421
     15  C30        4.6530   -1.9840   50.3210 C.ar    1  2LI1        0.0592
     16  C31        5.7690   -2.5580   50.9250 C.ar    1  2LI1        0.1421
     17  F33        5.7940   -2.8110   52.2500 F       1  2LI1       -0.2041
     18  C32        6.8880   -2.8910   50.1550 C.ar    1  2LI1        0.0256
     19  C27        6.9240   -2.6620   48.7840 C.ar    1  2LI1       -0.0159
     20  N21        9.0980   -0.9260   48.7030 N.am    1  2LI1       -0.2042
     21  C23        8.6680    1.1840   49.8040 C.3     1  2LI1        0.0964
     22  O25        9.5060   -0.7120   50.9230 O.2     1  2LI1       -0.2733
     23  C19       10.6610   -2.6140   47.7280 C.3     1  2LI1        0.1894
     24  O24       11.0560   -3.9890   47.7650 O.3     1  2LI1       -0.2197
     25  C18       11.7920   -1.7540   48.2610 C.3     1  2LI1        0.1235
     26  N17       13.1100   -2.1150   47.7740 N.3     1  2LI1       -0.2139
     27  C35       15.8150    1.4740   49.7930 C.2     1  2LI1        0.1010
     28  C3        16.8190   -0.3910   48.9170 C.2     1  2LI1        0.0637
     29  N37       17.8210    0.3960   49.3700 N.2     1  2LI1       -0.1566
     30  N36       17.1510    1.5240   49.8870 N.2     1  2LI1       -0.1514
     31  C2        16.8730   -1.7250   48.2520 C.3     1  2LI1        0.0453
     32  C1        15.5100   -2.0060   47.6180 C.3     1  2LI1        0.0262
     33  C9        14.5900   -2.8050   52.2350 C.ar    1  2LI1       -0.0006
     34  C11       14.6430   -4.7890   50.8660 C.ar    1  2LI1       -0.0231
     35  C12       14.5110   -3.9750   49.7230 C.ar    1  2LI1       -0.0073
     36  C16       15.7820   -6.6240   49.6510 C.3     1  2LI1        0.0044
     37  C14       13.4250   -6.9030   50.2670 C.3     1  2LI1        0.0044
@<TRIPOS>BOND
     1    32    31    1
     2    32     3    1
     3    23    24    1
     4    23    25    1
     5    23     9    1
     6    26    25    1
     7    26     3    1
     8    11     9    1
     9    11    19    1
    10    12    19   ar
    11    12    14   ar
    12    31    28    1
    13    13    14    1
    14     3     2    1
    15     3     4    1
    16     9    20    1
    17    20    10   am
    18    19    18   ar
    19     2     1    1
    20    28     1    1
    21    28    29    2
    22    14    15   ar
    23     1    27    1
    24    29    30    1
    25    36     7    1
    26    35     4   ar
    27    35    34   ar
    28    27    30    2
    29    21    10    1
    30     4     5   ar
    31    10    22    2
    32    18    16   ar
    33    37     7    1
    34    15    16   ar
    35     7    34    1
    36     7     8    1
    37    34     6   ar
    38    16    17    1
    39     5    33   ar
    40     6    33   ar
