@<TRIPOS>MOLECULE
3ivm_ZPR_A_1.pdb
 17 18 0 0 0
SMALL
GASTEIGER

@<TRIPOS>ATOM
      1  O17        9.6130  101.9930   59.2740 O.co2 999  ZPR999     -0.2223
      2  C15        8.9120  101.0170   58.6680 C.2   999  ZPR999      0.4476
      3  O16        8.6050  100.0070   59.2940 O.co2 999  ZPR999     -0.2223
      4  N14        8.5380  101.1520   57.3570 N.am  999  ZPR999     -0.2363
      5  C10        7.7530  100.1700   56.5360 C.3   999  ZPR999      0.1551
      6  C8         8.4520   98.8280   56.3920 C.2   999  ZPR999      0.2441
      7  O9         9.6570   98.7820   56.4840 O.2   999  ZPR999     -0.2731
      8  C11        7.5880  100.8030   55.1350 C.3   999  ZPR999      0.0311
      9  C12        8.7780  101.7870   55.0430 C.3   999  ZPR999      0.0238
     10  C13        8.8360  102.3190   56.4950 C.3   999  ZPR999      0.0973
     11  C4         7.1850   95.3560   56.3220 C.3   999  ZPR999      0.0296
     12  C5         5.9330   96.1000   55.7710 C.3   999  ZPR999      0.0237
     13  C1         8.8220   96.0630   54.5400 C.2   999  ZPR999      0.2269
     14  O2         8.5560   96.8230   53.6310 O.2   999  ZPR999     -0.2865
     15  N7         7.7500   97.6830   56.1550 N.am  999  ZPR999     -0.2727
     16  C6         6.2810   97.5800   56.0330 C.3   999  ZPR999      0.0939
     17  C3         8.3300   96.3200   55.9770 C.3   999  ZPR999      0.1402
@<TRIPOS>BOND
     1    14    13    2
     2    13    17    1
     3     9     8    1
     4     9    10    1
     5     8     5    1
     6    12    16    1
     7    12    11    1
     8    17    15    1
     9    17    11    1
    10    16    15    1
    11    15     6   am
    12     6     7    2
    13     6     5    1
    14    10     4    1
    15     5     4    1
    16     4     2   am
    17     2     1   ar
    18     2     3   ar
