@<TRIPOS>MOLECULE
3ivq_III_D_1.pdb
 47 47 0 0 0
SMALL
GASTEIGER

@<TRIPOS>ATOM
      1  N        -19.6020   12.5140  -41.4360 N.3   1360  PRO1360    -0.2102
      2  CA       -20.3910   12.8790  -40.2410 C.3   1360  PRO1360     0.1504
      3  C        -21.1910   14.1610  -40.4430 C.2   1360  PRO1360     0.2576
      4  O        -20.9090   14.9410  -41.3550 O.2   1360  PRO1360    -0.2718
      5  CB       -19.4030   13.0310  -39.0930 C.3   1360  PRO1360     0.0282
      6  CG       -18.3360   12.0380  -39.5020 C.3   1360  PRO1360     0.0208
      7  CD       -18.2200   12.1970  -41.0390 C.3   1360  PRO1360     0.0893
      8  N        -22.1810   14.3710  -39.5760 N.am  1361  ASP1361    -0.1960
      9  CA       -23.0430   15.5510  -39.6440 C.3   1361  ASP1361     0.1840
     10  C        -22.2890   16.8380  -39.3770 C.2   1361  ASP1361     0.2622
     11  O        -21.9110   17.1250  -38.2410 O.2   1361  ASP1361    -0.2715
     12  CB       -24.2000   15.4460  -38.6440 C.3   1361  ASP1361     0.1450
     13  CG       -25.2670   14.4590  -39.0830 C.2   1361  ASP1361     0.3671
     14  OD1      -25.1730   13.9390  -40.2150 O.co2 1361  ASP1361    -0.2456
     15  OD2      -26.2050   14.2120  -38.2940 O.co2 1361  ASP1361    -0.2456
     16  N        -22.0940   17.6210  -40.4300 N.am  1362  VAL1362    -0.1963
     17  CA       -21.3890   18.8870  -40.3280 C.3   1362  VAL1362     0.1727
     18  C        -22.3660   20.0290  -40.5530 C.2   1362  VAL1362     0.2617
     19  O        -23.0650   20.0690  -41.5650 O.2   1362  VAL1362    -0.2715
     20  CB       -20.2550   18.9680  -41.3750 C.3   1362  VAL1362     0.0290
     21  CG1      -19.5910   20.3380  -41.3330 C.3   1362  VAL1362     0.0023
     22  CG2      -19.2400   17.8730  -41.1080 C.3   1362  VAL1362     0.0023
     23  N        -22.4130   20.9560  -39.6030 N.am  1363  SER1363    -0.1936
     24  CA       -23.3160   22.0890  -39.7030 C.3   1363  SER1363     0.2055
     25  C        -22.6170   23.3940  -39.3960 C.2   1363  SER1363     0.2644
     26  O        -21.4010   23.4380  -39.2250 O.2   1363  SER1363    -0.2714
     27  CB       -24.5090   21.9050  -38.7620 C.3   1363  SER1363     0.2130
     28  OG       -24.0910   21.6720  -37.4280 O.3   1363  SER1363    -0.2179
     29  N        -23.4040   24.4570  -39.3150 N.am  1364  SER1364    -0.1935
     30  CA       -22.8940   25.7930  -39.0410 C.3   1364  SER1364     0.2055
     31  C        -23.7830   26.4370  -37.9570 C.2   1364  SER1364     0.2644
     32  O        -24.9860   26.3500  -38.0250 O.2   1364  SER1364    -0.2714
     33  CB       -22.9480   26.6280  -40.3230 C.3   1364  SER1364     0.2130
     34  OG       -22.4140   27.9240  -40.1250 O.3   1364  SER1364    -0.2179
     35  N        -23.1860   27.0930  -36.9720 N.am  1365  SER1365    -0.1935
     36  CA       -23.9770   27.7130  -35.9270 C.3   1365  SER1365     0.2055
     37  C        -24.2170   29.1010  -36.4560 C.2   1365  SER1365     0.2643
     38  O        -24.5160   30.0350  -35.7200 O.2   1365  SER1365    -0.2714
     39  CB       -23.1690   27.8400  -34.6530 C.3   1365  SER1365     0.2130
     40  OG       -22.4290   29.0360  -34.7100 O.3   1365  SER1365    -0.2179
     41  N        -24.1430   29.1980  -37.7720 N.am  1366  THR1366    -0.1950
     42  CA       -24.0220   30.4920  -38.3750 C.3   1366  THR1366     0.1897
     43  C        -24.4670   30.5400  -39.8520 C.2   1366  THR1366     0.2313
     44  O        -23.8990   31.3750  -40.6080 O.2   1366  THR1366    -0.2863
     45  CB       -22.5130   30.7600  -38.1210 C.3   1366  THR1366     0.1794
     46  OG1      -22.3290   31.6580  -37.0260 O.3   1366  THR1366    -0.2208
     47  CG2      -21.7510   31.1570  -39.3490 C.3   1366  THR1366     0.0378
@<TRIPOS>BOND
     1    19    18    2
     2     1     7    1
     3     1     2    1
     4    20    21    1
     5    20    22    1
     6    20    17    1
     7     4     3    2
     8     7     6    1
     9    44    43    2
    10    18    17    1
    11    18    23   am
    12     3     2    1
    13     3     8   am
    14    16    17    1
    15    16    10   am
    16    33    34    1
    17    33    30    1
    18     2     5    1
    19    14    13   ar
    20    43    42    1
    21    24    23    1
    22    24    25    1
    23    24    27    1
    24     9     8    1
    25     9    10    1
    26     9    12    1
    27     6     5    1
    28    25    29   am
    29    25    26    2
    30    10    11    2
    31    47    45    1
    32    29    30    1
    33    13    12    1
    34    13    15   ar
    35    30    31    1
    36    27    28    1
    37    42    45    1
    38    42    41    1
    39    45    46    1
    40    32    31    2
    41    31    35   am
    42    41    37   am
    43    35    36    1
    44    37    36    1
    45    37    38    2
    46    36    39    1
    47    40    39    1
