@<TRIPOS>MOLECULE
3ivt_AKG_A_1.pdb
 10 9 0 0 0
SMALL
GASTEIGER

@<TRIPOS>ATOM
      1  C1       -31.1530   33.7080   14.5610 C.2   1000  AKG1000     0.4219
      2  O1       -30.7390   33.1560   13.4980 O.co2 1000  AKG1000    -0.2373
      3  O2       -32.2050   34.3940   14.6570 O.co2 1000  AKG1000    -0.2373
      4  C2       -30.3970   33.5650   15.6440 C.2   1000  AKG1000     0.2526
      5  O5       -29.3720   32.9010   15.5240 O.2   1000  AKG1000    -0.2843
      6  C3       -30.7810   34.2230   16.9620 C.3   1000  AKG1000     0.0881
      7  C4       -30.1980   35.6420   16.9240 C.3   1000  AKG1000     0.1224
      8  C5       -30.5670   36.5250   18.1000 C.2   1000  AKG1000     0.3653
      9  O3       -30.7820   36.0060   19.2100 O.co2 1000  AKG1000    -0.2456
     10  O4       -30.6280   37.7650   17.9390 O.co2 1000  AKG1000    -0.2456
@<TRIPOS>BOND
     1     2     1   ar
     2     1     3   ar
     3     1     4    1
     4     5     4    2
     5     4     6    1
     6     7     6    1
     7     7     8    1
     8    10     8   ar
     9     8     9   ar
