@<TRIPOS>MOLECULE
3ivu_AKG_A_1.pdb
 10 9 0 0 0
SMALL
GASTEIGER

@<TRIPOS>ATOM
      1  C1       -31.2650   33.5520   14.7030 C.2   1000  AKG1000     0.4219
      2  O1       -30.8910   33.0670   13.6000 O.co2 1000  AKG1000    -0.2373
      3  O2       -32.2610   34.3100   14.7760 O.co2 1000  AKG1000    -0.2373
      4  C2       -30.5590   33.2290   15.8020 C.2   1000  AKG1000     0.2526
      5  O5       -29.5880   32.4890   15.6390 O.2   1000  AKG1000    -0.2843
      6  C3       -30.9130   33.7880   17.1700 C.3   1000  AKG1000     0.0881
      7  C4       -30.2060   35.1580   17.2840 C.3   1000  AKG1000     0.1224
      8  C5       -30.7790   36.1150   18.3380 C.2   1000  AKG1000     0.3653
      9  O3       -30.6800   35.8250   19.5500 O.co2 1000  AKG1000    -0.2456
     10  O4       -31.3390   37.1870   18.0030 O.co2 1000  AKG1000    -0.2456
@<TRIPOS>BOND
     1     2     1   ar
     2     1     3   ar
     3     1     4    1
     4     5     4    2
     5     4     6    1
     6     6     7    1
     7     7     8    1
     8    10     8   ar
     9     8     9   ar
