@<TRIPOS>MOLECULE
3ivx_FG6_A_1.pdb
 30 33 0 0 0
SMALL
GASTEIGER

@<TRIPOS>ATOM
      1  C         18.6710   11.0570   -0.9580 C.2   302  FG6302      0.3875
      2  N         16.1740   10.3380   -1.3780 N.ar  302  FG6302     -0.3135
      3  O         18.3150   12.1710   -0.5580 O.co2 302  FG6302     -0.2435
      4  CA        17.6490   10.1280   -1.5980 C.3   302  FG6302      0.2212
      5  CAA       11.0750    9.7570   -5.0100 C.3   302  FG6302      0.2525
      6  OAC       17.0190   10.3670    1.2910 O.2   302  FG6302     -0.2651
      7  OAD       15.1490   13.0720    3.7420 O.2   302  FG6302     -0.1452
      8  OAE       17.0670   11.6710    3.5830 O.2   302  FG6302     -0.1452
      9  CAG       13.2690    8.7830    8.1850 C.ar  302  FG6302      0.0002
     10  CAH       12.9810    7.7440    7.3010 C.ar  302  FG6302      0.0031
     11  CAI       14.7120    9.8780   -4.7050 C.ar  302  FG6302      0.0384
     12  CAJ       13.8850    9.9210    7.6900 C.ar  302  FG6302      0.0032
     13  CAK       13.3160    7.8940    5.9520 C.ar  302  FG6302      0.0375
     14  CAL       15.7120    9.9650   -3.7420 C.ar  302  FG6302      0.0203
     15  CAM       13.1110   10.3400   -2.9690 C.ar  302  FG6302      0.0384
     16  CAN       14.7670   10.9740    5.7220 C.ar  302  FG6302      0.0618
     17  CAO       14.1290   10.6380   -0.7250 C.ar  302  FG6302      0.0235
     18  NAQ       15.0740   11.3750    1.8160 N.am  302  FG6302     -0.0507
     19  OAR       12.4620    9.9520   -5.3340 O.3   302  FG6302     -0.4714
     20  OAS       14.3660    9.4720    4.2000 O.2   302  FG6302     -0.4354
     21  CAU       15.8920   10.7650    0.9530 C.2   302  FG6302      0.3016
     22  CAV       13.3910   10.0610   -4.3290 C.ar  302  FG6302      0.1388
     23  CAW       14.8640   10.6520    4.4470 C.ar  302  FG6302      0.2723
     24  CAX       15.4110   10.5900   -0.3130 C.ar  302  FG6302      0.1177
     25  CAY       14.1880    9.9990    6.3980 C.ar  302  FG6302      0.0391
     26  CAZ       14.1080   10.4150   -2.0560 C.ar  302  FG6302      0.0204
     27  CBA       13.9070    9.0160    5.5280 C.ar  302  FG6302      0.1471
     28  CBB       15.3880   10.2200   -2.4470 C.ar  302  FG6302      0.0606
     29  SBD       15.5540   11.6840    3.4010 S.O2  302  FG6302      0.1283
     30  OXT       19.8340   10.6020   -0.9190 O.co2 302  FG6302     -0.2435
@<TRIPOS>BOND
     1    19     5    1
     2    19    22    1
     3    11    22   ar
     4    11    14   ar
     5    22    15   ar
     6    14    28   ar
     7    15    26   ar
     8    28    26   ar
     9    28     2   ar
    10    26    17   ar
    11     4     2    1
    12     4     1    1
    13     2    24   ar
    14     1    30   ar
    15     1     3   ar
    16    17    24   ar
    17    24    21    1
    18    21     6    2
    19    21    18   am
    20    18    29    1
    21    29     8    2
    22    29     7    2
    23    29    23    1
    24    20    23   ar
    25    20    27   ar
    26    23    16   ar
    27    27    13   ar
    28    27    25   ar
    29    16    25   ar
    30    13    10   ar
    31    25    12   ar
    32    10     9   ar
    33    12     9   ar
