@<TRIPOS>MOLECULE
3ivy_HEM_A_1.pdb
 43 50 0 0 0
SMALL
GASTEIGER

@<TRIPOS>ATOM
      1  CHA       23.0240   40.1540   11.9470 C.2   501  HEM501      0.0000
      2  CHB       19.3870   37.6600   14.0490 C.2   501  HEM501      0.0000
      3  CHC       16.8280   41.7940   14.4310 C.2   501  HEM501      0.0000
      4  CHD       20.2210   44.1780   11.9480 C.2   501  HEM501      0.0000
      5  C1A       22.2790   39.1280   12.4500 C.2   501  HEM501      0.0000
      6  C2A       22.6180   37.7850   12.6510 C.2   501  HEM501      0.0000
      7  C3A       21.6290   37.0590   13.2000 C.2   501  HEM501      0.0000
      8  C4A       20.6140   38.0330   13.4580 C.2   501  HEM501      0.0000
      9  CMA       21.5580   35.5570   13.5560 C.3   501  HEM501      0.0000
     10  CAA       23.9960   37.2400   12.1570 C.3   501  HEM501      0.0000
     11  CBA       24.9140   37.2150   13.3570 C.3   501  HEM501      0.0000
     12  CGA       26.2240   36.3950   13.1560 C.2   501  HEM501      0.0000
     13  O1A       26.4870   35.8600   12.1030 O.co2 501  HEM501      0.0000
     14  O2A       26.9230   36.2050   14.1630 O.co2 501  HEM501      0.0000
     15  C1B       18.3580   38.5840   14.3090 C.ar  501  HEM501      0.0000
     16  C2B       17.1130   38.2480   14.9690 C.ar  501  HEM501      0.0000
     17  C3B       16.4280   39.4040   15.0680 C.ar  501  HEM501      0.0000
     18  C4B       17.1610   40.4490   14.4680 C.ar  501  HEM501      0.0000
     19  CMB       16.7730   36.8350   15.3960 C.3   501  HEM501      0.0000
     20  CAB       15.0290   39.6530   15.7120 C.2   501  HEM501      0.0000
     21  CBB       14.6170   38.9090   16.7310 C.2   501  HEM501      0.0000
     22  C1C       17.5120   42.8660   13.8340 C.2   501  HEM501      0.0000
     23  C2C       17.0650   44.2130   13.6450 C.2   501  HEM501      0.0000
     24  C3C       18.0240   44.8110   12.9310 C.2   501  HEM501      0.0000
     25  C4C       19.0660   43.8620   12.6350 C.2   501  HEM501      0.0000
     26  CMC       15.7690   44.7550   14.2970 C.3   501  HEM501      0.0000
     27  CAC       18.0380   46.1740   12.4640 C.2   501  HEM501      0.0000
     28  CBC       17.0620   47.0980   12.3430 C.2   501  HEM501      0.0000
     29  C1D       21.2210   43.3090   11.6590 C.ar  501  HEM501      0.0000
     30  C2D       22.4300   43.6560   10.8670 C.ar  501  HEM501      0.0000
     31  C3D       23.2270   42.4630   10.9170 C.ar  501  HEM501      0.0000
     32  C4D       22.5960   41.4320   11.6650 C.ar  501  HEM501      0.0000
     33  CMD       22.7230   44.9800   10.1490 C.3   501  HEM501      0.0000
     34  CAD       24.6270   42.3040   10.2020 C.3   501  HEM501      0.0000
     35  CBD       25.7720   42.4990   11.2410 C.3   501  HEM501      0.0000
     36  CGD       27.1320   42.2820   10.5600 C.2   501  HEM501      0.0000
     37  O1D       27.2100   41.5230    9.6200 O.co2 501  HEM501      0.0000
     38  O2D       28.1300   42.8800   11.0950 O.co2 501  HEM501      0.0000
     39  NA        20.9850   39.2730   13.0030 N.2   501  HEM501      0.0000
     40  NB        18.3570   39.9220   14.0140 N.ar  501  HEM501      0.0000
     41  NC        18.7180   42.6730   13.1870 N.2   501  HEM501      0.0000
     42  ND        21.3700   41.9580   12.0980 N.ar  501  HEM501      0.0000
     43 FE         19.9410   41.0130   13.2490 Fe    501  HEM501      0.0000
@<TRIPOS>BOND
     1    37    36   ar
     2    33    30    1
     3    34    31    1
     4    34    35    1
     5    36    38   ar
     6    36    35    1
     7    30    31   ar
     8    30    29   ar
     9    31    32   ar
    10    29     4    2
    11    29    42   ar
    12    32     1    2
    13    32    42   ar
    14     1     5    1
    15     4    25    1
    16    42    43    1
    17    13    12   ar
    18    10     6    1
    19    10    11    1
    20    28    27    2
    21     5     6    1
    22     5    39    2
    23    27    24    1
    24    25    24    1
    25    25    41    2
    26     6     7    2
    27    24    23    2
    28    39    43    1
    29    39     8    1
    30    12    11    1
    31    12    14   ar
    32    41    43    1
    33    41    22    1
    34     7     8    1
    35     7     9    1
    36    43    40    1
    37     8     2    2
    38    23    22    1
    39    23    26    1
    40    22     3    2
    41    40    15   ar
    42    40    18   ar
    43     2    15    1
    44    15    16   ar
    45     3    18    1
    46    18    17   ar
    47    16    17   ar
    48    16    19    1
    49    17    20    1
    50    20    21    2
