@<TRIPOS>MOLECULE
3iw0_HEM_A_1.pdb
 43 50 0 0 0
SMALL
GASTEIGER

@<TRIPOS>ATOM
      1  CHA       -0.6190  -22.6280   17.4220 C.2   501  HEM501      0.0000
      2  CHB       -4.3470  -21.3330   20.1900 C.2   501  HEM501      0.0000
      3  CHC       -2.8920  -16.7070   19.8950 C.2   501  HEM501      0.0000
      4  CHD        0.5270  -17.9240   16.7230 C.2   501  HEM501      0.0000
      5  C1A       -1.7360  -22.6980   18.2240 C.2   501  HEM501      0.0000
      6  C2A       -2.4450  -23.9120   18.5700 C.2   501  HEM501      0.0000
      7  C3A       -3.4820  -23.5550   19.3540 C.2   501  HEM501      0.0000
      8  C4A       -3.4590  -22.0950   19.4770 C.2   501  HEM501      0.0000
      9  CMA       -4.5430  -24.4930   19.9710 C.3   501  HEM501      0.0000
     10  CAA       -2.0480  -25.3460   18.1280 C.3   501  HEM501      0.0000
     11  CBA       -1.2770  -25.9890   19.2750 C.3   501  HEM501      0.0000
     12  CGA       -0.9740  -27.4630   19.1170 C.2   501  HEM501      0.0000
     13  O1A       -1.3500  -28.0560   18.0710 O.co2 501  HEM501      0.0000
     14  O2A       -0.3480  -28.0130   20.0840 O.co2 501  HEM501      0.0000
     15  C1B       -4.3010  -19.9670   20.3350 C.ar  501  HEM501      0.0000
     16  C2B       -5.2210  -19.1710   21.1200 C.ar  501  HEM501      0.0000
     17  C3B       -4.8080  -17.8870   21.0590 C.ar  501  HEM501      0.0000
     18  C4B       -3.6180  -17.8440   20.2140 C.ar  501  HEM501      0.0000
     19  CMB       -6.4290  -19.7610   21.8940 C.3   501  HEM501      0.0000
     20  CAB       -5.4410  -16.6220   21.6890 C.2   501  HEM501      0.0000
     21  CBB       -6.0310  -16.6220   22.8880 C.2   501  HEM501      0.0000
     22  C1C       -1.8250  -16.6180   19.0320 C.2   501  HEM501      0.0000
     23  C2C       -1.1070  -15.4180   18.6880 C.2   501  HEM501      0.0000
     24  C3C       -0.1640  -15.7310   17.7800 C.2   501  HEM501      0.0000
     25  C4C       -0.2480  -17.1770   17.5730 C.2   501  HEM501      0.0000
     26  CMC       -1.4490  -14.0570   19.2950 C.3   501  HEM501      0.0000
     27  CAC        0.8840  -14.8060   17.1100 C.2   501  HEM501      0.0000
     28  CBC        0.6510  -13.5410   16.7780 C.2   501  HEM501      0.0000
     29  C1D        0.5100  -19.2910   16.6190 C.ar  501  HEM501      0.0000
     30  C2D        1.3410  -20.0180   15.7070 C.ar  501  HEM501      0.0000
     31  C3D        1.0110  -21.4720   15.9280 C.ar  501  HEM501      0.0000
     32  C4D       -0.0330  -21.4810   16.9360 C.ar  501  HEM501      0.0000
     33  CMD        2.3810  -19.4300   14.7400 C.3   501  HEM501      0.0000
     34  CAD        1.5750  -22.7110   15.2330 C.3   501  HEM501      0.0000
     35  CBD        2.7630  -23.2600   16.0160 C.3   501  HEM501      0.0000
     36  CGD        3.3450  -24.5360   15.4270 C.2   501  HEM501      0.0000
     37  O1D        2.6690  -25.2550   14.6460 O.co2 501  HEM501      0.0000
     38  O2D        4.5450  -24.8230   15.7600 O.co2 501  HEM501      0.0000
     39  NA        -2.3690  -21.6000   18.7980 N.2   501  HEM501      0.0000
     40  NB        -3.3480  -19.1290   19.7860 N.ar  501  HEM501      0.0000
     41  NC        -1.2770  -17.6680   18.3300 N.2   501  HEM501      0.0000
     42  ND        -0.3080  -20.1800   17.3020 N.ar  501  HEM501      0.0000
     43 FE         -1.7040  -19.6670   18.7090 Fe    501  HEM501      0.0000
@<TRIPOS>BOND
     1    37    36   ar
     2    33    30    1
     3    34    31    1
     4    34    35    1
     5    36    38   ar
     6    36    35    1
     7    30    31   ar
     8    30    29   ar
     9    31    32   ar
    10    29     4    2
    11    29    42   ar
    12     4    25    1
    13    28    27    2
    14    32    42   ar
    15    32     1    2
    16    27    24    1
    17    42    43    1
    18     1     5    1
    19    25    24    1
    20    25    41    2
    21    24    23    2
    22    13    12   ar
    23    10     6    1
    24    10    11    1
    25     5     6    1
    26     5    39    2
    27    41    43    1
    28    41    22    1
    29     6     7    2
    30    23    22    1
    31    23    26    1
    32    43    39    1
    33    43    40    1
    34    39     8    1
    35    22     3    2
    36    12    11    1
    37    12    14   ar
    38     7     8    1
    39     7     9    1
    40     8     2    2
    41    40    18   ar
    42    40    15   ar
    43     3    18    1
    44     2    15    1
    45    18    17   ar
    46    15    16   ar
    47    17    16   ar
    48    17    20    1
    49    16    19    1
    50    20    21    2
