@<TRIPOS>MOLECULE
3iw1_HEM_A_1.pdb
 43 50 0 0 0
SMALL
GASTEIGER

@<TRIPOS>ATOM
      1  CHA       22.8940   39.8740   11.8760 C.2   434  HEM434      0.0000
      2  CHB       19.2870   37.4070   14.0000 C.2   434  HEM434      0.0000
      3  CHC       16.7810   41.5490   14.3490 C.2   434  HEM434      0.0000
      4  CHD       20.1140   43.9060   11.8230 C.2   434  HEM434      0.0000
      5  C1A       22.1610   38.8590   12.4540 C.2   434  HEM434      0.0000
      6  C2A       22.5800   37.4750   12.6130 C.2   434  HEM434      0.0000
      7  C3A       21.5720   36.7960   13.2040 C.2   434  HEM434      0.0000
      8  C4A       20.4940   37.7180   13.4210 C.2   434  HEM434      0.0000
      9  CMA       21.4510   35.2980   13.5570 C.3   434  HEM434      0.0000
     10  CAA       23.9650   36.9380   12.1280 C.3   434  HEM434      0.0000
     11  CBA       24.8810   36.8170   13.3430 C.3   434  HEM434      0.0000
     12  CGA       26.1620   36.0470   13.0670 C.2   434  HEM434      0.0000
     13  O1A       26.3840   35.6670   11.8970 O.co2 434  HEM434      0.0000
     14  O2A       26.9510   35.8080   14.0470 O.co2 434  HEM434      0.0000
     15  C1B       18.2710   38.3130   14.2530 C.ar  434  HEM434      0.0000
     16  C2B       17.0250   38.0220   14.8960 C.ar  434  HEM434      0.0000
     17  C3B       16.3370   39.1790   15.0000 C.ar  434  HEM434      0.0000
     18  C4B       17.1400   40.2240   14.4180 C.ar  434  HEM434      0.0000
     19  CMB       16.6370   36.6030   15.3770 C.3   434  HEM434      0.0000
     20  CAB       14.9430   39.4590   15.6140 C.2   434  HEM434      0.0000
     21  CBB       14.4880   38.7760   16.6660 C.2   434  HEM434      0.0000
     22  C1C       17.4460   42.5670   13.7160 C.2   434  HEM434      0.0000
     23  C2C       16.9880   43.9450   13.5800 C.2   434  HEM434      0.0000
     24  C3C       17.9160   44.5890   12.8450 C.2   434  HEM434      0.0000
     25  C4C       18.9870   43.6490   12.5530 C.2   434  HEM434      0.0000
     26  CMC       15.6650   44.5240   14.1580 C.3   434  HEM434      0.0000
     27  CAC       17.9440   46.0620   12.4060 C.2   434  HEM434      0.0000
     28  CBC       16.8680   46.7630   12.0510 C.2   434  HEM434      0.0000
     29  C1D       21.1470   43.0390   11.5940 C.ar  434  HEM434      0.0000
     30  C2D       22.3300   43.3860   10.8010 C.ar  434  HEM434      0.0000
     31  C3D       23.1860   42.1230   10.8380 C.ar  434  HEM434      0.0000
     32  C4D       22.4340   41.1470   11.5980 C.ar  434  HEM434      0.0000
     33  CMD       22.6370   44.7310   10.0940 C.3   434  HEM434      0.0000
     34  CAD       24.5580   41.8840   10.1640 C.3   434  HEM434      0.0000
     35  CBD       25.6780   42.1530   11.1540 C.3   434  HEM434      0.0000
     36  CGD       27.0370   41.9040   10.5570 C.2   434  HEM434      0.0000
     37  O1D       27.1330   41.1110    9.5900 O.co2 434  HEM434      0.0000
     38  O2D       28.0410   42.4860   11.0600 O.co2 434  HEM434      0.0000
     39  NA        20.8960   38.9790   12.9880 N.2   434  HEM434      0.0000
     40  NB        18.3000   39.6400   13.9780 N.ar  434  HEM434      0.0000
     41  NC        18.6590   42.4190   13.0680 N.2   434  HEM434      0.0000
     42  ND        21.2510   41.7260   12.0570 N.ar  434  HEM434      0.0000
     43 FE         19.8620   40.7470   13.2080 Fe    434  HEM434      0.0000
@<TRIPOS>BOND
     1    37    36   ar
     2    33    30    1
     3    34    31    1
     4    34    35    1
     5    36    38   ar
     6    36    35    1
     7    30    31   ar
     8    30    29   ar
     9    31    32   ar
    10    29     4    2
    11    29    42   ar
    12    32     1    2
    13    32    42   ar
    14     4    25    1
    15     1     5    1
    16    13    12   ar
    17    28    27    2
    18    42    43    1
    19    10     6    1
    20    10    11    1
    21    27    24    1
    22     5     6    1
    23     5    39    2
    24    25    24    1
    25    25    41    2
    26     6     7    2
    27    24    23    2
    28    39    43    1
    29    39     8    1
    30    12    11    1
    31    12    14   ar
    32    41    43    1
    33    41    22    1
    34     7     8    1
    35     7     9    1
    36    43    40    1
    37     8     2    2
    38    23    22    1
    39    23    26    1
    40    22     3    2
    41    40    15   ar
    42    40    18   ar
    43     2    15    1
    44    15    16   ar
    45     3    18    1
    46    18    17   ar
    47    16    17   ar
    48    16    19    1
    49    17    20    1
    50    20    21    2
