@<TRIPOS>MOLECULE
3iw1_ASD_A_1.pdb
 21 24 0 0 0
SMALL
GASTEIGER

@<TRIPOS>ATOM
      1  C1        18.1890   38.6300   -2.4160 C.3   1223  ASD1223     0.0118
      2  C10       18.8280   39.8500   -1.7220 C.3   1223  ASD1223     0.0157
      3  C11       19.4270   40.9150   -3.9490 C.3   1223  ASD1223     0.0007
      4  C12       20.5730   41.4610   -4.8460 C.3   1223  ASD1223     0.0069
      5  C13       21.3500   42.5280   -4.0880 C.3   1223  ASD1223     0.0515
      6  C14       21.9830   41.8510   -2.8740 C.3   1223  ASD1223     0.0070
      7  C15       23.0910   42.8180   -2.3780 C.3   1223  ASD1223     0.0082
      8  C16       23.6090   43.5010   -3.6640 C.3   1223  ASD1223     0.0645
      9  C17       22.5850   43.1200   -4.7310 C.2   1223  ASD1223     0.1498
     10  C18       20.4450   43.7310   -3.7720 C.3   1223  ASD1223     0.0073
     11  C19       17.7580   40.9160   -1.5040 C.3   1223  ASD1223     0.0041
     12  C2        17.2430   37.7880   -1.5380 C.3   1223  ASD1223     0.0694
     13  C3        17.8410   37.5400   -0.1490 C.2   1223  ASD1223     0.1725
     14  C4        18.9550   38.3800    0.3320 C.2   1223  ASD1223     0.0289
     15  C5        19.3990   39.4670   -0.3550 C.2   1223  ASD1223    -0.0420
     16  C6        20.4260   40.3530    0.3440 C.3   1223  ASD1223     0.0221
     17  C7        21.5110   40.8640   -0.6060 C.3   1223  ASD1223     0.0044
     18  C8        20.9010   41.4010   -1.8960 C.3   1223  ASD1223     0.0010
     19  C9        19.9590   40.3860   -2.6080 C.3   1223  ASD1223     0.0035
     20  O1        17.4000   36.6720    0.6040 O.2   1223  ASD1223    -0.2914
     21  O2        22.7360   43.2710   -5.9470 O.2   1223  ASD1223    -0.2961
@<TRIPOS>BOND
     1    21     9    2
     2     4     5    1
     3     4     3    1
     4     9     5    1
     5     9     8    1
     6     5    10    1
     7     5     6    1
     8     3    19    1
     9     8     7    1
    10     6     7    1
    11     6    18    1
    12    19    18    1
    13    19     2    1
    14     1     2    1
    15     1    12    1
    16    18    17    1
    17     2    11    1
    18     2    15    1
    19    12    13    1
    20    17    16    1
    21    15    14    2
    22    15    16    1
    23    13    14    1
    24    13    20    2
