@<TRIPOS>MOLECULE
3iw2_EKO_A_1.pdb
 24 26 0 0 0
SMALL
GASTEIGER

@<TRIPOS>ATOM
      1  O         21.7130   41.0400   -2.8510 O.3   665  EKO665     -0.3467
      2 CL1        18.6390   42.6540   -0.7170 Cl    665  EKO665     -0.0825
      3 CL2        20.6680   40.7300    3.9220 Cl    665  EKO665     -0.0822
      4 CL3        19.9960   45.8580   -6.9340 Cl    665  EKO665     -0.0822
      5  CB        20.8100   40.2630   -2.0190 C.3   665  EKO665      0.1446
      6  CG        20.6230   40.5960   -0.5510 C.ar  665  EKO665      0.0156
      7  CZ        20.6210   40.7150    2.1900 C.ar  665  EKO665      0.0585
      8  CB2       22.2450   42.3160   -2.5730 C.3   665  EKO665      0.1689
      9  CB3       19.4650   39.9230   -2.7060 C.3   665  EKO665      0.0811
     10  CD1       19.7460   41.5070    0.0890 C.ar  665  EKO665      0.0568
     11  ND1       20.4870   39.0620   -4.9750 N.2   665  EKO665     -0.2470
     12  CD2       21.4210   39.7680    0.2140 C.ar  665  EKO665     -0.0002
     13  CD3       21.6850   42.7040   -5.0300 C.ar  665  EKO665     -0.0010
     14  CD4       21.1970   44.3990   -3.4000 C.ar  665  EKO665     -0.0010
     15  CD5       18.8560   40.6020   -4.9420 C.2   665  EKO665      0.1098
     16  CE1       19.7720   41.5630    1.4790 C.ar  665  EKO665      0.0225
     17  CE2       21.4430   39.8020    1.5790 C.ar  665  EKO665      0.0112
     18  NE2       19.1860   40.3780   -6.2470 N.2   665  EKO665     -0.2415
     19  CE3       21.1760   43.4860   -6.0600 C.ar  665  EKO665      0.0111
     20  CE4       20.6970   45.2000   -4.4110 C.ar  665  EKO665      0.0111
     21  CE5       20.1740   39.4220   -6.2700 C.3   665  EKO665      0.2505
     22  CG2       21.7040   43.1600   -3.7030 C.ar  665  EKO665      0.0073
     23  CG4       19.6560   39.7950   -4.1930 C.2   665  EKO665      0.0774
     24  CZ2       20.6750   44.7390   -5.7240 C.ar  665  EKO665      0.0577
@<TRIPOS>BOND
     1     4    24    1
     2    21    18    1
     3    21    11    1
     4    18    15    2
     5    19    24   ar
     6    19    13   ar
     7    24    20   ar
     8    13    22   ar
     9    11    23    2
    10    15    23    1
    11    20    14   ar
    12    23     9    1
    13    22    14   ar
    14    22     8    1
    15     1     8    1
    16     1     5    1
    17     9     5    1
    18     5     6    1
    19     2    10    1
    20     6    10   ar
    21     6    12   ar
    22    10    16   ar
    23    12    17   ar
    24    16     7   ar
    25    17     7   ar
    26     7     3    1
