@<TRIPOS>MOLECULE
3iw2_HEM_A_1.pdb
 43 50 0 0 0
SMALL
GASTEIGER

@<TRIPOS>ATOM
      1  CHA       23.1810   39.7440   12.1120 C.2   434  HEM434      0.0000
      2  CHB       19.3280   37.3740   13.9080 C.2   434  HEM434      0.0000
      3  CHC       16.9300   41.5350   14.3140 C.2   434  HEM434      0.0000
      4  CHD       20.4070   43.7410   11.8120 C.2   434  HEM434      0.0000
      5  C1A       22.3860   38.7640   12.6490 C.2   434  HEM434      0.0000
      6  C2A       22.7780   37.4050   12.8990 C.2   434  HEM434      0.0000
      7  C3A       21.7330   36.7270   13.3940 C.2   434  HEM434      0.0000
      8  C4A       20.6140   37.6490   13.4550 C.2   434  HEM434      0.0000
      9  CMA       21.6880   35.2080   13.8000 C.3   434  HEM434      0.0000
     10  CAA       24.2210   36.8610   12.7180 C.3   434  HEM434      0.0000
     11  CBA       24.8450   37.0250   11.3550 C.3   434  HEM434      0.0000
     12  CGA       25.9380   35.9860   11.2100 C.2   434  HEM434      0.0000
     13  O1A       26.5000   35.6680   12.3210 O.co2 434  HEM434      0.0000
     14  O2A       26.1740   35.5160   10.0070 O.co2 434  HEM434      0.0000
     15  C1B       18.3250   38.2980   14.2190 C.ar  434  HEM434      0.0000
     16  C2B       17.0890   38.0130   14.8900 C.ar  434  HEM434      0.0000
     17  C3B       16.4320   39.1790   15.0080 C.ar  434  HEM434      0.0000
     18  C4B       17.2290   40.2050   14.3820 C.ar  434  HEM434      0.0000
     19  CMB       16.6870   36.5870   15.3510 C.3   434  HEM434      0.0000
     20  CAB       15.0380   39.5000   15.6070 C.2   434  HEM434      0.0000
     21  CBB       14.5210   38.9360   16.7040 C.2   434  HEM434      0.0000
     22  C1C       17.6350   42.4940   13.6790 C.2   434  HEM434      0.0000
     23  C2C       17.2330   43.8700   13.4950 C.2   434  HEM434      0.0000
     24  C3C       18.2120   44.4840   12.7710 C.2   434  HEM434      0.0000
     25  C4C       19.2600   43.5310   12.5230 C.2   434  HEM434      0.0000
     26  CMC       15.9110   44.4480   14.0640 C.3   434  HEM434      0.0000
     27  CAC       18.2980   45.9510   12.3100 C.2   434  HEM434      0.0000
     28  CBC       17.1810   46.6490   12.0270 C.2   434  HEM434      0.0000
     29  C1D       21.4480   42.8720   11.6220 C.ar  434  HEM434      0.0000
     30  C2D       22.6570   43.1820   10.8870 C.ar  434  HEM434      0.0000
     31  C3D       23.5200   41.9240   11.0010 C.ar  434  HEM434      0.0000
     32  C4D       22.7410   40.9830   11.7530 C.ar  434  HEM434      0.0000
     33  CMD       23.0340   44.4870   10.1790 C.3   434  HEM434      0.0000
     34  CAD       24.9260   41.6920   10.3920 C.3   434  HEM434      0.0000
     35  CBD       25.9870   42.2100   11.3420 C.3   434  HEM434      0.0000
     36  CGD       27.3100   42.0090   10.7100 C.2   434  HEM434      0.0000
     37  O1D       27.3790   41.2000    9.7520 O.co2 434  HEM434      0.0000
     38  O2D       28.2700   42.6460   11.2140 O.co2 434  HEM434      0.0000
     39  NA        21.0570   38.8970   13.0020 N.2   434  HEM434      0.0000
     40  NB        18.3740   39.6540   13.9440 N.ar  434  HEM434      0.0000
     41  NC        18.8850   42.3230   13.0890 N.2   434  HEM434      0.0000
     42  ND        21.5280   41.5710   12.0980 N.ar  434  HEM434      0.0000
     43 FE         20.0400   40.6660   13.1490 Fe    434  HEM434      0.0000
@<TRIPOS>BOND
     1    37    36   ar
     2    14    12   ar
     3    33    30    1
     4    34    31    1
     5    34    35    1
     6    36    38   ar
     7    36    35    1
     8    30    31   ar
     9    30    29   ar
    10    31    32   ar
    11    12    11    1
    12    12    13   ar
    13    11    10    1
    14    29     4    2
    15    29    42   ar
    16    32    42   ar
    17    32     1    2
    18     4    25    1
    19    28    27    2
    20    42    43    1
    21     1     5    1
    22    27    24    1
    23    25    24    1
    24    25    41    2
    25     5     6    1
    26     5    39    2
    27    10     6    1
    28    24    23    2
    29     6     7    2
    30    39    43    1
    31    39     8    1
    32    41    43    1
    33    41    22    1
    34    43    40    1
    35     7     8    1
    36     7     9    1
    37     8     2    2
    38    23    22    1
    39    23    26    1
    40    22     3    2
    41     2    15    1
    42    40    15   ar
    43    40    18   ar
    44    15    16   ar
    45     3    18    1
    46    18    17   ar
    47    16    17   ar
    48    16    19    1
    49    17    20    1
    50    20    21    2
