@<TRIPOS>MOLECULE
3iw5_DF3_A_1.pdb
 39 43 0 0 0
SMALL
GASTEIGER

@<TRIPOS>ATOM
      1  OAA       20.8150    1.4000  -26.2370 O.2   362  DF3362     -0.2720
      2  OAB       22.1330    1.0210  -21.4740 O.2   362  DF3362     -0.2684
      3  FAC       23.4750   -5.4220  -19.2310 F     362  DF3362     -0.1659
      4  FAD       21.5500   -4.9010  -19.5740 F     362  DF3362     -0.1659
      5  FAE       22.5890   -5.7520  -21.1930 F     362  DF3362     -0.1659
      6  CAF       24.8490   -2.2670  -21.7950 C.ar  362  DF3362      0.0001
      7  CAG       17.6210    3.6120  -23.5460 C.ar  362  DF3362      0.0001
      8  CAH       17.5310    3.9380  -22.2000 C.ar  362  DF3362      0.0015
      9  CAI       24.1230   -1.1000  -21.5750 C.ar  362  DF3362      0.0046
     10  CAJ       24.3720   -3.4870  -21.3180 C.ar  362  DF3362      0.0039
     11  CAK       21.5510    3.5770  -25.6190 C.ar  362  DF3362      0.0199
     12  CAL       21.5060    4.9330  -25.9020 C.ar  362  DF3362      0.0414
     13  CAM       18.0820    2.3610  -23.9220 C.ar  362  DF3362      0.0020
     14  CAN       17.9150    2.9920  -21.2390 C.ar  362  DF3362      0.0172
     15  CAO       21.2130    3.9740  -23.2920 C.ar  362  DF3362      0.0566
     16  CAP       22.4190   -2.4090  -20.4160 C.ar  362  DF3362      0.0084
     17  CAQ       19.1620   -0.3030  -21.7960 C.ar  362  DF3362      0.0822
     18  CAR       20.3610    1.1070  -19.1520 C.3   362  DF3362      0.1399
     19  CAS       21.2560    7.9500  -24.0630 C.3   362  DF3362      0.2526
     20  CAT       20.3210    7.3190  -23.0580 C.3   362  DF3362      0.2526
     21  CAU       18.9620    0.5460  -19.5180 C.3   362  DF3362      0.1295
     22  CAV       21.0290   -0.4230  -24.7800 C.3   362  DF3362      0.1491
     23  NAW       21.2900    0.0500  -19.5530 N.am  362  DF3362     -0.1996
     24  NAX       21.4440    1.8210  -24.1220 N.am  362  DF3362     -0.1784
     25  OAY       21.2750    7.1180  -25.2140 O.3   362  DF3362     -0.4684
     26  OAZ       20.9860    6.1600  -22.5520 O.3   362  DF3362     -0.4683
     27  SBA       19.3000   -0.8610  -24.4400 S.3   362  DF3362     -0.1023
     28  CBB       21.0910    1.0320  -25.1120 C.2   362  DF3362      0.2569
     29  CBC       22.0860    0.0990  -20.6560 C.2   362  DF3362      0.2648
     30  CBD       21.4440    3.0980  -24.3310 C.ar  362  DF3362      0.0766
     31  CBE       22.9180   -1.1670  -20.8750 C.ar  362  DF3362      0.0550
     32  CBF       23.1600   -3.5620  -20.6320 C.ar  362  DF3362      0.0716
     33  CBG       21.3170    5.8090  -24.8760 C.ar  362  DF3362      0.1725
     34  CBH       21.1650    5.3240  -23.5800 C.ar  362  DF3362      0.1737
     35  CBI       18.9550    0.1300  -23.0230 C.ar  362  DF3362      0.0443
     36  CBJ       18.4680    1.4270  -22.9730 C.ar  362  DF3362      0.0229
     37  CBK       18.3940    1.7400  -21.6330 C.ar  362  DF3362      0.0605
     38  NBL       18.8290    0.6700  -20.9730 N.ar  362  DF3362     -0.3238
     39  CBM       22.6930   -4.9350  -20.1490 C.3   362  DF3362      0.4186
@<TRIPOS>BOND
     1     1    28    2
     2    12    11   ar
     3    12    33   ar
     4    11    30   ar
     5    25    33    1
     6    25    19    1
     7    28    22    1
     8    28    24   am
     9    33    34   ar
    10    22    27    1
    11    27    35    1
    12    30    24    1
    13    30    15   ar
    14    19    20    1
    15    13     7   ar
    16    13    36   ar
    17    34    15   ar
    18    34    26    1
    19     7     8   ar
    20    20    26    1
    21    35    36   ar
    22    35    17   ar
    23    36    37   ar
    24     8    14   ar
    25    17    38   ar
    26     6     9   ar
    27     6    10   ar
    28    37    14   ar
    29    37    38   ar
    30     9    31   ar
    31     2    29    2
    32    10    32   ar
    33     5    39    1
    34    38    21    1
    35    31    29    1
    36    31    16   ar
    37    29    23   am
    38    32    16   ar
    39    32    39    1
    40    39     4    1
    41    39     3    1
    42    23    18    1
    43    21    18    1
