@<TRIPOS>MOLECULE
3iw6_PP0_A_1.pdb
 29 31 0 0 0
SMALL
GASTEIGER

@<TRIPOS>ATOM
      1  CAA      -27.3760    0.2050    6.2160 C.3   361  PP0361      0.0513
      2  CAB      -24.6350   -3.5520    5.0890 C.3   361  PP0361      0.0265
      3  CAC      -20.5200    0.5160    5.4200 C.3   361  PP0361      0.0329
      4  CAD      -21.4380   -4.2950    6.9290 C.3   361  PP0361      0.0502
      5  OAE      -23.5060    0.9790    4.9150 O.2   361  PP0361     -0.2433
      6  OAF      -18.6560   -2.3790    7.4650 O.2   361  PP0361     -0.2699
      7  CAG      -12.5870   -6.0680    2.3600 C.ar  361  PP0361     -0.0000
      8  CAH      -13.6040   -6.8870    2.8680 C.ar  361  PP0361     -0.0003
      9  CAI      -12.9130   -4.7890    1.8950 C.ar  361  PP0361     -0.0003
     10  CAJ      -14.9240   -6.4280    2.9100 C.ar  361  PP0361     -0.0029
     11  CAK      -14.2390   -4.3260    1.9250 C.ar  361  PP0361     -0.0029
     12  CAL      -26.1300    0.4040    5.3190 C.3   361  PP0361      0.2089
     13  CAM      -24.0790   -2.9870    6.4260 C.3   361  PP0361      0.1060
     14  CAN      -18.3530   -3.1080    2.9830 C.3   361  PP0361      0.0942
     15  CAO      -16.5360   -3.6280    4.5980 C.3   361  PP0361      0.0942
     16  CAP      -18.7910   -1.9620    3.8940 C.3   361  PP0361      0.1111
     17  CAQ      -16.8560   -2.4260    5.4380 C.3   361  PP0361      0.1111
     18  CAR      -16.7110   -4.6870    2.4710 C.3   361  PP0361      0.0992
     19  OAS      -25.0430   -0.4830    5.7380 O.3   361  PP0361     -0.4444
     20  CAT      -23.7510   -0.0900    5.4800 C.2   361  PP0361      0.3570
     21  CAU      -19.1130   -2.1750    6.3470 C.2   361  PP0361      0.2499
     22  CAV      -15.2380   -5.1530    2.4410 C.ar  361  PP0361     -0.0061
     23  CAW      -21.2360   -0.7740    5.8190 C.ar  361  PP0361      0.0058
     24  CAX      -21.6140   -2.8590    6.4690 C.ar  361  PP0361      0.0416
     25  CAY      -20.6110   -1.9380    6.2110 C.ar  361  PP0361      0.0629
     26  CAZ      -22.6080   -1.0350    5.8570 C.ar  361  PP0361      0.1324
     27  NBA      -16.9090   -3.4180    3.1820 N.3   361  PP0361     -0.2660
     28  NBB      -18.3010   -2.1800    5.2700 N.am  361  PP0361     -0.2732
     29  NBC      -22.7880   -2.3010    6.2440 N.ar  361  PP0361     -0.3257
@<TRIPOS>BOND
     1     9    11   ar
     2     9     7   ar
     3    11    22   ar
     4     7     8   ar
     5    22    18    1
     6    22    10   ar
     7    18    27    1
     8     8    10   ar
     9    14    27    1
    10    14    16    1
    11    27    15    1
    12    16    28    1
    13    15    17    1
    14     5    20    2
    15     2    13    1
    16    28    17    1
    17    28    21   am
    18    12    19    1
    19    12     1    1
    20     3    23    1
    21    20    19    1
    22    20    26    1
    23    23    26   ar
    24    23    25   ar
    25    26    29   ar
    26    25    21    1
    27    25    24   ar
    28    29    13    1
    29    29    24   ar
    30    21     6    2
    31    24     4    1
