@<TRIPOS>MOLECULE
3iw7_IPK_A_1.pdb
 23 25 0 0 0
SMALL
GASTEIGER

@<TRIPOS>ATOM
      1  OAA       19.8470    1.2650  -26.2270 O.2   361  IPK361     -0.2699
      2  CAB       23.3840   -4.6850  -20.9720 C.ar  361  IPK361     -0.0000
      3  CAC       22.1240   -4.3700  -20.4590 C.ar  361  IPK361     -0.0003
      4  CAD       24.2050   -3.6660  -21.4750 C.ar  361  IPK361     -0.0003
      5  CAF       21.6830   -3.0510  -20.4620 C.ar  361  IPK361     -0.0043
      6  CAG       23.7710   -2.3460  -21.4700 C.ar  361  IPK361     -0.0043
      7  CAH       17.8320    4.9830  -24.2070 C.ar  361  IPK361     -0.0032
      8  CAI       20.0070    5.5530  -25.1100 C.ar  361  IPK361     -0.0032
      9  CAJ       18.1050    3.6350  -24.3930 C.ar  361  IPK361      0.0042
     10  CAK       20.2770    4.1990  -25.2910 C.ar  361  IPK361      0.0042
     11  CAN       20.0890    0.7430  -21.6040 C.3   361  IPK361      0.0219
     12  CAO       20.8150   -1.1210  -23.1750 C.3   361  IPK361      0.0219
     13  CAP       19.3160    1.4610  -22.6970 C.3   361  IPK361      0.0937
     14  CAQ       19.8710   -0.5590  -24.2570 C.3   361  IPK361      0.0937
     15  CAR       18.4240    7.4490  -24.3450 C.3   361  IPK361      0.0949
     16  CAS       22.0490   -0.5890  -20.9540 C.3   361  IPK361      0.0265
     17  SAW       19.6980    8.3340  -23.3400 S.3   361  IPK361     -0.0770
     18  CAX       19.6120    1.7240  -25.1160 C.2   361  IPK361      0.2490
     19  CAY       18.7740    5.9520  -24.5610 C.ar  361  IPK361     -0.0105
     20  CAZ       22.5090   -2.0460  -20.9820 C.ar  361  IPK361     -0.0222
     21  CBA       19.3290    3.2360  -24.9290 C.ar  361  IPK361      0.0536
     22  CBE       21.2760   -0.0550  -22.1640 C.3   361  IPK361      0.0078
     23  NBF       19.5980    0.8970  -24.0650 N.am  361  IPK361     -0.2761
@<TRIPOS>BOND
     1     1    18    2
     2    10     8   ar
     3    10    21   ar
     4    18    21    1
     5    18    23   am
     6     8    19   ar
     7    21     9   ar
     8    19    15    1
     9    19     7   ar
    10     9     7   ar
    11    15    17    1
    12    14    23    1
    13    14    12    1
    14    23    13    1
    15    12    22    1
    16    13    11    1
    17    22    11    1
    18    22    16    1
    19     4     6   ar
    20     4     2   ar
    21     6    20   ar
    22    20    16    1
    23    20     5   ar
    24     2     3   ar
    25     5     3   ar
