@<TRIPOS>MOLECULE
3iw8_HIZ_A_1.pdb
 28 30 0 0 0
SMALL
GASTEIGER

@<TRIPOS>ATOM
      1  NAA       22.0300   -0.7590   16.8520 N.3   361  HIZ361     -0.1230
      2  OAB       17.9090    4.5110   18.2350 O.2   361  HIZ361     -0.2484
      3  FAC       13.8760    9.0330   17.0480 F     361  HIZ361     -0.2033
      4 CLAD       14.4380    7.9180   19.6240 Cl    361  HIZ361     -0.0799
      5  CAE       24.3520    5.0380   20.9760 C.ar  361  HIZ361     -0.0000
      6  CAF       23.2420    4.4810   20.3390 C.ar  361  HIZ361     -0.0002
      7  CAG       25.3390    4.2150   21.5340 C.ar  361  HIZ361     -0.0002
      8  CAH       23.1410    3.0930   20.2750 C.ar  361  HIZ361     -0.0019
      9  CAI       25.2350    2.8270   21.4690 C.ar  361  HIZ361     -0.0019
     10  CAJ       15.8710    8.2480   15.9420 C.ar  361  HIZ361      0.0318
     11  CAK       17.0830    7.5540   15.9980 C.ar  361  HIZ361      0.0190
     12  CAL       20.1770    0.8540   18.8770 C.3   361  HIZ361      0.1217
     13  CAM       16.6940    7.0580   18.3210 C.ar  361  HIZ361      0.0303
     14  CAN       24.0120    0.8870   20.7560 C.3   361  HIZ361      0.1687
     15  CAO       22.8620   -0.5140   19.1600 C.3   361  HIZ361      0.1684
     16  NAP       21.2720    2.4400   17.6000 N.2   361  HIZ361     -0.3852
     17  NAQ       18.6810    6.2850   17.1230 N.am  361  HIZ361     -0.1606
     18  NAR       20.0070    4.4360   17.4830 N.am  361  HIZ361     -0.1249
     19  OAS       22.7520    0.2640   20.4010 O.3   361  HIZ361     -0.3470
     20  SAT       19.1580    2.2100   18.9000 S.3   361  HIZ361     -0.0579
     21  CAU       18.8250    5.0530   17.6250 C.2   361  HIZ361      0.3503
     22  CAV       24.1270    2.2690   20.8320 C.ar  361  HIZ361      0.0073
     23  CAW       15.0620    8.3580   17.0730 C.ar  361  HIZ361      0.1507
     24  CAX       17.5160    6.9620   17.1870 C.ar  361  HIZ361      0.0760
     25  CAY       15.4800    7.7590   18.2550 C.ar  361  HIZ361      0.0863
     26  CAZ       21.2540    1.1910   18.1260 C.2   361  HIZ361      0.1201
     27  CBA       20.2130    3.1870   17.9380 C.2   361  HIZ361      0.2339
     28  CBB       22.4240    0.2180   17.8700 C.3   361  HIZ361      0.1698
@<TRIPOS>BOND
     1    10    11   ar
     2    10    23   ar
     3    11    24   ar
     4     1    28    1
     5     3    23    1
     6    23    25   ar
     7    17    24    1
     8    17    21   am
     9    24    13   ar
    10    18    21   am
    11    18    27    1
    12    16    27    2
    13    16    26    2
    14    21     2    2
    15    28    26    1
    16    28    15    1
    17    27    20    1
    18    26    12    1
    19    25    13   ar
    20    25     4    1
    21    12    20    1
    22    15    19    1
    23     8     6   ar
    24     8    22   ar
    25     6     5   ar
    26    19    14    1
    27    14    22    1
    28    22     9   ar
    29     5     7   ar
    30     9     7   ar
