@<TRIPOS>MOLECULE
3iwc_SMM_A_1.pdb
 28 30 0 0 0
SMALL
GASTEIGER

@<TRIPOS>ATOM
      1  N        102.3720   16.2890  -30.5900 N.3   368  SMM368     -0.1209
      2  CA       102.8540   17.1180  -29.5000 C.3   368  SMM368      0.1909
      3  CB       103.0910   16.2540  -28.2940 C.3   368  SMM368      0.0413
      4  CG       102.5880   16.9860  -27.0340 C.3   368  SMM368      0.0503
      5  SD       103.0320   16.1640  -25.6530 S.3   368  SMM368     -0.1761
      6  CE       101.9670   15.1350  -25.3930 C.3   368  SMM368      0.0590
      7  C5'      103.1250   17.2550  -24.3560 C.3   368  SMM368      0.0806
      8  C4'      103.5480   16.6020  -23.0410 C.3   368  SMM368      0.1622
      9  O4'      104.7480   15.8200  -23.3040 O.3   368  SMM368     -0.3153
     10  C1'      105.8070   16.2700  -22.4790 C.3   368  SMM368      0.3185
     11  N9       107.0470   16.1250  -23.2310 N.pl3 368  SMM368     -0.1439
     12  C4       107.2820   16.5800  -24.5090 C.2   368  SMM368      0.3518
     13  N3       106.4080   17.2600  -25.3250 N.2   368  SMM368     -0.0055
     14  C2       106.9630   17.5530  -26.5170 C.3   368  SMM368      0.5254
     15  N1       108.2140   17.2500  -26.9460 N.2   368  SMM368      0.0021
     16  C6       109.0660   16.5650  -26.1000 C.2   368  SMM368      0.4393
     17  N6       110.2950   16.2720  -26.5410 N.pl3 368  SMM368      0.2180
     18  C5       108.5910   16.2010  -24.8040 C.2   368  SMM368      0.2526
     19  N7       109.1650   15.5310  -23.7350 N.2   368  SMM368     -0.2095
     20  C8       108.2090   15.5130  -22.8320 C.3   368  SMM368      0.3377
     21  C2'      105.4470   17.7070  -22.1030 C.3   368  SMM368      0.2569
     22  O2'      106.1720   18.1450  -20.9640 O.3   368  SMM368     -0.2130
     23  C3'      103.9360   17.5940  -21.9410 C.3   368  SMM368      0.2168
     24  O3'      103.6120   17.0250  -20.6640 O.3   368  SMM368     -0.2175
     25  C        104.1970   17.9050  -29.9250 C.2   368  SMM368      0.3347
     26  O        105.1380   18.0600  -29.0710 O.2   368  SMM368     -0.2485
     27  OXT      104.2170   18.4100  -31.1300 O.3   368  SMM368     -0.4434
     28  CXT      105.3730   18.6050  -31.7580 C.3   368  SMM368      0.2556
@<TRIPOS>BOND
     1    28    27    1
     2    27    25    1
     3     1     2    1
     4    25     2    1
     5    25    26    2
     6     2     3    1
     7     3     4    1
     8     4     5    1
     9    15    14    1
    10    15    16    2
    11    17    16    1
    12    14    13    1
    13    16    18    1
    14     5     6    1
    15     5     7    1
    16    13    12    2
    17    18    12    1
    18    18    19    2
    19    12    11    1
    20     7     8    1
    21    19    20    1
    22     9     8    1
    23     9    10    1
    24    11    20    1
    25    11    10    1
    26     8    23    1
    27    10    21    1
    28    21    23    1
    29    21    22    1
    30    23    24    1
