@<TRIPOS>MOLECULE
3iwd_M2T_A_1.pdb
 21 23 0 0 0
SMALL
GASTEIGER

@<TRIPOS>ATOM
      1  CG        52.9160   -9.9840   41.5670 C.3   368  M2T368      0.0590
      2  SD        53.6200  -10.7520   42.8730 S.3   368  M2T368     -0.1753
      3  CE        52.9250  -12.0620   43.0950 C.3   368  M2T368      0.0590
      4  C5'       53.4780   -9.7770   44.2400 C.3   368  M2T368      0.0806
      5  C4'       54.1050  -10.4010   45.4690 C.3   368  M2T368      0.1622
      6  O4'       55.4210  -10.9160   45.1070 O.3   368  M2T368     -0.3153
      7  C1'       56.4050  -10.2860   45.9090 C.3   368  M2T368      0.3185
      8  N9        57.6130  -10.1290   45.1060 N.pl3 368  M2T368     -0.1439
      9  C4        57.6660   -9.6480   43.8230 C.2   368  M2T368      0.3518
     10  N3        56.6270   -9.2310   43.0600 N.2   368  M2T368     -0.0055
     11  C2        57.0470   -8.8270   41.8620 C.3   368  M2T368      0.5254
     12  N1        58.3000   -8.7960   41.3780 N.2   368  M2T368      0.0021
     13  C6        59.3210   -9.2200   42.1680 C.2   368  M2T368      0.4393
     14  N6        60.5660   -9.1860   41.6780 N.pl3 368  M2T368      0.2180
     15  C5        59.0040   -9.6740   43.4660 C.2   368  M2T368      0.2526
     16  N7        59.7830  -10.1640   44.5060 N.2   368  M2T368     -0.2095
     17  C8        58.9110  -10.4180   45.4540 C.3   368  M2T368      0.3377
     18  C2'       55.7740   -8.9690   46.3390 C.3   368  M2T368      0.2569
     19  O2'       56.4430   -8.3950   47.4440 O.3   368  M2T368     -0.2130
     20  C3'       54.3500   -9.4010   46.6020 C.3   368  M2T368      0.2168
     21  O3'       54.2840  -10.0650   47.8620 O.3   368  M2T368     -0.2175
@<TRIPOS>BOND
     1    12    11    1
     2    12    13    2
     3     1     2    1
     4    14    13    1
     5    11    10    1
     6    13    15    1
     7     2     3    1
     8     2     4    1
     9    10     9    2
    10    15     9    1
    11    15    16    2
    12     9     8    1
    13     4     5    1
    14    16    17    1
    15     8    17    1
    16     8     7    1
    17     6     5    1
    18     6     7    1
    19     5    20    1
    20     7    18    1
    21    18    20    1
    22    18    19    1
    23    20    21    1
