@<TRIPOS>MOLECULE
3iwe_646_A_1.pdb
 32 35 0 0 0
SMALL
GASTEIGER

@<TRIPOS>ATOM
      1  CAA       -5.9120   24.4210   -0.1810 C.3   1002  6461002     0.0554
      2  CAB      -10.6230   22.3730   -0.3910 C.3   1002  6461002     0.0532
      3  CAC      -10.5120   25.1210   -1.7030 C.3   1002  6461002     0.1534
      4  OAD       -6.9670   19.4050    0.8210 O.2   1002  6461002    -0.1482
      5  OAE       -5.9230   20.7780   -0.8580 O.2   1002  6461002    -0.1482
      6 CLF        -9.6910   18.8190    0.7610 Cl    1002  6461002    -0.0808
      7 CLG        -7.0880   21.4800   -3.2060 Cl    1002  6461002    -0.0808
      8  CAH      -14.0430   18.9740   -4.2390 C.ar  1002  6461002     0.1003
      9  CAI      -12.9340   19.0910   -3.4050 C.ar  1002  6461002     0.0208
     10  CAJ      -10.6470   19.1210   -1.7450 C.ar  1002  6461002     0.0128
     11  CAK       -9.4960   20.3000   -3.4900 C.ar  1002  6461002     0.0128
     12  CAL      -11.5920   19.5780   -5.3190 C.ar  1002  6461002     0.0343
     13  CAM      -11.3520   19.7680   -9.5910 C.3   1002  6461002     0.1102
     14  CAN      -13.8530   20.0670   -9.6480 C.3   1002  6461002     0.1102
     15  CAO      -11.4770   20.2650   -8.1460 C.3   1002  6461002     0.1110
     16  CAP      -13.7980   19.2000   -8.3800 C.3   1002  6461002     0.1110
     17  NAQ      -13.9240   19.1560   -5.5460 N.ar  1002  6461002    -0.2292
     18  NAR       -8.2240   24.9590   -1.0350 N.ar  1002  6461002    -0.1725
     19  NAS      -12.5620   20.0860  -10.3810 N.3   1002  6461002    -0.2144
     20  NAT       -7.6380   21.8850    0.6100 N.pl3 1002  6461002    -0.0941
     21  CAU       -7.3920   24.1200   -0.4120 C.ar  1002  6461002     0.0967
     22  CAV       -9.3800   23.2510   -0.5010 C.ar  1002  6461002     0.0738
     23  CAW       -9.5920   19.3930   -0.8710 C.ar  1002  6461002     0.0774
     24  CAX       -8.4400   20.5760   -2.6230 C.ar  1002  6461002     0.0774
     25  CAY      -11.6750   19.3540   -3.9440 C.ar  1002  6461002     0.0044
     26  CAZ      -10.5960   19.5470   -3.0750 C.ar  1002  6461002     0.0019
     27  CBA      -12.7370   19.4500   -6.1150 C.ar  1002  6461002     0.1318
     28  CBB       -8.0960   22.9770   -0.0430 C.ar  1002  6461002     0.1192
     29  CBC       -8.4730   20.1150   -1.3070 C.ar  1002  6461002     0.1480
     30  NBD      -12.6690   19.6340   -7.5150 N.pl3 1002  6461002    -0.2903
     31  NBE       -9.3500   24.4530   -1.0810 N.ar  1002  6461002    -0.2518
     32  SBF       -7.1600   20.5120   -0.1760 S.O2  1002  6461002     0.0945
@<TRIPOS>BOND
     1    19    14    1
     2    19    13    1
     3    14    16    1
     4    13    15    1
     5    16    30    1
     6    15    30    1
     7    30    27    1
     8    27    17   ar
     9    27    12   ar
    10    17     8   ar
    11    12    25   ar
    12     8     9   ar
    13    25     9   ar
    14    25    26    1
    15    11    26   ar
    16    11    24   ar
    17     7    24    1
    18    26    10   ar
    19    24    29   ar
    20    10    23   ar
    21     3    31    1
    22    29    23   ar
    23    29    32    1
    24    31    18   ar
    25    31    22   ar
    26    18    21   ar
    27    23     6    1
    28     5    32    2
    29    22     2    1
    30    22    28   ar
    31    21     1    1
    32    21    28   ar
    33    32    20    1
    34    32     4    2
    35    28    20    1
