@<TRIPOS>MOLECULE
3iwj_NAD_A_1.pdb
 27 29 0 0 0
SMALL
GASTEIGER

@<TRIPOS>ATOM
      1  PA        -1.3590   11.8610   -8.3260 P.3   504  NAD504      0.2231
      2  O1A       -1.4730   13.3620   -8.4540 O.2   504  NAD504     -0.5169
      3  O2A       -0.7820   11.2800   -7.0570 O.3   504  NAD504     -0.4370
      4  O5B       -2.7880   11.2030   -8.6340 O.3   504  NAD504     -0.3111
      5  C5B       -3.1590    9.9200   -8.1220 C.3   504  NAD504      0.1813
      6  C4B       -4.6020    9.9870   -7.6410 C.3   504  NAD504      0.1821
      7  O4B       -4.6790   10.8920   -6.5360 O.3   504  NAD504     -0.3135
      8  C3B       -5.5250   10.5460   -8.7170 C.3   504  NAD504      0.2184
      9  O3B       -6.7450    9.8000   -8.7490 O.3   504  NAD504     -0.2174
     10  C2B       -5.7560   11.9800   -8.2730 C.3   504  NAD504      0.2570
     11  O2B       -6.9810   12.5130   -8.7670 O.3   504  NAD504     -0.2130
     12  C1B       -5.6890   11.8750   -6.7490 C.3   504  NAD504      0.3186
     13  N9A       -5.3840   13.1770   -6.0900 N.pl3 504  NAD504     -0.1439
     14  C8A       -4.6960   14.1980   -6.6350 C.3   504  NAD504      0.3377
     15  N7A       -4.6040   15.2640   -5.8000 N.2   504  NAD504     -0.2095
     16  C5A       -5.2590   14.9380   -4.6810 C.2   504  NAD504      0.2526
     17  C6A       -5.5440   15.6110   -3.3930 C.2   504  NAD504      0.4393
     18  N6A       -5.0960   16.8660   -3.1470 N.pl3 504  NAD504      0.2180
     19  N1A       -6.2670   14.9260   -2.4780 N.2   504  NAD504      0.0021
     20  C2A       -6.7030   13.6640   -2.7140 C.3   504  NAD504      0.5254
     21  N3A       -6.4810   12.9920   -3.8600 N.2   504  NAD504     -0.0055
     22  C4A       -5.7730   13.5610   -4.8710 C.2   504  NAD504      0.3518
     23  O3        -0.4330   11.2370   -9.4740 O.3   504  NAD504     -0.2261
     24  PN        -0.5020   11.7170  -11.0030 P.3   504  NAD504      0.5373
     25  O1N        0.9510   11.6590  -11.4370 O.3   504  NAD504     -0.1143
     26  O2N       -1.0760   13.1190  -10.9650 O.3   504  NAD504     -0.1143
     27  O5D       -1.3950   10.6440  -11.6010 O.2   504  NAD504     -0.2221
@<TRIPOS>BOND
     1    27    24    2
     2    25    24    1
     3    24    26    1
     4    24    23    1
     5    23     1    1
     6    11    10    1
     7     9     8    1
     8     8    10    1
     9     8     6    1
    10     4     1    1
    11     4     5    1
    12     2     1    2
    13     1     3    1
    14    10    12    1
    15     5     6    1
    16     6     7    1
    17    12     7    1
    18    12    13    1
    19    14    13    1
    20    14    15    1
    21    13    22    1
    22    15    16    2
    23    22    16    1
    24    22    21    2
    25    16    17    1
    26    21    20    1
    27    17    18    1
    28    17    19    2
    29    20    19    1
