@<TRIPOS>MOLECULE
3iwk_NAD_A_1.pdb
 44 48 0 0 0
SMALL
GASTEIGER

@<TRIPOS>ATOM
      1  PA        49.2360  -41.5900   75.7030 P.3   505  NAD505      0.2189
      2  O1A       50.6840  -41.8520   75.8950 O.3   505  NAD505     -0.4371
      3  O2A       48.6710  -41.5550   74.3350 O.2   505  NAD505     -0.5170
      4  O5B       48.8810  -40.1770   76.4150 O.3   505  NAD505     -0.3112
      5  C5B       49.1960  -39.9140   77.7940 C.3   505  NAD505      0.1813
      6  C4B       47.9930  -39.2660   78.5110 C.3   505  NAD505      0.1821
      7  O4B       47.0270  -38.7860   77.5190 O.3   505  NAD505     -0.3135
      8  C3B       47.2850  -40.3250   79.3660 C.3   505  NAD505      0.2184
      9  O3B       46.9140  -39.7610   80.6450 O.3   505  NAD505     -0.2174
     10  C2B       46.0760  -40.7140   78.4980 C.3   505  NAD505      0.2570
     11  O2B       44.9680  -41.1200   79.2990 O.3   505  NAD505     -0.2130
     12  C1B       45.7450  -39.4130   77.7660 C.3   505  NAD505      0.3186
     13  N9A       45.0260  -39.6230   76.4590 N.pl3 505  NAD505     -0.1439
     14  C8A       45.6080  -40.3450   75.3180 C.3   505  NAD505      0.3377
     15  N7A       44.5450  -40.2770   74.3080 N.2   505  NAD505     -0.2095
     16  C5A       43.5130  -39.5950   74.8120 C.2   505  NAD505      0.2526
     17  C6A       42.2800  -39.2660   74.2460 C.2   505  NAD505      0.4393
     18  N6A       42.0010  -39.6440   73.0010 N.pl3 505  NAD505      0.2180
     19  N1A       41.3180  -38.5350   74.9690 N.2   505  NAD505      0.0021
     20  C2A       41.5350  -38.0670   76.3640 C.3   505  NAD505      0.5254
     21  N3A       42.8700  -38.4580   76.8790 N.2   505  NAD505     -0.0055
     22  C4A       43.8060  -39.1950   76.1260 C.2   505  NAD505      0.3518
     23  O3        48.4170  -42.6490   76.5910 O.3   505  NAD505     -0.2703
     24  PN        48.4080  -44.2110   76.1730 P.3   505  NAD505      0.2189
     25  O1N       47.6230  -44.4850   74.9370 O.2   505  NAD505     -0.5170
     26  O2N       47.8140  -45.0180   77.4560 O.3   505  NAD505     -0.4371
     27  O5D       49.9840  -44.6740   76.0760 O.3   505  NAD505     -0.3112
     28  C5D       50.4340  -45.7250   75.1970 C.3   505  NAD505      0.1813
     29  C4D       49.7220  -47.0410   75.5350 C.3   505  NAD505      0.1799
     30  O4D       48.9850  -47.4910   74.3900 O.3   505  NAD505     -0.3327
     31  C3D       50.6620  -48.2110   75.8490 C.3   505  NAD505      0.2158
     32  O3D       50.7290  -48.3840   77.2670 O.3   505  NAD505     -0.2175
     33  C2D       49.9770  -49.4110   75.1760 C.3   505  NAD505      0.2309
     34  O2D       49.7840  -50.4930   76.0890 O.3   505  NAD505     -0.2158
     35  C1D       48.6210  -48.8220   74.7960 C.3   505  NAD505      0.2263
     36  N1N       47.9690  -49.5880   73.7080 N.pl3 505  NAD505     -0.2787
     37  C2N       47.1260  -50.6690   74.0250 C.3   505  NAD505      0.1244
     38  C3N       46.5080  -51.3880   73.0030 C.2   505  NAD505      0.0544
     39  C7N       45.5870  -52.5650   73.3330 C.2   505  NAD505      0.2818
     40  O7N       44.5190  -52.7290   72.7430 O.2   505  NAD505     -0.2670
     41  N7N       46.0330  -53.3640   74.2950 N.am  505  NAD505     -0.0839
     42  C4N       46.7300  -51.0330   71.6750 C.2   505  NAD505      0.0033
     43  C5N       47.5630  -49.9620   71.3570 C.2   505  NAD505      0.0157
     44  C6N       48.1820  -49.2340   72.3650 C.2   505  NAD505      0.0633
@<TRIPOS>BOND
     1    43    42    1
     2    43    44    2
     3    42    38    2
     4    44    36    1
     5    40    39    2
     6    18    17    1
     7    38    39    1
     8    38    37    1
     9    39    41   am
    10    36    37    1
    11    36    35    1
    12    17    16    1
    13    17    19    2
    14    15    16    2
    15    15    14    1
    16     3     1    2
    17    30    35    1
    18    30    29    1
    19    35    33    1
    20    16    22    1
    21    25    24    2
    22    19    20    1
    23    33    31    1
    24    33    34    1
    25    28    29    1
    26    28    27    1
    27    14    13    1
    28    29    31    1
    29     1     2    1
    30     1     4    1
    31     1    23    1
    32    31    32    1
    33    27    24    1
    34    22    13    1
    35    22    21    2
    36    24    23    1
    37    24    26    1
    38    20    21    1
    39     4     5    1
    40    13    12    1
    41     7    12    1
    42     7     6    1
    43    12    10    1
    44     5     6    1
    45    10    11    1
    46    10     8    1
    47     6     8    1
    48     8     9    1
