@<TRIPOS>MOLECULE
3iwl_TCE_A_1.pdb
 16 15 0 0 0
SMALL
GASTEIGER

@<TRIPOS>ATOM
      1  O16       32.8550    3.6670  -12.3260 O.co2  71  TCE71      -0.2456
      2  C14       31.6930    3.2970  -12.6170 C.2    71  TCE71       0.3652
      3  O15       31.2780    3.1930  -13.7940 O.co2  71  TCE71      -0.2456
      4  C5        30.7600    2.9610  -11.4820 C.3    71  TCE71       0.1187
      5  C2        29.9640    1.7020  -11.7890 C.3    71  TCE71       0.0333
      6  P         28.6830    1.5420  -10.4600 P.3    71  TCE71      -0.0779
      7  C3        28.9620    2.2600   -8.7660 C.3    71  TCE71       0.0333
      8  C6        28.0330    3.4520   -8.5470 C.3    71  TCE71       0.1187
      9  C8        27.6030    3.4580   -7.0890 C.2    71  TCE71       0.3652
     10  O10       26.6670    2.7050   -6.7020 O.co2  71  TCE71      -0.2456
     11  O9        28.2180    4.2170   -6.3100 O.co2  71  TCE71      -0.2456
     12  C1        27.0210    0.8130  -10.9010 C.3    71  TCE71       0.0333
     13  C4        25.9960    0.9680   -9.7830 C.3    71  TCE71       0.1187
     14  C11       24.5800    0.8380  -10.3090 C.2    71  TCE71       0.3652
     15  O12       23.6390    1.0940   -9.5250 O.co2  71  TCE71      -0.2456
     16  O13       24.3820    0.4930  -11.4960 O.co2  71  TCE71      -0.2456
@<TRIPOS>BOND
     1     3     2   ar
     2     2     1   ar
     3     2     4    1
     4     5     4    1
     5     5     6    1
     6    16    14   ar
     7    12     6    1
     8    12    13    1
     9     6     7    1
    10    14    13    1
    11    14    15   ar
    12     7     8    1
    13     8     9    1
    14     9    10   ar
    15     9    11   ar
