@<TRIPOS>MOLECULE
3iwm_3IH_A_1.pdb
 49 51 0 0 0
SMALL
GASTEIGER

@<TRIPOS>ATOM
      1  N1         2.8520    5.7800  -31.7600 N.ar  1001  3IH1001    -0.0726
      2  C1         3.4080    5.0150  -30.7960 C.ar  1001  3IH1001     0.1774
      3  C2         4.8190    4.9580  -31.0510 C.ar  1001  3IH1001     0.0627
      4  C3         5.1010    5.7010  -32.1520 C.ar  1001  3IH1001     0.1550
      5  O1         3.8840    6.2230  -32.6090 O.2   1001  3IH1001    -0.3576
      6  C4         2.7330    4.2420  -29.6440 C.2   1001  3IH1001     0.2862
      7  O2         3.3720    3.3690  -29.1730 O.2   1001  3IH1001    -0.2666
      8  N2         1.4110    4.4450  -29.0470 N.am  1001  3IH1001    -0.1926
      9  C5         1.1730    3.2800  -28.2110 C.3   1001  3IH1001     0.1732
     10  C6        -0.0680    3.3640  -27.3520 C.3   1001  3IH1001     0.0334
     11  C7         1.1570    2.0770  -29.1710 C.2   1001  3IH1001     0.2616
     12  O3         0.8950    2.3140  -30.3060 O.2   1001  3IH1001    -0.2715
     13  N3         1.9220    0.8490  -28.9350 N.am  1001  3IH1001    -0.1963
     14  C8         2.0830   -0.1000  -30.0390 C.3   1001  3IH1001     0.1727
     15  C9         3.2480    0.1400  -31.0020 C.3   1001  3IH1001     0.0290
     16  C10        3.2930   -0.8020  -32.2020 C.3   1001  3IH1001     0.0023
     17  C11        3.3980    1.5900  -31.4590 C.3   1001  3IH1001     0.0023
     18  C12        2.0620   -1.5660  -29.6300 C.2   1001  3IH1001     0.2616
     19  O4         2.7910   -2.2940  -30.2010 O.2   1001  3IH1001    -0.2715
     20  N4         0.9360   -2.0840  -28.8490 N.am  1001  3IH1001    -0.1963
     21  C13        0.6310   -3.4990  -28.9130 C.3   1001  3IH1001     0.1728
     22  C14       -0.7720   -3.6620  -29.4460 C.3   1001  3IH1001     0.0311
     23  C15       -1.8610   -3.8980  -28.4200 C.3   1001  3IH1001     0.0022
     24  C16       -2.8500   -2.7450  -28.2710 C.3   1001  3IH1001     0.0001
     25  C17       -2.5540   -5.2270  -28.6350 C.3   1001  3IH1001     0.0001
     26  C19        3.6280   -5.7220  -30.1990 C.3   1001  3IH1001     0.0970
     27  C20        2.8830   -6.6690  -31.1490 C.3   1001  3IH1001     0.0333
     28  C21        3.5370   -7.9490  -31.6870 C.3   1001  3IH1001     0.1113
     29  C22        2.5640   -9.0770  -32.0410 C.2   1001  3IH1001     0.3174
     30  O6         2.3430   -9.8820  -31.2010 O.2   1001  3IH1001    -0.2501
     31  O7         1.5800   -8.8270  -33.0260 O.3   1001  3IH1001    -0.4435
     32  C23        0.6440   -9.8090  -33.4080 C.3   1001  3IH1001     0.2350
     33  C24        0.4790  -10.0770  -34.9160 C.ar  1001  3IH1001     0.0213
     34  C25        4.8840   -6.3100  -29.5450 C.3   1001  3IH1001     0.0383
     35  C26        6.1770   -5.5530  -29.8160 C.3   1001  3IH1001     0.1100
     36  C27        7.0980   -5.3840  -30.9920 C.3   1001  3IH1001     0.0438
     37  C28        7.4550   -3.9060  -30.9950 C.3   1001  3IH1001     0.1387
     38  N6         7.4710   -3.5000  -29.6010 N.2   1001  3IH1001    -0.2063
     39  C29        6.6690   -4.4990  -28.7450 C.1   1001  3IH1001     0.1250
     40  O8         5.9810   -4.0840  -27.7450 O.2   1001  3IH1001    -0.2271
     41  C30       -0.1220   -9.1360  -35.7220 C.ar  1001  3IH1001    -0.0007
     42  C31       -0.2520   -9.3780  -37.1400 C.ar  1001  3IH1001    -0.0002
     43  C32        0.2380  -10.5860  -37.7030 C.ar  1001  3IH1001    -0.0000
     44  C33        0.8610  -11.5570  -36.8780 C.ar  1001  3IH1001    -0.0002
     45  C34        0.9920  -11.3250  -35.5030 C.ar  1001  3IH1001    -0.0007
     46  C35        6.4940    5.9170  -32.7610 C.3   1001  3IH1001     0.0754
     47  C18        1.6170   -4.2570  -29.8140 C.2   1001  3IH1001     0.2612
     48  O5         1.4650   -4.1780  -30.9760 O.2   1001  3IH1001    -0.2715
     49  N5         2.7310   -5.0470  -29.2420 N.am  1001  3IH1001    -0.2057
@<TRIPOS>BOND
     1    43    42   ar
     2    43    44   ar
     3    42    41   ar
     4    44    45   ar
     5    41    33   ar
     6    45    33   ar
     7    33    32    1
     8    32    31    1
     9    31    29    1
    10    46     4    1
    11     5     4   ar
    12     5     1   ar
    13    16    15    1
    14     4     3   ar
    15    29    28    1
    16    29    30    2
    17     1     2   ar
    18    28    27    1
    19    17    15    1
    20    27    26    1
    21     3     2   ar
    22    15    14    1
    23    37    36    1
    24    37    38    1
    25    36    35    1
    26    48    47    2
    27     2     6    1
    28    12    11    2
    29    19    18    2
    30    26    34    1
    31    26    49    1
    32    14    18    1
    33    14    13    1
    34    35    34    1
    35    35    39    1
    36    47    49   am
    37    47    21    1
    38     6     7    2
    39     6     8   am
    40    18    20   am
    41    38    39    2
    42    22    21    1
    43    22    23    1
    44    11    13   am
    45    11     9    1
    46     8     9    1
    47    21    20    1
    48    39    40    2
    49    25    23    1
    50    23    24    1
    51     9    10    1
