@<TRIPOS>MOLECULE
3iww_YZE_A_1.pdb
 29 29 0 0 0
SMALL
GASTEIGER

@<TRIPOS>ATOM
      1  C2        13.7880   47.1210   40.4710 C.3     1  YZE1        0.0001
      2  C4        14.9220   46.3540   40.3040 C.3     1  YZE1        0.0023
      3  C5        14.8830   44.8840   40.6840 C.3     1  YZE1        0.0333
      4  C6        16.2680   44.3150   41.0210 C.3     1  YZE1        0.1994
      5  C7        17.2720   44.4790   39.8440 C.2     1  YZE1        0.3843
      6  O8        17.1860   43.6790   38.8630 O.co2   1  YZE1       -0.2437
      7  O9        18.1870   45.3290   39.9880 O.co2   1  YZE1       -0.2437
      8  N10       16.9100   45.0310   42.0950 N.am    1  YZE1       -0.1774
      9  C11       18.0600   44.5840   42.5490 C.2     1  YZE1        0.3405
     10  N12       18.6020   45.3360   43.4890 N.am    1  YZE1       -0.1728
     11  C13       19.9210   45.0470   44.0430 C.3     1  YZE1        0.2210
     12  C14       20.9220   45.7120   43.0540 C.2     1  YZE1        0.0020
     13  C15       22.3670   45.1740   43.1190 C.2     1  YZE1       -0.0266
     14  C16       23.4210   45.9150   42.2060 C.3     1  YZE1        0.0492
     15  C17       23.5050   47.4540   42.3910 C.3     1  YZE1        0.1201
     16  N18       23.6640   47.8450   43.8190 N.am    1  YZE1       -0.2013
     17  C19       23.1740   49.0040   44.2920 C.2     1  YZE1        0.2648
     18  C20       23.2870   49.3190   45.8240 C.ar    1  YZE1        0.0551
     19  C21       22.7250   50.4980   46.4000 C.ar    1  YZE1        0.0050
     20  C22       22.8220   50.7700   47.8080 C.ar    1  YZE1        0.0059
     21  C23       23.4850   49.9060   48.7130 C.ar    1  YZE1        0.0301
     22  I24       23.6840   50.1910   50.9180 I       1  YZE1       -0.0425
     23  C25       24.0270   48.7550   48.0810 C.ar    1  YZE1        0.0059
     24  C26       23.9420   48.4470   46.6990 C.ar    1  YZE1        0.0050
     25  O27       22.5200   49.7510   43.5680 O.2     1  YZE1       -0.2684
     26  C28       20.0050   45.6770   45.4580 C.2     1  YZE1        0.3884
     27  O29       19.5440   46.8440   45.6470 O.co2   1  YZE1       -0.2434
     28  O30       20.4350   44.9300   46.3480 O.co2   1  YZE1       -0.2434
     29  O31       18.5840   43.5330   42.1340 O.2     1  YZE1       -0.2492
@<TRIPOS>BOND
     1     6     5   ar
     2     5     7   ar
     3     5     4    1
     4     2     1    1
     5     2     3    1
     6     3     4    1
     7     4     8    1
     8     8     9   am
     9    29     9    2
    10    14    15    1
    11    14    13    1
    12    15    16    1
    13     9    10   am
    14    12    13    2
    15    12    11    1
    16    10    11    1
    17    25    17    2
    18    16    17   am
    19    11    26    1
    20    17    18    1
    21    26    27   ar
    22    26    28   ar
    23    18    19   ar
    24    18    24   ar
    25    19    20   ar
    26    24    23   ar
    27    20    21   ar
    28    23    21   ar
    29    21    22    1
