@<TRIPOS>MOLECULE
3iwy_DTR_B_1.pdb
 14 15 0 0 0
SMALL
GASTEIGER

@<TRIPOS>ATOM
      1  N         22.9340   -1.7060   27.1190 N.3     2  DTR2       -0.1241
      2  CA        21.7850   -1.8900   26.1970 C.3     2  DTR2        0.1605
      3  CB        20.5240   -1.2130   26.7780 C.3     2  DTR2        0.0550
      4  CG        19.4300   -0.9400   25.7790 C.2     2  DTR2       -0.0000
      5  CD1       19.2410    0.2190   25.0610 C.2     2  DTR2        0.0946
      6  NE1       18.1210    0.1120   24.2740 N.2     2  DTR2       -0.2442
      7  CE2       17.5730   -1.1310   24.4500 C.2     2  DTR2        0.0804
      8  CZ2       16.4380   -1.7020   23.8520 C.2     2  DTR2        0.0148
      9  CH2       16.0980   -2.9830   24.2190 C.2     2  DTR2       -0.0199
     10  CZ3       16.8510   -3.6890   25.1790 C.3     2  DTR2        0.0521
     11  CE3       17.9940   -3.1250   25.7730 C.2     2  DTR2       -0.0202
     12  CD2       18.3660   -1.8230   25.3950 C.2     2  DTR2        0.0113
     13  C         21.5280   -3.3740   25.8880 C.2     2  DTR2        0.2264
     14  O         21.5140   -3.8170   24.7040 O.2     2  DTR2       -0.2867
@<TRIPOS>BOND
     1     8     9    2
     2     8     7    1
     3     9    10    1
     4     6     7    2
     5     6     5    1
     6     7    12    1
     7    14    13    2
     8     5     4    2
     9    10    11    1
    10    12    11    2
    11    12     4    1
    12     4     3    1
    13    13     2    1
    14     2     3    1
    15     2     1    1
