@<TRIPOS>MOLECULE
3iwy_DPN_B_1.pdb
 11 11 0 0 0
SMALL
GASTEIGER

@<TRIPOS>ATOM
      1  N         18.9630   -4.8630   21.6420 N.3     7  DPN7       -0.1241
      2  CA        17.7310   -5.6360   21.3260 C.3     7  DPN7        0.1605
      3  C         17.9950   -6.4870   20.1130 C.2     7  DPN7        0.2264
      4  O         17.1280   -6.6270   19.2690 O.2     7  DPN7       -0.2867
      5  CB        17.3400   -6.5620   22.4790 C.3     7  DPN7        0.0534
      6  CG        16.0640   -7.3660   22.2260 C.ar    7  DPN7       -0.0203
      7  CD1       16.0570   -8.7410   22.3500 C.ar    7  DPN7       -0.0042
      8  CD2       14.8960   -6.7320   21.8710 C.ar    7  DPN7       -0.0042
      9  CE1       14.8770   -9.4850   22.1250 C.ar    7  DPN7       -0.0003
     10  CE2       13.7050   -7.4690   21.6070 C.ar    7  DPN7       -0.0003
     11  CZ        13.7020   -8.8450   21.7530 C.ar    7  DPN7       -0.0000
@<TRIPOS>BOND
     1     4     3    2
     2     3     2    1
     3     2     1    1
     4     2     5    1
     5    10    11   ar
     6    10     8   ar
     7    11     9   ar
     8     8     6   ar
     9     9     7   ar
    10     6     7   ar
    11     6     5    1
