@<TRIPOS>MOLECULE
3ix1_NFM_A_1.pdb
 12 12 0 0 0
SMALL
GASTEIGER

@<TRIPOS>ATOM
      1  C1        64.1240   96.4950   49.4610 C.2   401  NFM401      0.2293
      2  N1        63.7920   97.6030   48.6340 N.2   401  NFM401     -0.3368
      3  O1        67.1430   94.2970   53.1500 O.2   401  NFM401     -0.2633
      4  C2        64.1180   98.9270   49.0440 C.1   401  NFM401      0.0663
      5  N2        64.7690   99.1280   50.2790 N.2   401  NFM401     -0.1861
      6  C3        65.0990   98.0260   51.1010 C.2   401  NFM401      0.1116
      7  N3        63.7770   95.1060   49.0250 N.pl3 401  NFM401     -0.0925
      8  C4        64.7830   96.7050   50.7000 C.2   401  NFM401      0.0672
      9  N4        66.1660   94.5400   51.1170 N.am  401  NFM401     -0.1927
     10  C5        63.7760  100.1030   48.1790 C.3   401  NFM401      0.1291
     11  C6        65.1450   95.5460   51.5820 C.3   401  NFM401      0.1475
     12  C7        67.1030   93.9920   51.9800 C.2   401  NFM401      0.3204
@<TRIPOS>BOND
     1    10     4    1
     2     2     4    2
     3     2     1    2
     4     7     1    1
     5     4     5    2
     6     1     8    1
     7     5     6    1
     8     8     6    2
     9     8    11    1
    10     9    11    1
    11     9    12   am
    12    12     3    2
