@<TRIPOS>MOLECULE
3ix3_OHN_A_1.pdb
 21 21 0 0 0
SMALL
GASTEIGER

@<TRIPOS>ATOM
      1  C21       15.2770    7.6140   20.5020 C.3   200  OHN200      0.0000
      2  C20       14.1580    8.6180   20.2940 C.3   200  OHN200      0.0000
      3  C19       13.3510    8.3860   19.0210 C.3   200  OHN200      0.0000
      4  C18       12.1470    9.3260   18.9090 C.3   200  OHN200      0.0000
      5  C17       11.0000    9.0400   19.8750 C.3   200  OHN200      0.0000
      6  C16       10.3930    7.6970   19.4990 C.3   200  OHN200      0.0000
      7  C15        9.2470    7.3440   20.4320 C.3   200  OHN200      0.0004
      8  C14        8.8330    5.8810   20.2820 C.3   200  OHN200      0.0078
      9  C13        9.9510    4.8930   20.6410 C.3   200  OHN200      0.0650
     10  C11        9.4900    3.4740   20.8120 C.2   200  OHN200      0.1599
     11  O12        8.3250    3.1540   20.6540 O.2   200  OHN200     -0.2955
     12  C10       10.5340    2.4660   21.2250 C.3   200  OHN200      0.1510
     13  C8         9.9680    1.0830   21.1390 C.2   200  OHN200      0.2493
     14  O9         9.8780    0.5060   20.0530 O.2   200  OHN200     -0.2729
     15  N7         9.5850    0.5530   22.2870 N.am  200  OHN200     -0.1952
     16  C1         8.9930   -0.7670   22.3340 C.3   200  OHN200      0.1971
     17  C5         9.5300   -1.6710   23.4460 C.3   200  OHN200      0.0805
     18  C4         8.3600   -2.6040   23.7550 C.3   200  OHN200      0.2109
     19  C2         7.5470   -0.7110   22.6860 C.2   200  OHN200      0.3371
     20  O6         6.7300    0.1200   22.3640 O.2   200  OHN200     -0.2482
     21  OAP        7.2010   -1.8360   23.4620 O.3   200  OHN200     -0.4473
@<TRIPOS>BOND
     1     4     3    1
     2     4     5    1
     3     3     2    1
     4     6     5    1
     5     6     7    1
     6    14    13    2
     7     8     7    1
     8     8     9    1
     9     2     1    1
    10     9    10    1
    11    11    10    2
    12    10    12    1
    13    13    12    1
    14    13    15   am
    15    15    16    1
    16    16    19    1
    17    16    17    1
    18    20    19    2
    19    19    21    1
    20    17    18    1
    21    21    18    1
