@<TRIPOS>MOLECULE
3ix4_TX1_A_1.pdb
 31 33 0 0 0
SMALL
GASTEIGER

@<TRIPOS>ATOM
      1  C1         2.4090   17.1720    3.4280 C.ar  174  TX1174      0.1525
      2  C2         1.2510   17.8760    2.8510 C.ar  174  TX1174      0.0694
      3  C3        -0.0200   17.3540    3.0310 C.ar  174  TX1174      0.0164
      4  C4        -0.1810   16.1760    3.7680 C.ar  174  TX1174      0.0350
      5  C5         0.8860   15.4690    4.3320 C.ar  174  TX1174      0.0072
      6  C6         2.1950   15.9260    4.1980 C.ar  174  TX1174      0.0351
      7  C7         3.3790   15.1950    4.7940 C.3   174  TX1174      0.1448
      8  N8         3.0210   14.5830    6.0620 N.am  174  TX1174     -0.1966
      9  C9         2.6780   13.3040    6.1770 C.2   174  TX1174      0.2667
     10  C10        2.6420   12.6910    7.5490 C.ar  174  TX1174      0.0775
     11  C11        3.8250   12.5410    8.2650 C.ar  174  TX1174      0.0062
     12  C12        3.7940   11.9730    9.5390 C.ar  174  TX1174      0.0002
     13  C13        2.6060   11.5370   10.1200 C.ar  174  TX1174      0.0017
     14  C14        1.3960   11.6610    9.4420 C.ar  174  TX1174      0.0242
     15  C15        1.3650   12.2190    8.1670 C.ar  174  TX1174      0.1473
     16  N16        0.1360   12.3650    7.5000 N.pl3 174  TX1174      0.0578
     17  O17        2.3770   12.6150    5.2140 O.2   174  TX1174     -0.2683
     18  O18       -0.7880   11.5900    7.6920 O.2   174  TX1174     -0.1261
     19  O19       -0.0290   13.4440    6.6480 O.2   174  TX1174     -0.1261
     20  O20        3.6500   17.6970    3.2590 O.3   174  TX1174     -0.4208
     21  C21        4.3580   17.5830    2.0090 C.2   174  TX1174      0.3465
     22  O22        3.8480   17.0140    1.0570 O.2   174  TX1174     -0.2445
     23 BR23        1.5620   19.4670    1.8940 Br    174  TX1174     -0.0458
     24 BR24       -1.9240   15.5100    3.9940 Br    174  TX1174     -0.0490
     25  C25        5.7170   18.2000    1.9710 C.ar  174  TX1174      0.0866
     26  C26        6.5770   18.0150    3.0490 C.ar  174  TX1174      0.0073
     27  C27        7.8440   18.5930    3.0280 C.ar  174  TX1174      0.0003
     28  C28        8.2630   19.3710    1.9500 C.ar  174  TX1174      0.0009
     29  C29        7.4320   19.6000    0.8550 C.ar  174  TX1174      0.0116
     30  C30        6.1590   19.0420    0.8310 C.ar  174  TX1174      0.0639
     31 CL31        5.0800   19.3310   -0.5660 Cl    174  TX1174     -0.0820
@<TRIPOS>BOND
     1    31    30    1
     2    30    29   ar
     3    30    25   ar
     4    29    28   ar
     5    22    21    2
     6    23     2    1
     7    28    27   ar
     8    25    21    1
     9    25    26   ar
    10    21    20    1
    11     2     3   ar
    12     2     1   ar
    13    27    26   ar
    14     3     4   ar
    15    20     1    1
    16     1     6   ar
    17     4    24    1
    18     4     5   ar
    19     6     5   ar
    20     6     7    1
    21     7     8    1
    22    17     9    2
    23     8     9   am
    24     9    10    1
    25    19    16    2
    26    16    18    2
    27    16    15    1
    28    10    15   ar
    29    10    11   ar
    30    15    14   ar
    31    11    12   ar
    32    14    13   ar
    33    12    13   ar
