@<TRIPOS>MOLECULE
3ix8_TX3_A_1.pdb
 29 31 0 0 0
SMALL
GASTEIGER

@<TRIPOS>ATOM
      1  C1         3.2740   13.6890   28.5510 C.ar  174  TX3174      0.1525
      2  C2         4.4440   14.5430   28.8370 C.ar  174  TX3174      0.0694
      3  C3         5.7110   13.9600   28.7460 C.ar  174  TX3174      0.0164
      4  C4         5.8520   12.6120   28.3820 C.ar  174  TX3174      0.0350
      5  C5         4.7620   11.7880   28.1010 C.ar  174  TX3174      0.0072
      6  C6         3.4630   12.2740   28.1750 C.ar  174  TX3174      0.0351
      7  C7         2.2610   11.4080   27.8740 C.3   174  TX3174      0.1448
      8  N8         2.5530   10.5110   26.7610 N.am  174  TX3174     -0.1967
      9  C9         2.8270    9.2270   26.9790 C.2   174  TX3174      0.2659
     10  O10        2.9360    8.7780   28.1200 O.2   174  TX3174     -0.2683
     11  C11        3.0320    8.3040   25.8150 C.ar  174  TX3174      0.0656
     12  C12        2.0160    7.4550   25.3830 C.ar  174  TX3174      0.0054
     13  C13        2.2310    6.5970   24.2920 C.ar  174  TX3174      0.0002
     14  C14        3.4580    6.5750   23.6260 C.ar  174  TX3174      0.0009
     15  C15        4.5160    7.4100   24.0170 C.ar  174  TX3174      0.0115
     16  C16        4.3370    8.2840   25.1000 C.ar  174  TX3174      0.0621
     17 CL17        5.6630    9.3760   25.6340 Cl    174  TX3174     -0.0821
     18 BR18        4.1620   16.3750   29.2860 Br    174  TX3174     -0.0458
     19 BR19        7.5640   11.8360   28.2390 Br    174  TX3174     -0.0490
     20  O20        2.0140   14.1940   28.6150 O.3   174  TX3174     -0.4208
     21  C21        1.3840   14.4970   29.8670 C.2   174  TX3174      0.3454
     22  O22        2.0070   14.3610   30.9110 O.2   174  TX3174     -0.2445
     23  C23       -0.0300   14.9810   29.7930 C.ar  174  TX3174      0.0721
     24  C24       -0.9220   14.3840   28.8980 C.ar  174  TX3174      0.0061
     25  C25       -2.2360   14.8490   28.8260 C.ar  174  TX3174      0.0002
     26  C26       -2.6690   15.9030   29.6350 C.ar  174  TX3174     -0.0003
     27  C27       -1.8100   16.5280   30.5370 C.ar  174  TX3174     -0.0041
     28  C28       -0.4870   16.1050   30.6400 C.ar  174  TX3174     -0.0156
     29  C29        0.4670   16.7680   31.6060 C.3   174  TX3174      0.0312
@<TRIPOS>BOND
     1    14    15   ar
     2    14    13   ar
     3    15    16   ar
     4    13    12   ar
     5    16    17    1
     6    16    11   ar
     7    12    11   ar
     8    11     9    1
     9     8     9   am
    10     8     7    1
    11     9    10    2
    12     7     6    1
    13     5     6   ar
    14     5     4   ar
    15     6     1   ar
    16    19     4    1
    17     4     3   ar
    18     1    20    1
    19     1     2   ar
    20    20    21    1
    21     3     2   ar
    22    25    24   ar
    23    25    26   ar
    24     2    18    1
    25    24    23   ar
    26    26    27   ar
    27    23    21    1
    28    23    28   ar
    29    21    22    2
    30    27    28   ar
    31    28    29    1
