@<TRIPOS>MOLECULE
3ix9_NDP_A_1.pdb
 48 52 0 0 0
SMALL
GASTEIGER

@<TRIPOS>ATOM
      1  PA       -22.9160    4.9930  -11.3630 P.3   193  NDP193      0.2189
      2  O1A      -23.4210    6.3410  -11.7130 O.3   193  NDP193     -0.4371
      3  O2A      -21.5360    4.6210  -11.7650 O.2   193  NDP193     -0.5170
      4  O5B      -23.0370    4.7740   -9.7700 O.3   193  NDP193     -0.3112
      5  C5B      -24.2550    4.9850   -9.0490 C.3   193  NDP193      0.1813
      6  C4B      -23.9870    4.8820   -7.5460 C.3   193  NDP193      0.1820
      7  O4B      -23.2650    6.0250   -7.0600 O.3   193  NDP193     -0.3136
      8  C3B      -25.2750    4.8680   -6.7240 C.3   193  NDP193      0.2157
      9  O3B      -25.8190    3.5470   -6.7490 O.3   193  NDP193     -0.2175
     10  C2B      -24.6910    5.1750   -5.3460 C.3   193  NDP193      0.2314
     11  O2B      -23.8820    4.1130   -4.8380 O.3   193  NDP193     -0.2630
     12  C1B      -23.7480    6.3130   -5.7350 C.3   193  NDP193      0.3158
     13  N9A      -24.5330    7.5630   -5.8100 N.pl3 193  NDP193     -0.1439
     14  C8A      -25.2590    8.0010   -6.8370 C.3   193  NDP193      0.3377
     15  N7A      -25.7560    9.2000   -6.5400 N.2   193  NDP193     -0.2095
     16  C5A      -25.3450    9.5210   -5.3120 C.2   193  NDP193      0.2526
     17  C6A      -25.5120   10.6260   -4.4830 C.2   193  NDP193      0.4393
     18  N6A      -26.2230   11.6750   -4.8900 N.pl3 193  NDP193      0.2180
     19  N1A      -24.9200   10.6270   -3.2760 N.2   193  NDP193      0.0021
     20  C2A      -24.1820    9.6080   -2.8690 C.3   193  NDP193      0.5254
     21  N3A      -23.9930    8.5400   -3.6280 N.2   193  NDP193     -0.0055
     22  C4A      -24.5620    8.4730   -4.8420 C.2   193  NDP193      0.3518
     23  O3       -23.8820    3.8140  -11.9030 O.3   193  NDP193     -0.2703
     24  PN       -24.9550    3.8930  -13.1110 P.3   193  NDP193      0.2189
     25  O1N      -25.7370    2.6320  -13.0650 O.3   193  NDP193     -0.4371
     26  O2N      -25.6940    5.1750  -13.1410 O.2   193  NDP193     -0.5170
     27  O5D      -24.0200    3.8210  -14.4230 O.3   193  NDP193     -0.3112
     28  C5D      -23.2280    2.6460  -14.6210 C.3   193  NDP193      0.1813
     29  C4D      -23.1210    2.3270  -16.1120 C.3   193  NDP193      0.1799
     30  O4D      -22.4050    3.4270  -16.7030 O.3   193  NDP193     -0.3327
     31  C3D      -22.2710    1.0730  -16.3340 C.3   193  NDP193      0.2158
     32  O3D      -22.7400    0.3490  -17.4750 O.3   193  NDP193     -0.2175
     33  C2D      -20.8770    1.6510  -16.5750 C.3   193  NDP193      0.2309
     34  O2D      -20.1220    0.8290  -17.4700 O.3   193  NDP193     -0.2158
     35  C1D      -21.2810    2.8700  -17.4010 C.3   193  NDP193      0.2263
     36  N1N      -20.1990    3.8560  -17.6170 N.pl3 193  NDP193     -0.2787
     37  C2N      -19.9620    4.3560  -18.9030 C.3   193  NDP193      0.1244
     38  C3N      -18.9360    5.2670  -19.1160 C.2   193  NDP193      0.0544
     39  C7N      -18.6620    5.7600  -20.5370 C.2   193  NDP193      0.2818
     40  O7N      -17.9780    6.7590  -20.7610 O.2   193  NDP193     -0.2670
     41  N7N      -19.2530    5.0400  -21.4870 N.am  193  NDP193     -0.0839
     42  C4N      -18.1530    5.6860  -18.0440 C.2   193  NDP193      0.0033
     43  C5N      -18.3850    5.1910  -16.7650 C.2   193  NDP193      0.0157
     44  C6N      -19.4040    4.2740  -16.5420 C.2   193  NDP193      0.0633
     45  P2B      -24.3830    3.1120   -3.6820 P.3   193  NDP193      0.5328
     46  O1X      -23.2590    2.3090   -3.1530 O.3   193  NDP193     -0.1145
     47  O2X      -25.1080    3.9550   -2.5200 O.3   193  NDP193     -0.1145
     48  O3X      -25.5150    2.2140   -4.3950 O.2   193  NDP193     -0.2224
@<TRIPOS>BOND
     1    41    39   am
     2    40    39    2
     3    39    38    1
     4    38    37    1
     5    38    42    2
     6    37    36    1
     7    42    43    1
     8    36    35    1
     9    36    44    1
    10    32    31    1
    11    34    33    1
    12    35    30    1
    13    35    33    1
    14    43    44    2
    15    30    29    1
    16    33    31    1
    17    31    29    1
    18    29    28    1
    19    28    27    1
    20    27    24    1
    21    26    24    2
    22    24    25    1
    23    24    23    1
    24    23     1    1
    25     3     1    2
    26     2     1    1
    27     1     4    1
    28     4     5    1
    29     5     6    1
    30     6     7    1
    31     6     8    1
    32     7    12    1
    33    14    15    1
    34    14    13    1
    35     9     8    1
    36     8    10    1
    37    15    16    2
    38    13    12    1
    39    13    22    1
    40    12    10    1
    41    10    11    1
    42    16    22    1
    43    16    17    1
    44    18    17    1
    45    22    21    2
    46    11    45    1
    47    17    19    2
    48    48    45    2
    49    45    46    1
    50    45    47    1
    51    21    20    1
    52    19    20    1
