@<TRIPOS>MOLECULE
3ix9_MTX_A_1.pdb
 33 35 0 0 0
SMALL
GASTEIGER

@<TRIPOS>ATOM
      1  N1       -13.8000    6.6450  -21.8310 N.2   200  MTX200     -0.2684
      2  C2       -14.0660    7.9580  -21.7630 C.1   200  MTX200      0.2519
      3  NA2      -13.7250    8.7480  -22.7790 N.pl3 200  MTX200     -0.0226
      4  N3       -14.5780    8.5020  -20.6500 N.2   200  MTX200     -0.3033
      5  C4       -14.8270    7.7500  -19.5690 C.2   200  MTX200      0.2728
      6  NA4      -15.2910    8.2960  -18.4500 N.pl3 200  MTX200     -0.0887
      7  C4A      -14.5560    6.3860  -19.6120 C.2   200  MTX200      0.2518
      8  N5       -14.7750    5.6090  -18.5440 N.2   200  MTX200     -0.3917
      9  C6       -14.4900    4.3000  -18.5970 C.2   200  MTX200      0.1330
     10  C7       -13.9850    3.7620  -19.7800 C.3   200  MTX200      0.1930
     11  N8       -13.7680    4.5320  -20.8330 N.2   200  MTX200     -0.1998
     12  C8A      -14.0350    5.8430  -20.7810 C.1   200  MTX200      0.1314
     13  C9       -14.5030    3.5520  -17.4220 C.3   200  MTX200      0.1481
     14  N10      -14.0050    2.3280  -17.4440 N.pl3 200  MTX200     -0.2999
     15  CM       -14.8110    1.2800  -17.4160 C.3   200  MTX200      0.1125
     16  C11       -9.9230    1.8440  -17.6920 C.ar  200  MTX200      0.0551
     17  C12      -10.7560    0.7280  -17.6640 C.ar  200  MTX200      0.0058
     18  C13      -12.1320    0.8870  -17.5360 C.ar  200  MTX200      0.0147
     19  C14      -12.6800    2.1650  -17.4490 C.ar  200  MTX200      0.0482
     20  C15      -11.8410    3.2770  -17.4630 C.ar  200  MTX200      0.0147
     21  C16      -10.4650    3.1220  -17.5850 C.ar  200  MTX200      0.0058
     22  C         -8.4080    1.6760  -17.8360 C.2   200  MTX200      0.2652
     23  O         -7.8940    0.5580  -17.8430 O.2   200  MTX200     -0.2684
     24  N         -7.7360    2.8160  -17.9800 N.am  200  MTX200     -0.1918
     25  CA        -6.2680    2.8740  -18.0680 C.3   200  MTX200      0.1986
     26  CT        -5.8310    4.1500  -17.3470 C.2   200  MTX200      0.3842
     27  O1        -6.6130    5.1230  -17.4170 O.co2 200  MTX200     -0.2437
     28  O2        -4.7620    4.1060  -16.7000 O.co2 200  MTX200     -0.2437
     29  CB        -5.7610    2.8730  -19.5140 C.3   200  MTX200      0.0451
     30  CG        -5.8460    1.4710  -20.1230 C.3   200  MTX200      0.1164
     31  CD        -5.3490    1.4160  -21.5680 C.2   200  MTX200      0.3649
     32  OE1       -4.6900    2.3880  -21.9990 O.co2 200  MTX200     -0.2457
     33  OE2       -5.6420    0.3910  -22.2220 O.co2 200  MTX200     -0.2457
@<TRIPOS>BOND
     1     3     2    1
     2    33    31   ar
     3    32    31   ar
     4     1     2    2
     5     1    12    2
     6     2     4    2
     7    31    30    1
     8    11    12    2
     9    11    10    1
    10    12     7    1
    11     4     5    2
    12    30    29    1
    13    10     9    1
    14     7     5    1
    15     7     8    2
    16     5     6    1
    17    29    25    1
    18     9     8    2
    19     9    13    1
    20    25    24    1
    21    25    26    1
    22    24    22   am
    23    23    22    2
    24    22    16    1
    25    16    17   ar
    26    16    21   ar
    27    17    18   ar
    28    21    20   ar
    29    18    19   ar
    30    20    19   ar
    31    19    14    1
    32    14    13    1
    33    14    15    1
    34    27    26   ar
    35    26    28   ar
