@<TRIPOS>MOLECULE
3ixb_BZB_A_1.pdb
 12 13 0 0 0
SMALL
GASTEIGER

@<TRIPOS>ATOM
      1  B        -32.4170    6.6040   16.3750 B     363  BZB363      0.0000
      2  O1       -32.1320    7.3310   17.6670 O.3   363  BZB363      0.0000
      3  O2       -33.3490    5.4040   16.6760 O.3   363  BZB363      0.0000
      4  C1       -32.9260    7.4170   15.1760 C.ar  363  BZB363      0.0000
      5  C2       -33.1910    8.8110   15.1480 C.ar  363  BZB363      0.0000
      6  C8       -33.7760    7.9130   12.9060 C.ar  363  BZB363      0.0000
      7  C3       -33.7140    9.0740   13.8060 C.ar  363  BZB363      0.0000
      8  C7       -34.2170    7.9480   11.5810 C.ar  363  BZB363      0.0000
      9  S        -33.1910    6.5730   13.6930 S.2   363  BZB363      0.0000
     10  C4       -34.1370   10.2960   13.2850 C.ar  363  BZB363      0.0000
     11  C6       -34.6270    9.1950   11.1180 C.ar  363  BZB363      0.0000
     12  C5       -34.5830   10.3200   11.9590 C.ar  363  BZB363      0.0000
@<TRIPOS>BOND
     1    11     8   ar
     2    11    12   ar
     3     8     6   ar
     4    12    10   ar
     5     6     9   ar
     6     6     7   ar
     7    10     7   ar
     8     9     4   ar
     9     7     5   ar
    10     5     4   ar
    11     4     1    1
    12     1     3    1
    13     1     2    1
