@<TRIPOS>MOLECULE
3ixf_HEM_A_1.pdb
 43 50 0 0 0
SMALL
GASTEIGER

@<TRIPOS>ATOM
      1  CHA       -9.2590   -4.8610  -10.8740 C.2   139  HEM139      0.0000
      2  CHB      -10.4360   -0.2150   -9.4710 C.2   139  HEM139      0.0000
      3  CHC       -6.2880    1.4430  -11.5160 C.2   139  HEM139      0.0000
      4  CHD       -4.9800   -3.1470  -12.5130 C.2   139  HEM139      0.0000
      5  C1A       -9.9140   -3.7240  -10.4020 C.2   139  HEM139      0.0000
      6  C2A      -11.2510   -3.7480   -9.8370 C.2   139  HEM139      0.0000
      7  C3A      -11.5790   -2.4740   -9.4190 C.2   139  HEM139      0.0000
      8  C4A      -10.4670   -1.5910   -9.7350 C.2   139  HEM139      0.0000
      9  CMA      -12.8990   -1.9070   -8.7990 C.3   139  HEM139      0.0000
     10  CAA      -12.1960   -4.9730   -9.7220 C.3   139  HEM139      0.0000
     11  CBA      -12.8230   -5.1780  -11.0950 C.3   139  HEM139      0.0000
     12  CGA      -13.6270   -6.4720  -11.2130 C.2   139  HEM139      0.0000
     13  O1A      -14.6450   -6.4730  -11.9300 O.co2 139  HEM139      0.0000
     14  O2A      -13.2100   -7.4820  -10.6380 O.co2 139  HEM139      0.0000
     15  C1B       -9.4350    0.6150   -9.9490 C.ar  139  HEM139      0.0000
     16  C2B       -9.4640    2.0710   -9.8300 C.ar  139  HEM139      0.0000
     17  C3B       -8.3160    2.5280  -10.4080 C.ar  139  HEM139      0.0000
     18  C4B       -7.5560    1.4050  -10.8890 C.ar  139  HEM139      0.0000
     19  CMB      -10.6480    2.9120   -9.2220 C.3   139  HEM139      0.0000
     20  CAB       -7.8110    3.9500  -10.6050 C.2   139  HEM139      0.0000
     21  CBB       -8.1880    4.9430   -9.7300 C.2   139  HEM139      0.0000
     22  C1C       -5.6310    0.3320  -12.0370 C.2   139  HEM139      0.0000
     23  C2C       -4.4390    0.3820  -12.8080 C.2   139  HEM139      0.0000
     24  C3C       -4.0430   -0.8790  -13.1060 C.2   139  HEM139      0.0000
     25  C4C       -4.9580   -1.7620  -12.4440 C.2   139  HEM139      0.0000
     26  CMC       -3.7360    1.6840  -13.2060 C.3   139  HEM139      0.0000
     27  CAC       -2.8290   -1.3810  -13.9430 C.2   139  HEM139      0.0000
     28  CBC       -2.3750   -0.6040  -14.9490 C.2   139  HEM139      0.0000
     29  C1D       -6.0080   -3.9680  -12.1510 C.ar  139  HEM139      0.0000
     30  C2D       -5.9620   -5.4060  -12.3390 C.ar  139  HEM139      0.0000
     31  C3D       -7.2480   -5.9270  -11.8590 C.ar  139  HEM139      0.0000
     32  C4D       -7.9870   -4.7960  -11.3730 C.ar  139  HEM139      0.0000
     33  CMD       -4.8270   -6.2420  -12.9680 C.3   139  HEM139      0.0000
     34  CAD       -7.7360   -7.4060  -11.8290 C.3   139  HEM139      0.0000
     35  CBD       -7.9410   -7.8660  -13.2480 C.3   139  HEM139      0.0000
     36  CGD       -9.1610   -7.3820  -13.9590 C.2   139  HEM139      0.0000
     37  O1D      -10.1340   -6.9290  -13.2760 O.co2 139  HEM139      0.0000
     38  O2D       -9.1900   -7.5340  -15.2160 O.co2 139  HEM139      0.0000
     39  NA        -9.4670   -2.4040  -10.2860 N.2   139  HEM139      0.0000
     40  NB        -8.2110    0.2340  -10.5440 N.ar  139  HEM139      0.0000
     41  NC        -5.9420   -1.0020  -11.7940 N.2   139  HEM139      0.0000
     42  ND        -7.2170   -3.6140  -11.5320 N.ar  139  HEM139      0.0000
     43 FE         -7.6370   -1.7000  -10.9090 Fe    139  HEM139      0.0000
@<TRIPOS>BOND
     1    38    36   ar
     2    28    27    2
     3    36    37   ar
     4    36    35    1
     5    27    24    1
     6    35    34    1
     7    26    23    1
     8    24    23    2
     9    24    25    1
    10    33    30    1
    11    23    22    1
    12     4    25    1
    13     4    29    2
    14    25    41    2
    15    30    29   ar
    16    30    31   ar
    17    29    42   ar
    18    22    41    1
    19    22     3    2
    20    13    12   ar
    21    31    34    1
    22    31    32   ar
    23    41    43    1
    24    42    32   ar
    25    42    43    1
    26     3    18    1
    27    32     1    2
    28    12    11    1
    29    12    14   ar
    30    11    10    1
    31    43    40    1
    32    43    39    1
    33    18    40   ar
    34    18    17   ar
    35     1     5    1
    36    20    17    1
    37    20    21    2
    38    40    15   ar
    39    17    16   ar
    40     5    39    2
    41     5     6    1
    42    39     8    1
    43    15    16   ar
    44    15     2    1
    45     6    10    1
    46     6     7    2
    47    16    19    1
    48     8     2    2
    49     8     7    1
    50     7     9    1
