@<TRIPOS>MOLECULE
3ixg_BZB_B_1.pdb
 12 13 0 0 0
SMALL
GASTEIGER

@<TRIPOS>ATOM
      1  B         71.2320    4.8160   23.4870 B     362  BZB362      0.0000
      2  O1        70.6030    5.1430   22.1310 O.3   362  BZB362      0.0000
      3  O2        71.9550    3.4640   23.6230 O.3   362  BZB362      0.0000
      4  C1        71.8440    5.9460   24.3470 C.ar  362  BZB362      0.0000
      5  C2        71.9300    7.3110   24.0330 C.ar  362  BZB362      0.0000
      6  C8        73.0250    7.0200   26.2500 C.ar  362  BZB362      0.0000
      7  C3        72.6280    7.9470   25.1620 C.ar  362  BZB362      0.0000
      8  C7        73.6910    7.4290   27.4100 C.ar  362  BZB362      0.0000
      9  S         72.5390    5.4670   25.8570 S.2   362  BZB362      0.0000
     10  C4        72.9680    9.2950   25.3480 C.ar  362  BZB362      0.0000
     11  C6        74.0030    8.7940   27.5280 C.ar  362  BZB362      0.0000
     12  C5        73.6440    9.6980   26.5140 C.ar  362  BZB362      0.0000
@<TRIPOS>BOND
     1     2     1    1
     2     1     3    1
     3     1     4    1
     4     5     4   ar
     5     5     7   ar
     6     4     9   ar
     7     7    10   ar
     8     7     6   ar
     9    10    12   ar
    10     9     6   ar
    11     6     8   ar
    12    12    11   ar
    13     8    11   ar
