@<TRIPOS>MOLECULE
3ixh_PCZ_B_1.pdb
 26 27 0 0 0
SMALL
GASTEIGER

@<TRIPOS>ATOM
      1  O1        19.4760    4.9610   28.3380 O.2   362  PCZ362     -0.2863
      2  C1        18.7700    5.8110   28.8640 C.2   362  PCZ362      0.2316
      3  C2        19.2890    7.2190   29.2230 C.3   362  PCZ362      0.1923
      4  C3        20.2780    7.9810   28.2870 C.3   362  PCZ362      0.1784
      5  C5        22.8270    9.3580   27.6050 C.2   362  PCZ362      0.0125
      6  C51       24.0410    9.8510   27.3980 C.2   362  PCZ362     -0.0020
      7  C52       21.7250   10.3310   27.9490 C.3   362  PCZ362      0.0873
      8  C6        22.5910    7.8960   27.5130 C.2   362  PCZ362      0.1534
      9  C61       23.6530    7.1040   26.9120 C.2   362  PCZ362      0.4044
     10  O62       24.7770    7.1120   27.4770 O.co2 362  PCZ362     -0.2389
     11  O63       23.4200    6.4840   25.8440 O.co2 362  PCZ362     -0.2389
     12  N7        21.5340    7.2880   27.9450 N.2   362  PCZ362     -0.2528
     13  N8        19.5550    7.6500   30.6280 N.am  362  PCZ362     -0.1910
     14  C9        20.2490    7.4380   31.7800 C.2   362  PCZ362      0.2884
     15  O91       20.0290    8.2090   32.6950 O.2   362  PCZ362     -0.2665
     16  C10       21.2310    6.3980   32.1260 C.2   362  PCZ362      0.2002
     17  N11       20.8660    5.3640   32.7880 N.2   362  PCZ362     -0.0759
     18  O12       19.5910    5.0450   33.1730 O.2   362  PCZ362     -0.3729
     19  C13       18.4930    4.8860   32.2670 C.3   362  PCZ362      0.2885
     20  C14       22.6920    6.5700   31.8500 C.2   362  PCZ362      0.1478
     21  C15       23.2550    6.7130   30.5630 C.3   362  PCZ362      0.1266
     22  S16       24.9870    6.8850   30.7290 S.3   362  PCZ362     -0.0564
     23  C17       24.8780    6.7680   32.4480 C.2   362  PCZ362      0.2461
     24  N18       23.6090    6.6000   32.8860 N.2   362  PCZ362     -0.3794
     25  N19       25.9580    6.8280   33.2640 N.pl3 362  PCZ362     -0.0867
     26  S1        20.7010    9.5000   29.1080 S.3   362  PCZ362     -0.1100
@<TRIPOS>BOND
     1    11     9   ar
     2     9    10   ar
     3     9     8    1
     4     6     5    2
     5     8     5    1
     6     8    12    2
     7     5     7    1
     8    12     4    1
     9     7    26    1
    10     4    26    1
    11     4     3    1
    12     1     2    2
    13     2     3    1
    14     3    13    1
    15    21    22    1
    16    21    20    1
    17    13    14   am
    18    22    23    1
    19    14    16    1
    20    14    15    2
    21    20    16    1
    22    20    24    2
    23    16    17    2
    24    19    18    1
    25    23    24    2
    26    23    25    1
    27    17    18    1
