@<TRIPOS>MOLECULE
3ixl_PAC_A_1.pdb
 10 10 0 0 0
SMALL
GASTEIGER

@<TRIPOS>ATOM
      1  C1         6.1820   12.6010   16.0280 C.2   5000  PAC5000     0.3692
      2  C2         6.4430   11.6950   14.8390 C.3   5000  PAC5000     0.1404
      3  C1'        5.7030   11.8950   13.5320 C.ar  5000  PAC5000    -0.0109
      4  C2'        5.5290   10.7490   12.7500 C.ar  5000  PAC5000    -0.0037
      5  C3'        4.8730   10.8130   11.5220 C.ar  5000  PAC5000    -0.0003
      6  C4'        4.3910   12.0360   11.0650 C.ar  5000  PAC5000    -0.0000
      7  C5'        4.5570   13.1890   11.8420 C.ar  5000  PAC5000    -0.0003
      8  C6'        5.2200   13.1290   13.0720 C.ar  5000  PAC5000    -0.0037
      9  O1         5.3180   13.5220   16.0140 O.co2 5000  PAC5000    -0.2453
     10  O2         6.8940   12.3630   17.0450 O.co2 5000  PAC5000    -0.2453
@<TRIPOS>BOND
     1     6     5   ar
     2     6     7   ar
     3     5     4   ar
     4     7     8   ar
     5     4     3   ar
     6     8     3   ar
     7     3     2    1
     8     2     1    1
     9     9     1   ar
    10     1    10   ar
