@<TRIPOS>MOLECULE
3ixp_EPH_A_1.pdb
 49 48 0 0 0
SMALL
GASTEIGER

@<TRIPOS>ATOM
      1  C1       -24.1410   46.0200   15.9560 C.3   900  EPH900      0.2543
      2  C2       -24.1040   47.0370   15.0260 C.3   900  EPH900      0.2422
      3  C4       -24.5960   45.9280   18.4070 C.2   900  EPH900      0.3174
      4  O2       -24.4760   46.6150   17.2490 O.3   900  EPH900     -0.4444
      5  O4       -24.4360   44.7230   18.5470 O.2   900  EPH900     -0.2501
      6  C18      -24.9820   46.9030   19.5800 C.3   900  EPH900      0.1142
      7  C19      -24.2510   46.6740   20.9120 C.3   900  EPH900      0.0373
      8  C20      -23.1080   47.3800   20.8940 C.2   900  EPH900     -0.0301
      9  C21      -22.2520   47.3750   21.9300 C.2   900  EPH900     -0.0307
     10  C22      -20.8230   47.9360   21.7650 C.3   900  EPH900      0.0257
     11  C23      -20.7060   49.3340   21.8190 C.3   900  EPH900      0.0047
     12  C24      -20.9680   50.0700   23.1520 C.3   900  EPH900      0.0003
     13  C25      -20.6590   51.5960   23.1200 C.3   900  EPH900      0.0000
     14  C26      -21.8410   52.5430   22.7860 C.3   900  EPH900      0.0000
     15  C27      -21.6210   53.9980   23.2400 C.3   900  EPH900      0.0000
     16  C28      -22.0360   54.2130   24.7030 C.3   900  EPH900      0.0003
     17  C29      -20.8680   54.4680   25.6480 C.3   900  EPH900      0.0047
     18  C30      -20.4520   53.2810   26.5570 C.3   900  EPH900      0.0257
     19  C31      -19.7950   53.6390   27.9190 C.2   900  EPH900     -0.0307
     20  C32      -18.2320   53.9790   27.9280 C.2   900  EPH900     -0.0307
     21  C33      -17.3800   53.9480   26.6110 C.3   900  EPH900      0.0257
     22  C34      -16.1290   54.8730   26.6470 C.3   900  EPH900      0.0050
     23  C37      -23.8010   46.5310   13.5850 C.3   900  EPH900      0.2010
     24  O5       -23.7810   47.7100   12.6870 O.3   900  EPH900     -0.2662
     25  C3       -23.3920   49.2830   15.5540 C.2   900  EPH900      0.3171
     26  O1       -23.0930   47.9940   15.4290 O.3   900  EPH900     -0.4457
     27  O3       -24.4700   49.7630   15.3620 O.2   900  EPH900     -0.2501
     28  C5       -22.2090   50.1470   15.9650 C.3   900  EPH900      0.1096
     29  C6       -22.4100   50.8100   17.3090 C.3   900  EPH900      0.0116
     30  C7       -21.2590   51.6840   17.7250 C.3   900  EPH900      0.0006
     31  C8       -21.0430   51.8170   19.1940 C.3   900  EPH900      0.0000
     32  C9       -19.8620   52.7420   19.4190 C.3   900  EPH900      0.0000
     33  C10      -18.6540   52.0840   20.0040 C.3   900  EPH900      0.0000
     34  C11      -17.9460   53.0170   20.9490 C.3   900  EPH900      0.0000
     35  C12      -16.7320   52.3580   21.5350 C.3   900  EPH900      0.0000
     36  C13      -16.3620   52.9920   22.8620 C.3   900  EPH900      0.0000
     37  C14      -15.1790   52.2660   23.5060 C.3   900  EPH900      0.0000
     38  C15      -15.5100   51.4120   24.7710 C.3   900  EPH900      0.0000
     39  C16      -15.2540   49.8880   24.6480 C.3   900  EPH900      0.0000
     40  C17      -16.2250   49.2050   23.7130 C.3   900  EPH900      0.0000
     41  C35      -17.5500   48.9100   24.4280 C.3   900  EPH900      0.0000
     42  C36      -18.0260   47.5090   24.0530 C.3   900  EPH900      0.0000
     43  P1       -23.5070   47.4180   11.1700 P.3   900  EPH900      0.5327
     44  O6       -22.8290   46.3000   10.5350 O.2   900  EPH900     -0.2224
     45  O7       -23.4870   48.5740   10.2860 O.3   900  EPH900     -0.1145
     46  O8       -22.3420   48.3610   11.2040 O.3   900  EPH900     -0.1145
     47  C38      -21.0130   47.7520   11.7530 C.3   900  EPH900      0.0220
     48  C39      -19.8830   48.7860   11.7760 C.3   900  EPH900      0.1094
     49  N1       -18.8770   48.3630   12.7740 N.3   900  EPH900     -0.1314
@<TRIPOS>BOND
     1    45    43    1
     2    45    46    1
     3    44    43    2
     4    43    46    1
     5    43    24    1
     6    47    48    1
     7    48    49    1
     8    24    23    1
     9    23     2    1
    10     2    26    1
    11     2     1    1
    12    27    25    2
    13    26    25    1
    14    25    28    1
    15     1     4    1
    16    28    29    1
    17     4     3    1
    18    29    30    1
    19    30    31    1
    20     3     5    2
    21     3     6    1
    22    31    32    1
    23    32    33    1
    24     6     7    1
    25    33    34    1
    26     8     7    1
    27     8     9    2
    28    34    35    1
    29    35    36    1
    30    10    11    1
    31    10     9    1
    32    11    12    1
    33    14    13    1
    34    14    15    1
    35    36    37    1
    36    13    12    1
    37    15    16    1
    38    37    38    1
    39    40    41    1
    40    40    39    1
    41    42    41    1
    42    39    38    1
    43    16    17    1
    44    17    18    1
    45    18    19    1
    46    21    22    1
    47    21    20    1
    48    19    20    2
