@<TRIPOS>MOLECULE
3ixp_834_D_1.pdb
 30 33 0 0 0
SMALL
GASTEIGER

@<TRIPOS>ATOM
      1  C1         8.2890   66.0870   12.6960 C.ar  800  834800      0.0048
      2  C2         8.8680   66.5200   13.9340 C.ar  800  834800      0.0002
      3  C3         8.6130   65.7810   15.1350 C.ar  800  834800      0.0009
      4  C4         7.7910   64.6130   15.1090 C.ar  800  834800      0.0115
      5  C5         7.2190   64.1790   13.8880 C.ar  800  834800      0.0614
      6  C6         7.4590   64.9140   12.6460 C.ar  800  834800      0.0559
      7  C7         6.8620   64.5230   11.3390 C.2   800  834800      0.2007
      8 CL8         6.2360   62.7530   13.9760 Cl    800  834800     -0.0821
      9  N9         7.5510   64.1240   10.2840 N.2   800  834800     -0.3923
     10  C10        6.5900   63.8340    9.2250 C.2   800  834800      0.1085
     11  C11        5.3270   64.0660    9.6870 C.3   800  834800      0.1442
     12  N12        5.5300   64.5350   11.0950 N.pl3 800  834800     -0.1865
     13  C13        7.0560   63.3600    7.8740 C.3   800  834800      0.0634
     14  C17        4.0340   63.8870    8.9160 C.3   800  834800      0.0265
     15  N18        4.7410   64.9190   12.0350 N.am  800  834800     -0.1036
     16  C19        4.1670   66.1550   12.1260 C.2   800  834800      0.2826
     17  C24        3.5850   65.1840    8.2680 C.3   800  834800      0.0022
     18  C28        2.9410   63.3260    9.8180 C.3   800  834800      0.0022
     19  O34        4.3290   67.0010   11.2680 O.2   800  834800     -0.2667
     20  C35        3.5130   66.4240   13.4050 C.ar  800  834800      0.0558
     21  C36        4.3800   67.1500   14.3010 C.ar  800  834800      0.0076
     22  C37        3.9700   67.5240   15.5980 C.ar  800  834800      0.0402
     23  C38        2.6900   67.1850   16.0460 C.ar  800  834800      0.1721
     24  C39        1.7760   66.4550   15.1860 C.ar  800  834800      0.1685
     25  C40        2.1690   66.0610   13.8440 C.ar  800  834800      0.0196
     26  C41        1.1800   65.3060   12.9780 C.3   800  834800      0.0345
     27  O47        2.3410   67.5850   17.3390 O.3   800  834800     -0.4684
     28  C48        1.0990   67.0790   17.8830 C.3   800  834800      0.2526
     29  C49        0.0040   66.9270   16.7850 C.3   800  834800      0.2526
     30  O50        0.4920   66.1320   15.6750 O.3   800  834800     -0.4687
@<TRIPOS>BOND
     1    13    10    1
     2    17    14    1
     3    14    11    1
     4    14    18    1
     5    10    11    1
     6    10     9    2
     7    11    12    1
     8     9     7    2
     9    12     7    1
    10    12    15    1
    11    19    16    2
    12     7     6    1
    13    15    16   am
    14    16    20    1
    15     6     1   ar
    16     6     5   ar
    17     1     2   ar
    18    26    25    1
    19    20    25   ar
    20    20    21   ar
    21    25    24   ar
    22     5     8    1
    23     5     4   ar
    24     2     3   ar
    25    21    22   ar
    26     4     3   ar
    27    24    30    1
    28    24    23   ar
    29    22    23   ar
    30    30    29    1
    31    23    27    1
    32    29    28    1
    33    27    28    1
