@<TRIPOS>MOLECULE
3iyd_CMP_G_1.pdb
 22 25 0 0 0
SMALL
GASTEIGER

@<TRIPOS>ATOM
      1  P         66.4920    5.1060  -45.8810 P.3   679  CMP679      0.2141
      2  O1P       67.4460    3.9430  -46.0210 O.2   679  CMP679     -0.5172
      3  O2P       67.0300    6.1250  -44.9050 O.3   679  CMP679     -0.4373
      4  O5'       66.2330    5.7840  -47.3280 O.3   679  CMP679     -0.3114
      5  C5'       65.2750    5.2600  -48.2530 C.3   679  CMP679      0.1812
      6  C4'       63.9960    5.0550  -47.4600 C.3   679  CMP679      0.1793
      7  O4'       62.8640    4.5830  -48.1890 O.3   679  CMP679     -0.3136
      8  C3'       64.2360    3.9890  -46.4200 C.3   679  CMP679      0.1884
      9  O3'       65.0440    4.5730  -45.4100 O.3   679  CMP679     -0.3111
     10  C2'       62.8340    3.5880  -46.0180 C.3   679  CMP679      0.2541
     11  O2'       62.3870    4.3720  -44.9090 O.3   679  CMP679     -0.2131
     12  C1'       62.0050    3.9030  -47.2600 C.3   679  CMP679      0.3185
     13  N9        61.4960    2.6480  -47.8670 N.pl3 679  CMP679     -0.1439
     14  C8        62.1180    1.9240  -48.8160 C.3   679  CMP679      0.3377
     15  N7        61.3880    0.8310  -49.1560 N.2   679  CMP679     -0.2095
     16  C5        60.2680    0.8460  -48.4110 C.2   679  CMP679      0.2526
     17  C6        59.0680   -0.0130  -48.2670 C.2   679  CMP679      0.4393
     18  N6        58.9170   -1.1360  -49.0090 N.pl3 679  CMP679      0.2180
     19  N1        58.1290    0.3640  -47.3700 N.2   679  CMP679      0.0021
     20  C2        58.2670    1.4770  -46.6270 C.3   679  CMP679      0.5254
     21  N3        59.3270    2.3010  -46.7050 N.2   679  CMP679     -0.0055
     22  C4        60.3440    2.0450  -47.5630 C.2   679  CMP679      0.3518
@<TRIPOS>BOND
     1    15    14    1
     2    15    16    2
     3    18    17    1
     4    14    13    1
     5    16    17    1
     6    16    22    1
     7    17    19    2
     8     5     6    1
     9     5     4    1
    10     7     6    1
    11     7    12    1
    12    13    22    1
    13    13    12    1
    14    22    21    2
    15     6     8    1
    16    19    20    1
    17     4     1    1
    18    12    10    1
    19    21    20    1
    20     8    10    1
    21     8     9    1
    22     2     1    2
    23    10    11    1
    24     1     9    1
    25     1     3    1
