@<TRIPOS>MOLECULE
3iz0_GDP_B_1.pdb
 28 30 0 0 0
SMALL
GASTEIGER

@<TRIPOS>ATOM
      1  PB       382.2220  278.7780  163.8670 P.3   800  GDP800      0.5373
      2  O1B      382.7650  278.0410  162.7100 O.2   800  GDP800     -0.2221
      3  O2B      380.8370  278.7030  164.0490 O.3   800  GDP800     -0.1143
      4  O3B      383.0890  278.3690  165.1910 O.3   800  GDP800     -0.1143
      5  O3A      382.5000  280.3020  163.5800 O.3   800  GDP800     -0.2261
      6  PA       381.4370  281.5890  163.4810 P.3   800  GDP800      0.2231
      7  O1A      380.5530  281.3980  162.2980 O.2   800  GDP800     -0.5169
      8  O2A      380.7280  281.6570  164.8230 O.3   800  GDP800     -0.4370
      9  O5'      382.4160  282.7590  163.1840 O.3   800  GDP800     -0.3111
     10  C5'      382.0700  284.1390  163.5130 C.3   800  GDP800      0.1813
     11  C4'      382.0830  285.0580  162.3880 C.3   800  GDP800      0.1799
     12  O4'      381.0320  284.6430  161.4280 O.3   800  GDP800     -0.3326
     13  C3'      381.6360  286.5280  162.7160 C.3   800  GDP800      0.2158
     14  O3'      382.4950  287.4020  161.8970 O.3   800  GDP800     -0.2175
     15  C2'      380.1690  286.7280  162.2630 C.3   800  GDP800      0.2310
     16  O2'      379.7520  288.0200  161.7920 O.3   800  GDP800     -0.2158
     17  C1'      380.0150  285.7000  161.1450 C.3   800  GDP800      0.2293
     18  N9       378.7040  285.0530  161.0890 N.pl3 800  GDP800     -0.2354
     19  C8       378.3230  284.0770  162.1660 C.3   800  GDP800      0.2246
     20  N7       377.0660  283.8080  161.5950 N.2   800  GDP800     -0.2322
     21  C5       376.6870  284.4140  160.4750 C.2   800  GDP800      0.2182
     22  C6       375.6610  284.5640  159.5170 C.1   800  GDP800      0.2372
     23  O6       374.5610  283.8160  159.7070 O.2   800  GDP800     -0.2069
     24  N1       375.7310  285.3690  158.4340 N.2   800  GDP800     -0.2485
     25  C2       376.9650  286.1760  158.2370 C.1   800  GDP800      0.2531
     26  N2       376.8070  286.8930  157.1450 N.pl3 800  GDP800     -0.0226
     27  N3       377.9170  286.1020  159.0710 N.2   800  GDP800     -0.3074
     28  C4       377.8150  285.2590  160.1150 C.2   800  GDP800      0.2300
@<TRIPOS>BOND
     1    26    25    1
     2    25    24    2
     3    25    27    2
     4    24    22    2
     5    27    28    2
     6    22    23    2
     7    22    21    1
     8    28    21    1
     9    28    18    1
    10    21    20    2
    11    18    17    1
    12    18    19    1
    13    17    12    1
    14    17    15    1
    15    12    11    1
    16    20    19    1
    17    16    15    1
    18    14    13    1
    19    15    13    1
    20     7     6    2
    21    11    13    1
    22    11    10    1
    23     2     1    2
    24     9     6    1
    25     9    10    1
    26     6     5    1
    27     6     8    1
    28     5     1    1
    29     1     3    1
    30     1     4    1
