@<TRIPOS>MOLECULE
3iz0_GTP_A_1.pdb
 32 34 0 0 0
SMALL
GASTEIGER

@<TRIPOS>ATOM
      1  PG       383.1410  277.6330  124.3240 P.3   920  GTP920      0.5373
      2  O1G      381.8090  277.7640  125.0340 O.3   920  GTP920     -0.1143
      3  O2G      383.8590  276.3180  124.6560 O.2   920  GTP920     -0.2221
      4  O3G      384.1340  278.7100  124.7500 O.3   920  GTP920     -0.1143
      5  O3B      382.7390  277.7810  122.7220 O.3   920  GTP920     -0.2258
      6  PB       381.9500  279.0530  122.0290 P.3   920  GTP920      0.2277
      7  O1B      380.5630  278.7080  121.7500 O.3   920  GTP920     -0.4368
      8  O2B      382.8350  279.4920  120.8740 O.2   920  GTP920     -0.5168
      9  O3A      382.0950  280.1930  123.0380 O.3   920  GTP920     -0.2700
     10  PA       381.4480  281.5590  123.2430 P.3   920  GTP920      0.2189
     11  O1A      382.0350  282.1510  124.4790 O.3   920  GTP920     -0.4371
     12  O2A      379.9750  281.4810  123.2040 O.2   920  GTP920     -0.5170
     13  O5'      382.0250  282.4430  121.9810 O.3   920  GTP920     -0.3112
     14  C5'      381.5390  283.7740  121.9740 C.3   920  GTP920      0.1813
     15  C4'      382.0250  284.6450  120.8600 C.3   920  GTP920      0.1799
     16  O4'      381.1630  284.5180  119.7000 O.3   920  GTP920     -0.3326
     17  C3'      381.9130  286.0870  121.3010 C.3   920  GTP920      0.2158
     18  O3'      382.8450  286.8760  120.5960 O.3   920  GTP920     -0.2175
     19  C2'      380.4670  286.4100  120.9600 C.3   920  GTP920      0.2310
     20  O2'      380.3330  287.8160  120.7330 O.3   920  GTP920     -0.2158
     21  C1'      380.2030  285.5860  119.6900 C.3   920  GTP920      0.2293
     22  N9       378.8600  284.9900  119.5860 N.pl3 920  GTP920     -0.2354
     23  C8       378.2650  284.1290  120.4760 C.3   920  GTP920      0.2246
     24  N7       377.0640  283.7620  120.1230 N.2   920  GTP920     -0.2322
     25  C5       376.8370  284.4240  118.9410 C.2   920  GTP920      0.2182
     26  C6       375.7210  284.4300  118.1060 C.1   920  GTP920      0.2372
     27  O6       374.6800  283.8000  118.2730 O.2   920  GTP920     -0.2069
     28  N1       375.8800  285.2470  116.9640 N.2   920  GTP920     -0.2485
     29  C2       377.0080  285.9850  116.6800 C.1   920  GTP920      0.2531
     30  N2       376.9820  286.6940  115.5880 N.pl3 920  GTP920     -0.0226
     31  N3       378.0800  285.9990  117.4710 N.2   920  GTP920     -0.3074
     32  C4       377.9450  285.2000  118.5790 C.2   920  GTP920      0.2300
@<TRIPOS>BOND
     1    30    29    1
     2    29    28    2
     3    29    31    2
     4    28    26    2
     5    31    32    2
     6    26    27    2
     7    26    25    1
     8    32    25    1
     9    32    22    1
    10    25    24    2
    11    22    21    1
    12    22    23    1
    13    21    16    1
    14    21    19    1
    15    16    15    1
    16    24    23    1
    17    18    17    1
    18    20    19    1
    19    15    17    1
    20    15    14    1
    21     8     6    2
    22    19    17    1
    23     7     6    1
    24    14    13    1
    25    13    10    1
    26     6     5    1
    27     6     9    1
    28     5     1    1
    29     9    10    1
    30    12    10    2
    31    10    11    1
    32     1     3    2
    33     1     4    1
    34     1     2    1
