@<TRIPOS>MOLECULE
3iz8_DTP_A_1.pdb
 30 32 0 0 0
SMALL
GASTEIGER

@<TRIPOS>ATOM
      1  PG        -5.6120  -48.8820   41.6970 P.3   1442  DTP1442     0.5373
      2  O1G       -6.8920  -49.7040   41.4850 O.3   1442  DTP1442    -0.1143
      3  O2G       -5.5040  -47.7060   40.7020 O.2   1442  DTP1442    -0.2221
      4  O3G       -5.2790  -48.5950   43.2040 O.3   1442  DTP1442    -0.1143
      5  PB        -4.8390  -50.6380   39.6690 P.3   1442  DTP1442     0.2277
      6  O1B       -4.7420  -49.4530   38.6580 O.2   1442  DTP1442    -0.5168
      7  O2B       -6.2030  -51.2880   39.7020 O.3   1442  DTP1442    -0.4368
      8  O3B       -4.4880  -49.9190   41.0990 O.3   1442  DTP1442    -0.2258
      9  PA        -2.6210  -51.0630   38.2510 P.3   1442  DTP1442     0.2189
     10  O1A       -3.6350  -51.0010   37.1050 O.2   1442  DTP1442    -0.5170
     11  O2A       -1.9630  -49.8310   38.9190 O.3   1442  DTP1442    -0.4371
     12  O3A       -3.5820  -51.6430   39.3400 O.3   1442  DTP1442    -0.2700
     13  O5'       -1.4710  -52.0440   37.7880 O.3   1442  DTP1442    -0.3112
     14  C5'       -0.2470  -52.2070   38.4780 C.3   1442  DTP1442     0.1813
     15  C4'       -0.2900  -52.7060   39.8870 C.3   1442  DTP1442     0.1795
     16  O4'       -0.7100  -54.1030   39.7890 O.3   1442  DTP1442    -0.3155
     17  C3'        1.1690  -52.8990   40.3450 C.3   1442  DTP1442     0.1883
     18  O3'        1.2430  -53.7370   41.5600 O.3   1442  DTP1442    -0.2202
     19  C2'        1.6050  -53.7970   39.1730 C.3   1442  DTP1442     0.1151
     20  C1'        0.4860  -54.8860   39.2110 C.3   1442  DTP1442     0.2873
     21  N9         0.1620  -55.3160   37.8550 N.pl3 1442  DTP1442    -0.1460
     22  C8        -1.1120  -55.3640   37.2090 C.3   1442  DTP1442     0.3377
     23  N7        -1.0590  -55.8230   35.9230 N.2   1442  DTP1442    -0.2095
     24  C5         0.3400  -56.0870   35.7520 C.2   1442  DTP1442     0.2526
     25  C6         1.0500  -56.5610   34.6540 C.2   1442  DTP1442     0.4393
     26  N6         0.3820  -56.8770   33.4960 N.pl3 1442  DTP1442     0.2180
     27  N1         2.4330  -56.7250   34.7520 N.2   1442  DTP1442     0.0021
     28  C2         3.0540  -56.4310   35.9410 C.3   1442  DTP1442     0.5254
     29  N3         2.4800  -55.9160   37.0830 N.2   1442  DTP1442    -0.0055
     30  C4         1.0860  -55.7740   36.9050 C.2   1442  DTP1442     0.3518
@<TRIPOS>BOND
     1    26    25    1
     2    25    27    2
     3    25    24    1
     4    27    28    1
     5    24    23    2
     6    24    30    1
     7    23    22    1
     8    28    29    1
     9    30    29    2
    10    30    21    1
    11    10     9    2
    12    22    21    1
    13    13     9    1
    14    13    14    1
    15    21    20    1
    16     9    11    1
    17     9    12    1
    18    14    15    1
    19     6     5    2
    20    19    20    1
    21    19    17    1
    22    20    16    1
    23    12     5    1
    24     5     7    1
    25     5     8    1
    26    16    15    1
    27    15    17    1
    28    17    18    1
    29     3     1    2
    30     8     1    1
    31     2     1    1
    32     1     4    1
