@<TRIPOS>MOLECULE
3iza_ATP_A_1.pdb
 31 33 0 0 0
SMALL
GASTEIGER

@<TRIPOS>ATOM
      1  PG         6.5640  -42.5870  -11.9280 P.3   1258  ATP1258     0.5373
      2  O1G        7.9040  -43.2570  -11.5980 O.3   1258  ATP1258    -0.1143
      3  O2G        6.2110  -42.5790  -13.4610 O.2   1258  ATP1258    -0.2221
      4  O3G        6.3560  -41.2750  -11.1430 O.3   1258  ATP1258    -0.1143
      5  PB         5.9040  -44.0420   -9.6800 P.3   1258  ATP1258     0.2277
      6  O1B        5.9910  -42.8800   -8.7100 O.3   1258  ATP1258    -0.4368
      7  O2B        7.0250  -44.9870   -9.4780 O.2   1258  ATP1258    -0.5168
      8  O3B        5.5290  -43.6120  -11.0800 O.3   1258  ATP1258    -0.2258
      9  PA         3.4890  -44.3470   -8.1390 P.3   1258  ATP1258     0.2189
     10  O1A        4.0240  -44.3720   -6.7520 O.3   1258  ATP1258    -0.4371
     11  O2A        2.7240  -43.1540   -8.6560 O.2   1258  ATP1258    -0.5170
     12  O3A        4.6300  -44.8670   -9.1600 O.3   1258  ATP1258    -0.2700
     13  O5'        2.4990  -45.6100   -8.2420 O.3   1258  ATP1258    -0.3112
     14  C5'        1.6960  -45.7710   -9.4170 C.3   1258  ATP1258     0.1813
     15  C4'        0.3780  -46.4240   -9.0900 C.3   1258  ATP1258     0.1821
     16  O4'        0.6610  -47.7350   -8.5940 O.3   1258  ATP1258    -0.3135
     17  C3'       -0.3820  -45.7190   -7.9780 C.3   1258  ATP1258     0.2184
     18  O3'       -1.2420  -44.6590   -8.4540 O.3   1258  ATP1258    -0.2174
     19  C2'       -1.1240  -46.8910   -7.3800 C.3   1258  ATP1258     0.2570
     20  O2'       -2.2570  -47.1350   -8.2350 O.3   1258  ATP1258    -0.2130
     21  C1'       -0.1820  -48.0590   -7.4800 C.3   1258  ATP1258     0.3186
     22  N9         0.6500  -48.3700   -6.2580 N.pl3 1258  ATP1258    -0.1439
     23  C8         1.9320  -48.0370   -6.0390 C.3   1258  ATP1258     0.3377
     24  N7         2.4080  -48.4980   -4.8590 N.2   1258  ATP1258    -0.2095
     25  C5         1.3780  -49.1830   -4.2980 C.2   1258  ATP1258     0.2526
     26  C6         1.1520  -49.9210   -3.0290 C.2   1258  ATP1258     0.4393
     27  N6         2.1290  -50.0640   -2.0840 N.pl3 1258  ATP1258     0.2180
     28  N1        -0.0200  -50.5170   -2.8690 N.2   1258  ATP1258     0.0021
     29  C2        -1.0290  -50.3930   -3.7480 C.3   1258  ATP1258     0.5254
     30  N3        -0.9140  -49.7120   -4.8990 N.2   1258  ATP1258    -0.0055
     31  C4         0.2520  -49.1140   -5.2290 C.2   1258  ATP1258     0.3518
@<TRIPOS>BOND
     1     3     1    2
     2     1     2    1
     3     1     4    1
     4     1     8    1
     5     8     5    1
     6     5     7    2
     7     5    12    1
     8     5     6    1
     9    14    15    1
    10    14    13    1
    11    12     9    1
    12    15    16    1
    13    15    17    1
    14    11     9    2
    15    16    21    1
    16    18    17    1
    17    13     9    1
    18    20    19    1
    19     9    10    1
    20    17    19    1
    21    21    19    1
    22    21    22    1
    23    22    23    1
    24    22    31    1
    25    23    24    1
    26    31    30    2
    27    31    25    1
    28    30    29    1
    29    24    25    2
    30    25    26    1
    31    29    28    1
    32    26    28    2
    33    26    27    1
