@<TRIPOS>MOLECULE
3j0a_FUC_A_1.pdb
 10 10 0 0 0
SMALL
GASTEIGER

@<TRIPOS>ATOM
      1  C1       134.3900   96.9220   78.3150 C.3   1038  FUC1038     0.1776
      2  C2       135.3060   97.5690   79.4280 C.3   1038  FUC1038     0.2141
      3  C3       136.3090   96.6230   80.1290 C.3   1038  FUC1038     0.2172
      4  C4       136.8510   95.5540   79.1420 C.3   1038  FUC1038     0.2116
      5  C5       135.7260   94.7920   78.3410 C.3   1038  FUC1038     0.1483
      6  C6       136.0400   94.5400   76.8810 C.3   1038  FUC1038     0.0349
      7  O2       134.6060   98.3300   80.3870 O.3   1038  FUC1038    -0.2176
      8  O3       137.3860   97.4060   80.6600 O.3   1038  FUC1038    -0.2175
      9  O4       137.7500   96.1700   78.2150 O.3   1038  FUC1038    -0.2177
     10  O5       134.4130   95.4470   78.3990 O.3   1038  FUC1038    -0.3508
@<TRIPOS>BOND
     1     6     5    1
     2     9     4    1
     3     1    10    1
     4     1     2    1
     5     5    10    1
     6     5     4    1
     7     4     3    1
     8     2     3    1
     9     2     7    1
    10     3     8    1
