@<TRIPOS>MOLECULE
3j0j_ADP_A_1.pdb
 27 29 0 0 0
SMALL
GASTEIGER

@<TRIPOS>ATOM
      1  PB        15.7380   21.0990   66.3500 P.3   600  ADP600      0.5373
      2  O1B       14.4540   20.9500   65.6020 O.2   600  ADP600     -0.2221
      3  O2B       15.6520   22.1570   67.3430 O.3   600  ADP600     -0.1143
      4  O3B       16.1910   19.8170   66.9060 O.3   600  ADP600     -0.1143
      5  PA        17.6230   22.8810   64.9760 P.3   600  ADP600      0.2231
      6  O1A       16.8130   24.0620   65.1120 O.2   600  ADP600     -0.5169
      7  O2A       18.8200   22.9670   65.8750 O.3   600  ADP600     -0.4370
      8  O3A       16.8920   21.4450   65.2480 O.3   600  ADP600     -0.2261
      9  O5'       18.1200   22.6950   63.4830 O.3   600  ADP600     -0.3111
     10  C5'       18.9740   21.6070   63.0730 C.3   600  ADP600      0.1813
     11  C4'       19.8890   22.0760   61.9690 C.3   600  ADP600      0.1821
     12  O4'       19.1610   22.1620   60.7200 O.3   600  ADP600     -0.3135
     13  C3'       20.4730   23.5040   62.1570 C.3   600  ADP600      0.2184
     14  O3'       21.6300   23.4370   62.9750 O.3   600  ADP600     -0.2174
     15  C2'       20.9050   23.7840   60.7100 C.3   600  ADP600      0.2570
     16  O2'       22.0660   23.0450   60.3760 O.3   600  ADP600     -0.2130
     17  C1'       19.6530   23.2830   59.9570 C.3   600  ADP600      0.3186
     18  N9        18.6110   24.3240   59.9270 N.pl3 600  ADP600     -0.1439
     19  C8        17.5200   24.4510   60.7300 C.3   600  ADP600      0.3377
     20  N7        16.7870   25.5180   60.4640 N.2   600  ADP600     -0.2095
     21  C5        17.4790   26.1550   59.4470 C.2   600  ADP600      0.2526
     22  C6        17.2030   27.3420   58.7240 C.2   600  ADP600      0.4393
     23  N6        16.1240   28.0890   58.9510 N.pl3 600  ADP600      0.2180
     24  N1        18.0890   27.6900   57.7520 N.2   600  ADP600      0.0021
     25  C2        19.1530   26.8740   57.5100 C.3   600  ADP600      0.5254
     26  N3        19.4810   25.7620   58.1250 N.2   600  ADP600     -0.0055
     27  C4        18.5980   25.4460   59.1020 C.2   600  ADP600      0.3518
@<TRIPOS>BOND
     1    25    24    1
     2    25    26    1
     3    24    22    2
     4    26    27    2
     5    22    23    1
     6    22    21    1
     7    27    21    1
     8    27    18    1
     9    21    20    2
    10    18    17    1
    11    18    19    1
    12    17    15    1
    13    17    12    1
    14    16    15    1
    15    20    19    1
    16    15    13    1
    17    12    11    1
    18    11    13    1
    19    11    10    1
    20    13    14    1
    21    10     9    1
    22     9     5    1
    23     5     6    2
    24     5     8    1
    25     5     7    1
    26     8     1    1
    27     2     1    2
    28     1     4    1
    29     1     3    1
