@<TRIPOS>MOLECULE
3j15_ADP_B_1.pdb
 27 29 0 0 0
SMALL
GASTEIGER

@<TRIPOS>ATOM
      1  PB         3.9690   73.6390  -76.2750 P.3   601  ADP601      0.5373
      2  O1B        3.2350   72.3900  -76.6810 O.2   601  ADP601     -0.2221
      3  O2B        5.2600   73.4740  -75.5950 O.3   601  ADP601     -0.1143
      4  O3B        2.9660   74.5490  -75.3420 O.3   601  ADP601     -0.1143
      5  PA         3.7540   74.3480  -79.1340 P.3   601  ADP601      0.2231
      6  O1A        4.7720   73.4120  -79.6350 O.2   601  ADP601     -0.5169
      7  O2A        2.3160   74.0230  -79.4130 O.3   601  ADP601     -0.4370
      8  O3A        4.0320   74.5390  -77.5640 O.3   601  ADP601     -0.2261
      9  O5'        4.0610   75.7880  -79.7000 O.3   601  ADP601     -0.3111
     10  C5'        5.0960   76.6790  -79.2270 C.3   601  ADP601      0.1813
     11  C4'        4.9310   78.0650  -79.8430 C.3   601  ADP601      0.1821
     12  O4'        4.7480   77.9080  -81.2710 O.3   601  ADP601     -0.3135
     13  C3'        3.7250   78.8620  -79.3430 C.3   601  ADP601      0.2184
     14  O3'        4.2200   80.1580  -78.9950 O.3   601  ADP601     -0.2174
     15  C2'        2.8040   78.8690  -80.5230 C.3   601  ADP601      0.2570
     16  O2'        2.0070   80.0550  -80.5960 O.3   601  ADP601     -0.2130
     17  C1'        3.7250   78.7800  -81.7370 C.3   601  ADP601      0.3186
     18  N9         3.1030   78.1560  -82.9390 N.pl3 601  ADP601     -0.1439
     19  C8         2.5090   76.9120  -83.0830 C.3   601  ADP601      0.3377
     20  N7         2.0630   76.6520  -84.2810 N.2   601  ADP601     -0.2095
     21  C5         2.3810   77.8090  -84.9720 C.2   601  ADP601      0.2526
     22  C6         2.1970   78.1990  -86.3240 C.2   601  ADP601      0.4393
     23  N6         1.6000   77.3940  -87.1820 N.pl3 601  ADP601      0.2180
     24  N1         2.6330   79.4260  -86.7250 N.2   601  ADP601      0.0021
     25  C2         3.2360   80.2330  -85.8360 C.3   601  ADP601      0.5254
     26  N3         3.4790   79.9880  -84.5300 N.2   601  ADP601     -0.0055
     27  C4         3.0240   78.7300  -84.1670 C.2   601  ADP601      0.3518
@<TRIPOS>BOND
     1    23    22    1
     2    24    22    2
     3    24    25    1
     4    22    21    1
     5    25    26    1
     6    21    20    2
     7    21    27    1
     8    26    27    2
     9    20    19    1
    10    27    18    1
    11    19    18    1
    12    18    17    1
    13    17    12    1
    14    17    15    1
    15    12    11    1
    16    16    15    1
    17    15    13    1
    18    11    13    1
    19    11    10    1
    20     9    10    1
    21     9     5    1
    22     6     5    2
    23     7     5    1
    24    13    14    1
    25     5     8    1
    26     8     1    1
    27     2     1    2
    28     1     3    1
    29     1     4    1
