@<TRIPOS>MOLECULE
3j16_ATP_B_1.pdb
 31 33 0 0 0
SMALL
GASTEIGER

@<TRIPOS>ATOM
      1  PG       -16.0660   63.9630  -58.4770 P.3   702  ATP702      0.5373
      2  O1G      -16.4450   62.7350  -59.2170 O.2   702  ATP702     -0.2221
      3  O2G      -16.3120   65.2910  -59.1510 O.3   702  ATP702     -0.1143
      4  O3G      -14.6450   63.9080  -58.0650 O.3   702  ATP702     -0.1143
      5  PB       -17.2410   64.9190  -56.0220 P.3   702  ATP702      0.2277
      6  O1B      -17.0470   66.3300  -56.3280 O.2   702  ATP702     -0.5168
      7  O2B      -17.5010   64.4560  -54.6950 O.3   702  ATP702     -0.4368
      8  O3B      -16.8060   63.8350  -57.0830 O.3   702  ATP702     -0.2258
      9  PA       -20.1250   65.6760  -56.0610 P.3   702  ATP702      0.2189
     10  O1A      -20.5990   66.4220  -57.1990 O.2   702  ATP702     -0.5170
     11  O2A      -20.6650   65.8480  -54.7120 O.3   702  ATP702     -0.4371
     12  O3A      -18.8890   64.7020  -56.3110 O.3   702  ATP702     -0.2700
     13  O5'      -21.0810   64.6650  -56.5300 O.3   702  ATP702     -0.3112
     14  C5'      -21.6870   63.5520  -56.4880 C.3   702  ATP702      0.1813
     15  C4'      -22.4960   62.5350  -55.7680 C.3   702  ATP702      0.1821
     16  O4'      -23.7390   63.2210  -55.5050 O.3   702  ATP702     -0.3135
     17  C3'      -22.5530   61.5810  -56.8840 C.3   702  ATP702      0.2184
     18  O3'      -21.9550   60.3110  -56.6440 O.3   702  ATP702     -0.2174
     19  C2'      -24.0740   61.5390  -57.2420 C.3   702  ATP702      0.2570
     20  O2'      -24.6030   60.2530  -56.9940 O.3   702  ATP702     -0.2130
     21  C1'      -24.7650   62.6130  -56.3490 C.3   702  ATP702      0.3186
     22  N9       -25.4620   63.6720  -57.1010 N.pl3 702  ATP702     -0.1439
     23  C8       -24.9920   64.8710  -57.6620 C.3   702  ATP702      0.3377
     24  N7       -25.9110   65.5750  -58.2590 N.2   702  ATP702     -0.2095
     25  C5       -27.0470   64.7900  -58.0850 C.2   702  ATP702      0.2526
     26  C6       -28.4250   64.9590  -58.4720 C.2   702  ATP702      0.4393
     27  N6       -28.8290   66.0210  -59.1530 N.pl3 702  ATP702      0.2180
     28  N1       -29.3420   63.9680  -58.1290 N.2   702  ATP702      0.0021
     29  C2       -28.9520   62.8730  -57.4350 C.3   702  ATP702      0.5254
     30  N3       -27.6980   62.5990  -57.0120 N.2   702  ATP702     -0.0055
     31  C4       -26.7810   63.6410  -57.3770 C.2   702  ATP702      0.3518
@<TRIPOS>BOND
     1     2     1    2
     2    27    26    1
     3     3     1    1
     4     1     4    1
     5     1     8    1
     6    26    28    2
     7    26    25    1
     8    24    25    2
     9    24    23    1
    10    28    29    1
    11    25    31    1
    12    23    22    1
    13    29    30    1
    14    31    22    1
    15    31    30    2
    16    19    20    1
    17    19    17    1
    18    19    21    1
    19    10     9    2
    20    22    21    1
    21     8     5    1
    22    17    18    1
    23    17    15    1
    24    13    14    1
    25    13     9    1
    26    14    15    1
    27    21    16    1
    28     6     5    2
    29    12     9    1
    30    12     5    1
    31     9    11    1
    32     5     7    1
    33    15    16    1
