@<TRIPOS>MOLECULE
3jdw_ORN_A_1.pdb
 15 14 0 0 0
SMALL
GASTEIGER

@<TRIPOS>ATOM
      1  N         45.3460   72.9490   15.1450 N.4   500  ORN500      0.3888
      2  CA        44.3150   72.5380   16.1400 C.3   500  ORN500      0.0402
      3  CB        44.6570   71.1800   16.7980 C.3   500  ORN500     -0.0131
      4  CG        46.1290   70.8250   17.0110 C.3   500  ORN500     -0.0255
      5  CD        46.2630   69.2890   17.1560 C.3   500  ORN500     -0.0862
      6  NE        47.6880   68.7310   17.0320 N.4   500  ORN500      0.3804
      7  C         44.0600   73.6230   17.1850 C.2   500  ORN500      0.3448
      8  O         43.1520   73.4310   18.0170 O.co2 500  ORN500     -0.2480
      9  OXT       44.7150   74.6930   17.1210 O.co2 500  ORN500     -0.2480
     10  H         46.3050   72.7920   15.4810 H     500  ORN500     -0.0885
     11  HE1       48.1880   69.0840   17.8760 H     500  ORN500     -0.0894
     12  HE2       48.2240   69.1750   16.2600 H     500  ORN500     -0.0894
     13  HN2       45.2060   73.9800   15.1680 H     500  ORN500     -0.0885
     14  HN3       45.1490   72.5620   14.2020 H     500  ORN500     -0.0885
     15  HE3       47.7360   67.7000   17.0200 H     500  ORN500     -0.0894
@<TRIPOS>BOND
     1    14     1    1
     2     1    13    1
     3     1    10    1
     4     1     2    1
     5     2     3    1
     6     2     7    1
     7    12     6    1
     8     3     4    1
     9     4     5    1
    10    15     6    1
    11     6     5    1
    12     6    11    1
    13     9     7   ar
    14     7     8   ar
