@<TRIPOS>MOLECULE
3jpn_G2C_A_1.pdb
 33 35 0 0 0
SMALL
GASTEIGER

@<TRIPOS>ATOM
      1  N1         9.6760    8.8640    8.1090 N.2   338  G2C338     -0.2485
      2  C2         8.4090    8.9970    7.5770 C.1   338  G2C338      0.2531
      3  N2         8.3140    9.5410    6.3440 N.pl3 338  G2C338     -0.0226
      4  N3         7.3100    8.6370    8.2090 N.2   338  G2C338     -0.3074
      5  C4         7.5680    8.1490    9.4370 C.2   338  G2C338      0.2299
      6  C5         8.7830    7.9960   10.0680 C.2   338  G2C338      0.2182
      7  C6         9.9610    8.3570    9.3750 C.1   338  G2C338      0.2372
      8  O6        11.1250    8.2590    9.7500 O.2   338  G2C338     -0.2069
      9  N7         8.6160    7.4680   11.3410 N.2   338  G2C338     -0.2322
     10  C8         7.3260    7.2920   11.4480 C.3   338  G2C338      0.2245
     11  N9         6.6360    7.6620   10.3180 N.pl3 338  G2C338     -0.2374
     12  PA         5.1080    5.0720   14.6300 P.3   338  G2C338      0.2209
     13  PB         4.0470    2.7060   13.7270 P.3   338  G2C338      0.4073
     14  PG         3.9660    1.2190   16.4460 P.3   338  G2C338      0.1563
     15  C1'        5.2050    7.5270   10.0600 C.3   338  G2C338      0.1981
     16  O1A        4.0230    5.0120   15.6360 O.3   338  G2C338     -0.4371
     17  O1B        4.0220    2.2290   12.3220 O.2   338  G2C338     -0.2522
     18 CL1B        4.7030   -0.2350   14.0280 Cl    338  G2C338     -0.0797
     19  O1G        3.6170    2.5780   16.9210 O.3   338  G2C338     -0.3552
     20  C2'        4.8240    6.1140    9.6070 C.3   338  G2C338      0.0865
     21  O2A        6.5130    5.2030   15.0900 O.2   338  G2C338     -0.5170
     22  O2B        2.7720    3.1840   14.3250 O.3   338  G2C338     -0.1372
     23 CL2B        6.4850    1.7600   15.0970 Cl    338  G2C338     -0.0797
     24  O2G        4.7710    0.3390   17.3360 O.3   338  G2C338     -0.3552
     25  C3'        4.3970    5.4650   10.9090 C.3   338  G2C338      0.1857
     26  O3'        3.4880    4.3790   10.6730 O.3   338  G2C338     -0.2203
     27  O3A        4.9820    3.8900   13.6890 O.3   338  G2C338     -0.2468
     28  C3B        4.7770    1.3690   14.8100 C.3   338  G2C338      0.2721
     29  O3G        2.6700    0.5210   16.2940 O.2   338  G2C338     -0.4571
     30  C4'        3.6920    6.6270   11.6010 C.3   338  G2C338      0.1772
     31  O4'        4.5050    7.7750   11.2800 O.3   338  G2C338     -0.3347
     32  C5'        3.5320    6.5080   13.0980 C.3   338  G2C338      0.1812
     33  O5'        4.8040    6.3530   13.7290 O.3   338  G2C338     -0.3112
@<TRIPOS>BOND
     1     3     2    1
     2     2     1    2
     3     2     4    2
     4     1     7    2
     5     4     5    2
     6     7     8    2
     7     7     6    1
     8     5     6    1
     9     5    11    1
    10    20    15    1
    11    20    25    1
    12    15    11    1
    13    15    31    1
    14     6     9    2
    15    11    10    1
    16    26    25    1
    17    25    30    1
    18    31    30    1
    19     9    10    1
    20    30    32    1
    21    17    13    2
    22    32    33    1
    23    27    13    1
    24    27    12    1
    25    13    22    1
    26    13    28    1
    27    33    12    1
    28    18    28    1
    29    12    21    2
    30    12    16    1
    31    28    23    1
    32    28    14    1
    33    29    14    2
    34    14    19    1
    35    14    24    1
