@<TRIPOS>MOLECULE
3jpo_G1C_A_1.pdb
 32 34 0 0 0
SMALL
GASTEIGER

@<TRIPOS>ATOM
      1  N1         9.7590    8.8610    8.1390 N.2   338  G1C338     -0.2485
      2  C2         8.5140    8.9660    7.5670 C.1   338  G1C338      0.2531
      3  N2         8.4680    9.4650    6.3170 N.pl3 338  G1C338     -0.0226
      4  N3         7.3960    8.6120    8.1720 N.2   338  G1C338     -0.3074
      5  C4         7.6220    8.1430    9.4160 C.2   338  G1C338      0.2299
      6  C5         8.8220    8.0040   10.0800 C.2   338  G1C338      0.2182
      7  C6        10.0150    8.3760    9.4160 C.1   338  G1C338      0.2372
      8  O6        11.1760    8.3090    9.8280 O.2   338  G1C338     -0.2069
      9  N7         8.6260    7.4840   11.3510 N.2   338  G1C338     -0.2322
     10  C8         7.3330    7.3090   11.4320 C.3   338  G1C338      0.2245
     11  N9         6.6680    7.6720   10.2840 N.pl3 338  G1C338     -0.2374
     12  PA         5.0080    5.1530   14.6640 P.3   338  G1C338      0.2209
     13  PB         3.9810    2.8080   13.7420 P.3   338  G1C338      0.3954
     14  PG         3.8990    1.3250   16.5000 P.3   338  G1C338      0.1439
     15  C1'        5.2410    7.5480   10.0010 C.3   338  G1C338      0.1981
     16  O1A        3.8880    5.1080   15.6360 O.3   338  G1C338     -0.4371
     17  O1B        4.0190    2.4320   12.3060 O.2   338  G1C338     -0.2535
     18  O1G        3.6050    2.7100   16.9530 O.3   338  G1C338     -0.3559
     19  C2'        4.8780    6.1550    9.4790 C.3   338  G1C338      0.0865
     20  O2A        6.3900    5.3550   15.1630 O.2   338  G1C338     -0.5170
     21  O2B        2.7140    3.3480   14.2900 O.3   338  G1C338     -0.1381
     22  O2G        4.7790    0.4740   17.3420 O.3   338  G1C338     -0.3559
     23  C3'        4.4420    5.4500   10.7480 C.3   338  G1C338      0.1857
     24  O3'        3.5660    4.3540   10.4600 O.3   338  G1C338     -0.2203
     25  O3A        4.9990    3.9040   13.8280 O.3   338  G1C338     -0.2475
     26  C3B        4.5350    1.3640   14.7650 C.3   338  G1C338      0.2365
     27 CL3B        6.3210    1.4500   14.8740 Cl    338  G1C338     -0.0939
     28  O3G        2.5730    0.6600   16.5390 O.2   338  G1C338     -0.4583
     29  C4'        3.6970    6.5720   11.4570 C.3   338  G1C338      0.1772
     30  O4'        4.5200    7.7340   11.2210 O.3   338  G1C338     -0.3347
     31  C5'        3.4540    6.3760   12.9350 C.3   338  G1C338      0.1812
     32  O5'        4.6890    6.3410   13.6500 O.3   338  G1C338     -0.3112
@<TRIPOS>BOND
     1     3     2    1
     2     2     1    2
     3     2     4    2
     4     1     7    2
     5     4     5    2
     6     5     6    1
     7     5    11    1
     8     7     8    2
     9     7     6    1
    10    19    15    1
    11    19    23    1
    12    15    11    1
    13    15    30    1
    14     6     9    2
    15    11    10    1
    16    24    23    1
    17    23    29    1
    18    30    29    1
    19     9    10    1
    20    29    31    1
    21    17    13    2
    22    31    32    1
    23    32    12    1
    24    13    25    1
    25    13    21    1
    26    13    26    1
    27    25    12    1
    28    12    20    2
    29    12    16    1
    30    26    27    1
    31    26    14    1
    32    14    28    2
    33    14    18    1
    34    14    22    1
