@<TRIPOS>MOLECULE
3jpp_G1M_A_1.pdb
 32 34 0 0 0
SMALL
GASTEIGER

@<TRIPOS>ATOM
      1  N1         9.6960    8.8780    8.1000 N.2   338  G1M338     -0.2485
      2  C2         8.4340    8.9630    7.5640 C.1   338  G1M338      0.2531
      3  N2         8.3410    9.5090    6.3400 N.pl3 338  G1M338     -0.0226
      4  N3         7.3410    8.5530    8.1840 N.2   338  G1M338     -0.3074
      5  C4         7.6110    8.0680    9.4120 C.2   338  G1M338      0.2299
      6  C5         8.8300    7.9560   10.0460 C.2   338  G1M338      0.2182
      7  C6         9.9970    8.3730    9.3600 C.1   338  G1M338      0.2372
      8  O6        11.1710    8.3250    9.7410 O.2   338  G1M338     -0.2069
      9  N7         8.6780    7.4160   11.3160 N.2   338  G1M338     -0.2322
     10  C8         7.3950    7.2010   11.4230 C.3   338  G1M338      0.2245
     11  N9         6.6930    7.5590   10.2960 N.pl3 338  G1M338     -0.2374
     12  PA         4.9720    5.0380   14.6880 P.3   338  G1M338      0.2209
     13  PB         3.9340    2.7120   13.7540 P.3   338  G1M338      0.3804
     14  PG         3.8350    1.2150   16.5750 P.3   338  G1M338      0.1285
     15  C1'        5.2630    7.4020   10.0520 C.3   338  G1M338      0.1981
     16  O1A        3.8370    4.9790   15.6450 O.3   338  G1M338     -0.4371
     17  O1B        4.0090    2.1240   12.3910 O.2   338  G1M338     -0.2547
     18  O1G        3.4460    2.5960   16.9650 O.3   338  G1M338     -0.3567
     19  C2'        4.8950    5.9770    9.6240 C.3   338  G1M338      0.0865
     20  O2A        6.3550    5.1620   15.2130 O.2   338  G1M338     -0.5170
     21  O2B        2.6140    3.1240   14.2980 O.3   338  G1M338     -0.1392
     22  O2G        4.7730    0.4460   17.4320 O.3   338  G1M338     -0.3567
     23  C3'        4.4110    5.3630   10.9220 C.3   338  G1M338      0.1857
     24  O3'        3.4910    4.2930   10.6780 O.3   338  G1M338     -0.2203
     25  O3A        4.9140    3.8450   13.7750 O.3   338  G1M338     -0.2483
     26  C3B        4.6630    1.4130   14.9020 C.3   338  G1M338      0.1584
     27 C3B2        4.5360    0.0720   14.1980 C.3   338  G1M338      0.0207
     28  O3G        2.6000    0.4160   16.3880 O.2   338  G1M338     -0.4595
     29  C4'        3.7070    6.5500   11.5660 C.3   338  G1M338      0.1772
     30  O4'        4.5700    7.6660   11.2700 O.3   338  G1M338     -0.3347
     31  C5'        3.4670    6.4440   13.0530 C.3   338  G1M338      0.1812
     32  O5'        4.7030    6.3050   13.7570 O.3   338  G1M338     -0.3112
@<TRIPOS>BOND
     1     3     2    1
     2     2     1    2
     3     2     4    2
     4     1     7    2
     5     4     5    2
     6     7     8    2
     7     7     6    1
     8     5     6    1
     9     5    11    1
    10    19    15    1
    11    19    23    1
    12     6     9    2
    13    15    11    1
    14    15    30    1
    15    11    10    1
    16    24    23    1
    17    23    29    1
    18    30    29    1
    19     9    10    1
    20    29    31    1
    21    17    13    2
    22    31    32    1
    23    13    25    1
    24    13    21    1
    25    13    26    1
    26    32    12    1
    27    25    12    1
    28    27    26    1
    29    12    20    2
    30    12    16    1
    31    26    14    1
    32    28    14    2
    33    14    18    1
    34    14    22    1
