@<TRIPOS>MOLECULE
3jpq_GBR_A_1.pdb
 32 34 0 0 0
SMALL
GASTEIGER

@<TRIPOS>ATOM
      1  N1         9.7360    8.8490    8.1200 N.2   338  GBR338     -0.2485
      2  C2         8.4760    9.0100    7.5710 C.1   338  GBR338      0.2531
      3  N2         8.4180    9.5450    6.3390 N.pl3 338  GBR338     -0.0226
      4  N3         7.3520    8.6690    8.1980 N.2   338  GBR338     -0.3074
      5  C4         7.5860    8.1580    9.4340 C.2   338  GBR338      0.2299
      6  C5         8.7960    7.9640   10.0750 C.2   338  GBR338      0.2182
      7  C6        10.0000    8.3170    9.3870 C.1   338  GBR338      0.2372
      8  O6        11.1720    8.1930    9.7730 O.2   338  GBR338     -0.2069
      9  N7         8.6040    7.4200   11.3360 N.2   338  GBR338     -0.2322
     10  C8         7.3090    7.2840   11.4330 C.3   338  GBR338      0.2245
     11  N9         6.6360    7.6890   10.3020 N.pl3 338  GBR338     -0.2374
     12  PA         4.9940    5.1590   14.6750 P.3   338  GBR338      0.2209
     13  PB         3.9690    2.7700   13.8120 P.3   338  GBR338      0.3909
     14 BRB         5.0070   -0.2000   14.1310 Br    338  GBR338     -0.0606
     15  PG         3.9960    1.3660   16.6010 P.3   338  GBR338      0.1393
     16  C1'        5.2040    7.5920   10.0340 C.3   338  GBR338      0.1981
     17  O1A        3.8980    5.1680   15.6790 O.3   338  GBR338     -0.4371
     18  O1B        4.0050    2.2330   12.4260 O.2   338  GBR338     -0.2538
     19  O1G        3.3680    2.6530   16.9960 O.3   338  GBR338     -0.3562
     20  C2'        4.8070    6.1740    9.6250 C.3   338  GBR338      0.0865
     21  O2A        6.4030    5.1810   15.1400 O.2   338  GBR338     -0.5170
     22  O2B        2.6550    3.1820   14.3680 O.3   338  GBR338     -0.1384
     23  O2G        4.9450    0.7210   17.5500 O.3   338  GBR338     -0.3562
     24  C3'        4.4350    5.5650   10.9610 C.3   338  GBR338      0.1857
     25  O3'        3.5630    4.4450   10.7790 O.3   338  GBR338     -0.2203
     26  O3A        4.8080    4.0140   13.7080 O.3   338  GBR338     -0.2478
     27  C3B        4.7930    1.5740   14.9630 C.3   338  GBR338      0.2142
     28  O3G        2.8620    0.4190   16.4940 O.2   338  GBR338     -0.4586
     29  C4'        3.7080    6.7340   11.6130 C.3   338  GBR338      0.1772
     30  O4'        4.4960    7.8860   11.2390 O.3   338  GBR338     -0.3347
     31  C5'        3.5260    6.6770   13.1130 C.3   338  GBR338      0.1812
     32  O5'        4.7760    6.4540   13.7690 O.3   338  GBR338     -0.3112
@<TRIPOS>BOND
     1     3     2    1
     2     2     1    2
     3     2     4    2
     4     1     7    2
     5     4     5    2
     6     7     8    2
     7     7     6    1
     8     5     6    1
     9     5    11    1
    10    20    16    1
    11    20    24    1
    12    16    11    1
    13    16    30    1
    14     6     9    2
    15    11    10    1
    16    25    24    1
    17    24    29    1
    18    30    29    1
    19     9    10    1
    20    29    31    1
    21    18    13    2
    22    31    32    1
    23    26    13    1
    24    26    12    1
    25    32    12    1
    26    13    22    1
    27    13    27    1
    28    14    27    1
    29    12    21    2
    30    12    17    1
    31    27    15    1
    32    28    15    2
    33    15    19    1
    34    15    23    1
