@<TRIPOS>MOLECULE
3jpr_G2M_A_1.pdb
 33 35 0 0 0
SMALL
GASTEIGER

@<TRIPOS>ATOM
      1  N1         9.5540    8.8870    8.0540 N.2   338  G2M338     -0.2485
      2  C2         8.2870    8.9920    7.5190 C.1   338  G2M338      0.2531
      3  N2         8.1780    9.5620    6.3060 N.pl3 338  G2M338     -0.0226
      4  N3         7.2050    8.5850    8.1320 N.2   338  G2M338     -0.3074
      5  C4         7.4730    8.0920    9.3560 C.2   338  G2M338      0.2299
      6  C5         8.6860    7.9690    9.9920 C.2   338  G2M338      0.2182
      7  C6         9.8480    8.3730    9.3130 C.1   338  G2M338      0.2372
      8  O6        11.0160    8.3070    9.6920 O.2   338  G2M338     -0.2069
      9  N7         8.5260    7.4260   11.2600 N.2   338  G2M338     -0.2322
     10  C8         7.2430    7.2140   11.3590 C.3   338  G2M338      0.2245
     11  N9         6.5520    7.5700   10.2220 N.pl3 338  G2M338     -0.2374
     12  PA         4.9850    5.0680   14.5650 P.3   338  G2M338      0.2209
     13  PB         4.0380    2.6450   13.7210 P.3   338  G2M338      0.3794
     14  PG         3.9500    1.1200   16.4970 P.3   338  G2M338      0.1274
     15  C1'        5.1340    7.3800    9.9370 C.3   338  G2M338      0.1981
     16  O1A        3.8940    5.0110   15.5640 O.3   338  G2M338     -0.4371
     17  O1B        4.1070    2.0500   12.3630 O.2   338  G2M338     -0.2548
     18  O1G        3.5370    2.5040   16.8730 O.3   338  G2M338     -0.3567
     19  C2'        4.8330    5.9330    9.5400 C.3   338  G2M338      0.0865
     20  O2A        6.3860    5.2310   15.0360 O.2   338  G2M338     -0.5170
     21  O2B        2.7200    2.9960   14.2990 O.3   338  G2M338     -0.1392
     22  O2G        4.8510    0.3570   17.4020 O.3   338  G2M338     -0.3567
     23  C3'        4.4120    5.3250   10.8620 C.3   338  G2M338      0.1857
     24  O3'        3.5870    4.1650   10.6620 O.3   338  G2M338     -0.2203
     25  O3A        4.9160    3.8730   13.6510 O.3   338  G2M338     -0.2483
     26  C3B        4.8230    1.3690   14.8590 C.3   338  G2M338      0.1420
     27 C3B2        6.2350    1.8420   15.1750 C.3   338  G2M338      0.0196
     28 C3B3        4.8370    0.0200   14.1280 C.3   338  G2M338      0.0196
     29  O3G        2.7290    0.3220   16.2610 O.2   338  G2M338     -0.4595
     30  C4'        3.6200    6.4770   11.4690 C.3   338  G2M338      0.1772
     31  O4'        4.3900    7.6500   11.1240 O.3   338  G2M338     -0.3347
     32  C5'        3.4160    6.4300   12.9630 C.3   338  G2M338      0.1812
     33  O5'        4.6710    6.3260   13.6370 O.3   338  G2M338     -0.3112
@<TRIPOS>BOND
     1     3     2    1
     2     2     1    2
     3     2     4    2
     4     1     7    2
     5     4     5    2
     6     7     8    2
     7     7     6    1
     8     5     6    1
     9     5    11    1
    10    19    15    1
    11    19    23    1
    12    15    11    1
    13    15    31    1
    14     6     9    2
    15    11    10    1
    16    24    23    1
    17    23    30    1
    18    31    30    1
    19     9    10    1
    20    30    32    1
    21    17    13    2
    22    32    33    1
    23    33    12    1
    24    25    13    1
    25    25    12    1
    26    13    21    1
    27    13    26    1
    28    28    26    1
    29    12    20    2
    30    12    16    1
    31    26    27    1
    32    26    14    1
    33    29    14    2
    34    14    18    1
    35    14    22    1
