@<TRIPOS>MOLECULE
3jps_GFM_A_1.pdb
 33 35 0 0 0
SMALL
GASTEIGER

@<TRIPOS>ATOM
      1  N1         9.7970    8.7520    8.1260 N.2   338  GFM338     -0.2485
      2  C2         8.5380    8.9040    7.5820 C.1   338  GFM338      0.2531
      3  N2         8.4720    9.4340    6.3400 N.pl3 338  GFM338     -0.0226
      4  N3         7.4230    8.5670    8.2060 N.2   338  GFM338     -0.3074
      5  C4         7.6660    8.0730    9.4370 C.2   338  GFM338      0.2299
      6  C5         8.8790    7.8930   10.0710 C.2   338  GFM338      0.2182
      7  C6        10.0660    8.2340    9.3880 C.1   338  GFM338      0.2372
      8  O6        11.2390    8.1120    9.7750 O.2   338  GFM338     -0.2069
      9  N7         8.6970    7.3660   11.3400 N.2   338  GFM338     -0.2322
     10  C8         7.4050    7.2200   11.4430 C.3   338  GFM338      0.2245
     11  N9         6.7260    7.6090   10.3130 N.pl3 338  GFM338     -0.2374
     12  PA         5.0690    5.0380   14.7500 P.3   338  GFM338      0.2209
     13  PB         3.9210    2.7130   13.7890 P.3   338  GFM338      0.4091
     14  PG         3.7640    1.1000   16.4320 P.3   338  GFM338      0.1582
     15  C1'        5.2920    7.5040   10.0640 C.3   338  GFM338      0.1981
     16  O1A        3.9490    5.0520   15.7180 O.3   338  GFM338     -0.4371
     17  O1B        3.9510    2.2420   12.3790 O.2   338  GFM338     -0.2520
     18  O1G        3.6770    2.5310   16.8380 O.3   338  GFM338     -0.3550
     19  C2'        4.9000    6.1060    9.5850 C.3   338  GFM338      0.0865
     20  O2A        6.4640    5.1840   15.2560 O.2   338  GFM338     -0.5170
     21  O2B        2.6420    3.1740   14.3770 O.3   338  GFM338     -0.1370
     22  O2G        4.5480    0.1480   17.2560 O.3   338  GFM338     -0.3550
     23  C3'        4.5060    5.4310   10.8830 C.3   338  GFM338      0.1857
     24  O3'        3.6200    4.3250   10.6600 O.3   338  GFM338     -0.2203
     25  O3A        4.9990    3.7620   13.9340 O.3   338  GFM338     -0.2466
     26  C3B        4.4890    1.1670   14.7070 C.3   338  GFM338      0.2721
     27 F3B2        4.2330   -0.0150   14.0860 F     338  GFM338     -0.2200
     28 C3B3        6.0170    1.3060   14.8750 C.3   338  GFM338      0.0558
     29  O3G        2.3950    0.5640   16.2790 O.2   338  GFM338     -0.4569
     30  C4'        3.7850    6.5720   11.5830 C.3   338  GFM338      0.1772
     31  O4'        4.6100    7.7230   11.2990 O.3   338  GFM338     -0.3347
     32  C5'        3.5670    6.4000   13.0680 C.3   338  GFM338      0.1812
     33  O5'        4.8150    6.2610   13.7560 O.3   338  GFM338     -0.3112
@<TRIPOS>BOND
     1     3     2    1
     2     2     1    2
     3     2     4    2
     4     1     7    2
     5     4     5    2
     6     7     8    2
     7     7     6    1
     8     5     6    1
     9     5    11    1
    10    19    15    1
    11    19    23    1
    12    15    11    1
    13    15    31    1
    14     6     9    2
    15    11    10    1
    16    24    23    1
    17    23    30    1
    18    31    30    1
    19     9    10    1
    20    30    32    1
    21    17    13    2
    22    32    33    1
    23    33    12    1
    24    13    25    1
    25    13    21    1
    26    13    26    1
    27    25    12    1
    28    27    26    1
    29    26    28    1
    30    26    14    1
    31    12    20    2
    32    12    16    1
    33    29    14    2
    34    14    18    1
    35    14    22    1
