@<TRIPOS>MOLECULE
3jpt_GFC_A_1.pdb
 33 35 0 0 0
SMALL
GASTEIGER

@<TRIPOS>ATOM
      1  N1         9.7160    8.8250    8.1030 N.2   338  GFC338     -0.2485
      2  C2         8.4460    8.9670    7.5830 C.1   338  GFC338      0.2531
      3  N2         8.3440    9.5310    6.3590 N.pl3 338  GFC338     -0.0226
      4  N3         7.3530    8.5960    8.2170 N.2   338  GFC338     -0.3074
      5  C4         7.6250    8.0900    9.4380 C.2   338  GFC338      0.2299
      6  C5         8.8470    7.9230   10.0520 C.2   338  GFC338      0.2182
      7  C6        10.0110    8.2910    9.3560 C.1   338  GFC338      0.2372
      8  O6        11.1820    8.1750    9.7170 O.2   338  GFC338     -0.2069
      9  N7         8.6930    7.3740   11.3180 N.2   338  GFC338     -0.2322
     10  C8         7.4040    7.2070   11.4400 C.3   338  GFC338      0.2245
     11  N9         6.7020    7.6050   10.3260 N.pl3 338  GFC338     -0.2374
     12  PA         5.0570    5.0420   14.6650 P.3   338  GFC338      0.2210
     13  PB         3.9540    2.7040   13.7260 P.3   338  GFC338      0.4237
     14  PG         3.7950    1.1410   16.4160 P.3   338  GFC338      0.1738
     15  C1'        5.2670    7.5080   10.0940 C.3   338  GFC338      0.1981
     16  O1A        3.9560    5.0150   15.6520 O.3   338  GFC338     -0.4371
     17  O1B        3.9730    2.3260   12.2880 O.2   338  GFC338     -0.2507
     18  O1G        3.4940    2.5120   16.8990 O.3   338  GFC338     -0.3542
     19  C2'        4.8420    6.1170    9.6010 C.3   338  GFC338      0.0865
     20  O2A        6.4540    5.1620   15.1370 O.2   338  GFC338     -0.5170
     21  O2B        2.6890    3.2290   14.3030 O.3   338  GFC338     -0.1361
     22  O2G        4.6150    0.2480   17.2810 O.3   338  GFC338     -0.3542
     23  C3'        4.3830    5.4530   10.8850 C.3   338  GFC338      0.1857
     24  O3'        3.4390    4.4030   10.6280 O.3   338  GFC338     -0.2203
     25  O3A        4.9570    3.8240   13.7750 O.3   338  GFC338     -0.2458
     26  C3B        4.5430    1.2580   14.7420 C.3   338  GFC338      0.3365
     27  F3B        4.3510    0.0800   14.0940 F     338  GFC338     -0.2030
     28 CL3B        6.2870    1.4580   14.9590 Cl    338  GFC338     -0.0618
     29  O3G        2.4710    0.4790   16.3320 O.2   338  GFC338     -0.4556
     30  C4'        3.7210    6.6270   11.5990 C.3   338  GFC338      0.1772
     31  O4'        4.6040    7.7360   11.3370 O.3   338  GFC338     -0.3347
     32  C5'        3.5240    6.4690   13.0880 C.3   338  GFC338      0.1812
     33  O5'        4.7780    6.3130   13.7440 O.3   338  GFC338     -0.3111
@<TRIPOS>BOND
     1     3     2    1
     2     2     1    2
     3     2     4    2
     4     1     7    2
     5     4     5    2
     6     7     8    2
     7     7     6    1
     8     5     6    1
     9     5    11    1
    10    19    15    1
    11    19    23    1
    12     6     9    2
    13    15    11    1
    14    15    31    1
    15    11    10    1
    16    24    23    1
    17    23    30    1
    18     9    10    1
    19    31    30    1
    20    30    32    1
    21    17    13    2
    22    32    33    1
    23    13    25    1
    24    13    21    1
    25    13    26    1
    26    33    12    1
    27    25    12    1
    28    27    26    1
    29    12    20    2
    30    12    16    1
    31    26    28    1
    32    26    14    1
    33    29    14    2
    34    14    18    1
    35    14    22    1
