@<TRIPOS>MOLECULE
3jpu_TY4_A_1.pdb
 30 32 0 0 0
SMALL
GASTEIGER

@<TRIPOS>ATOM
      1  C1       -17.3870  -33.5940   21.3270 C.ar  174  TY4174      0.1424
      2  C2       -16.1960  -32.7700   21.0340 C.ar  174  TY4174      0.0130
      3  C3       -15.2870  -33.3080   20.1320 C.ar  174  TY4174      0.0054
      4  C4       -15.6150  -34.5150   19.5450 C.ar  174  TY4174      0.0342
      5  C5       -16.7230  -35.3220   19.8130 C.ar  174  TY4174      0.0072
      6  C6       -17.6540  -34.8640   20.7050 C.ar  174  TY4174      0.0343
      7  C7       -18.8910  -35.6200   21.0980 C.3   174  TY4174      0.1448
      8  N8       -19.4730  -36.3440   19.9840 N.am  174  TY4174     -0.1967
      9  C9       -19.2620  -37.6310   19.8060 C.2   174  TY4174      0.2659
     10  O10      -18.5090  -38.2050   20.5920 O.2   174  TY4174     -0.2683
     11  C11      -19.9290  -38.3830   18.6600 C.ar  174  TY4174      0.0656
     12  C12      -21.1190  -39.0560   18.7830 C.ar  174  TY4174      0.0054
     13  C13      -21.7200  -39.7430   17.7220 C.ar  174  TY4174      0.0002
     14  C14      -21.1520  -39.8160   16.4630 C.ar  174  TY4174      0.0009
     15  C15      -19.9610  -39.1290   16.2370 C.ar  174  TY4174      0.0115
     16  C16      -19.3420  -38.4150   17.2990 C.ar  174  TY4174      0.0621
     17 CL17      -17.8090  -37.5260   17.0330 Cl    174  TY4174     -0.0821
     18  C18      -16.0000  -31.4070   21.7150 C.3   174  TY4174      0.0342
     19 BR19      -14.4650  -35.2790   18.3010 Br    174  TY4174     -0.0490
     20  O20      -18.3390  -33.1990   22.1890 O.3   174  TY4174     -0.4216
     21  C21      -18.1360  -33.0310   23.5930 C.2   174  TY4174      0.3465
     22  O22      -17.0730  -33.2590   24.1370 O.2   174  TY4174     -0.2445
     23  C23      -19.3210  -32.5730   24.3070 C.ar  174  TY4174      0.0866
     24  C24      -20.5870  -33.0600   24.0040 C.ar  174  TY4174      0.0082
     25  C25      -21.6450  -32.5420   24.7450 C.ar  174  TY4174      0.0117
     26  C26      -21.4150  -31.6090   25.7480 C.ar  174  TY4174      0.0585
     27  C27      -20.1900  -31.0990   26.0660 C.ar  174  TY4174      0.0230
     28  C28      -19.1340  -31.5760   25.3540 C.ar  174  TY4174      0.0647
     29 CL29      -17.5450  -30.9500   25.7410 Cl    174  TY4174     -0.0820
     30 CL30      -22.6870  -30.8850   26.7350 Cl    174  TY4174     -0.0822
@<TRIPOS>BOND
     1    15    14   ar
     2    15    16   ar
     3    14    13   ar
     4    17    16    1
     5    16    11   ar
     6    13    12   ar
     7    19     4    1
     8    11    12   ar
     9    11     9    1
    10     4     5   ar
    11     4     3   ar
    12     9     8   am
    13     9    10    2
    14     5     6   ar
    15     8     7    1
    16     3     2   ar
    17     6     7    1
    18     6     1   ar
    19     2     1   ar
    20     2    18    1
    21     1    20    1
    22    20    21    1
    23    21    22    2
    24    21    23    1
    25    24    23   ar
    26    24    25   ar
    27    23    28   ar
    28    25    26   ar
    29    28    29    1
    30    28    27   ar
    31    26    27   ar
    32    26    30    1
