@<TRIPOS>MOLECULE
3jpv_1DR_A_1.pdb
 18 21 0 0 0
SMALL
GASTEIGER

@<TRIPOS>ATOM
      1  CAA       25.9580   47.7130   -0.6830 C.2   313  1DR313      0.1168
      2  CAB       25.5940   46.4990   -1.2530 C.2   313  1DR313      0.0282
      3  CAC       25.2090   45.4660   -0.4020 C.2   313  1DR313      0.0020
      4  CAD       25.1930   45.6560    0.9930 C.2   313  1DR313     -0.0038
      5  CAE       25.5530   46.8670    1.5720 C.2   313  1DR313     -0.0149
      6  CAF       25.9480   47.8800    0.7160 C.3   313  1DR313      0.0990
      7  CAG       26.3450   49.1820    0.9840 C.ar  313  1DR313      0.0193
      8  CAH       26.5880   49.7730   -0.2590 C.ar  313  1DR313      0.1452
      9  NAI       26.3300   48.8730   -1.2470 N.2   313  1DR313     -0.4044
     10  CAJ       26.4820   49.8850    2.1680 C.ar  313  1DR313     -0.0009
     11  CAK       26.9070   51.2190    2.1170 C.ar  313  1DR313      0.0015
     12  CAL       27.1570   51.8020    0.8720 C.ar  313  1DR313      0.0248
     13  CAM       27.0070   51.0860   -0.3080 C.ar  313  1DR313      0.1106
     14  CAN       27.5600   53.0660    0.4560 C.2   313  1DR313      0.0628
     15  CAO       27.6540   53.1220   -0.8770 C.2   313  1DR313      0.1022
     16  NAP       27.3050   51.8990   -1.3350 N.2   313  1DR313     -0.2412
     17  CAQ       27.8760   54.2070    1.4170 C.2   313  1DR313      0.2358
     18  OAR       27.6810   54.0410    2.6210 O.2   313  1DR313     -0.2831
@<TRIPOS>BOND
     1    16    15    1
     2    16    13    2
     3     2     1    1
     4     2     3    2
     5     9     1    2
     6     9     8    2
     7    15    14    2
     8     1     6    1
     9     3     4    1
    10    13     8   ar
    11    13    12   ar
    12     8     7   ar
    13    14    12    1
    14    14    17    1
    15     6     7    1
    16     6     5    1
    17    12    11   ar
    18     7    10   ar
    19     4     5    2
    20    17    18    2
    21    11    10   ar
