@<TRIPOS>MOLECULE
3jq3_ADP_A_1.pdb
 27 29 0 0 0
SMALL
GASTEIGER

@<TRIPOS>ATOM
      1  PB        12.9700   14.9730   18.1500 P.3   400  ADP400      0.5373
      2  O1B       11.8840   14.6280   19.1420 O.3   400  ADP400     -0.1143
      3  O2B       14.3280   15.2180   18.7590 O.3   400  ADP400     -0.1143
      4  O3B       12.9940   14.0810   16.9340 O.2   400  ADP400     -0.2221
      5  PA        12.0230   17.6210   18.4910 P.3   400  ADP400      0.2231
      6  O1A       11.4900   17.0580   19.7870 O.3   400  ADP400     -0.4370
      7  O2A       11.1480   18.5020   17.6300 O.2   400  ADP400     -0.5169
      8  O3A       12.5360   16.4080   17.5590 O.3   400  ADP400     -0.2261
      9  O5'       13.3630   18.4580   18.8030 O.3   400  ADP400     -0.3111
     10  C5'       14.1660   18.2050   19.9550 C.3   400  ADP400      0.1813
     11  C4'       15.2440   19.2800   20.0340 C.3   400  ADP400      0.1821
     12  O4'       16.2370   19.0700   19.0250 O.3   400  ADP400     -0.3135
     13  C3'       14.6590   20.6650   19.8040 C.3   400  ADP400      0.2184
     14  O3'       14.8390   21.4680   20.9750 O.3   400  ADP400     -0.2174
     15  C2'       15.4470   21.2660   18.6570 C.3   400  ADP400      0.2570
     16  O2'       15.9200   22.5700   19.0070 O.3   400  ADP400     -0.2130
     17  C1'       16.6140   20.3190   18.4410 C.3   400  ADP400      0.3186
     18  N9        16.9250   20.1660   16.9950 N.pl3 400  ADP400     -0.1439
     19  C8        16.1730   19.5270   16.0790 C.3   400  ADP400      0.3377
     20  N7        16.7530   19.5770   14.8500 N.2   400  ADP400     -0.2095
     21  C5        17.9060   20.2610   14.9690 C.2   400  ADP400      0.2526
     22  C6        19.0040   20.6770   14.0630 C.2   400  ADP400      0.4393
     23  N6        18.9930   20.3690   12.7430 N.pl3 400  ADP400      0.2180
     24  N1        20.0220   21.3810   14.6010 N.2   400  ADP400      0.0021
     25  C2        20.0530   21.7000   15.9100 C.3   400  ADP400      0.5254
     26  N3        19.0940   21.3540   16.7870 N.2   400  ADP400     -0.0055
     27  C4        18.0120   20.6470   16.3850 C.2   400  ADP400      0.3518
@<TRIPOS>BOND
     1    23    22    1
     2    22    24    2
     3    22    21    1
     4    24    25    1
     5    20    21    2
     6    20    19    1
     7    21    27    1
     8    25    26    1
     9    19    18    1
    10    27    26    2
    11    27    18    1
    12     4     1    2
    13    18    17    1
    14     8     1    1
    15     8     5    1
    16     7     5    2
    17     1     3    1
    18     1     2    1
    19    17    15    1
    20    17    12    1
    21     5     9    1
    22     5     6    1
    23    15    16    1
    24    15    13    1
    25     9    10    1
    26    12    11    1
    27    13    11    1
    28    13    14    1
    29    10    11    1
