@<TRIPOS>MOLECULE
3jq6_DX1_A_1.pdb
 18 19 0 0 0
SMALL
GASTEIGER

@<TRIPOS>ATOM
      1  C5         0.8140  -12.7740   44.7720 C.2   270  DX1270      0.1357
      2  N7         2.3710  -12.6070   42.9450 N.2   270  DX1270     -0.3394
      3  C2         2.0890   -9.3860   44.5670 C.2   270  DX1270      0.2739
      4  N1         2.9530   -8.6550   43.8200 N.2   270  DX1270     -0.3033
      5  C6         1.5110  -13.3450   43.7000 C.2   270  DX1270      0.1462
      6  N11        4.4770   -8.4530   42.0460 N.pl3 270  DX1270     -0.0226
      7  C10        3.6210   -9.2210   42.7730 C.1   270  DX1270      0.2528
      8  N12        1.4150   -8.8450   45.6020 N.pl3 270  DX1270     -0.0887
      9  N9         3.4300  -10.5430   42.4680 N.2   270  DX1270     -0.2562
     10  C8         2.5730  -11.2940   43.2070 C.1   270  DX1270      0.1851
     11  C16        1.3330  -14.7800   43.3510 C.3   270  DX1270      0.0557
     12  C17        0.1180  -14.8710   42.4500 C.3   270  DX1270      0.0075
     13  C18        2.6020  -15.3120   42.6840 C.3   270  DX1270      0.0075
     14  N4         1.0300  -11.4610   45.0340 N.2   270  DX1270     -0.3879
     15  C3         1.8850  -10.7260   44.2740 C.2   270  DX1270      0.2639
     16  C13       -0.1380  -13.5730   45.6110 C.3   270  DX1270      0.0548
     17  C14        0.4370  -13.9400   46.9720 C.3   270  DX1270      0.0075
     18  C15       -1.4630  -12.8550   45.8140 C.3   270  DX1270      0.0075
@<TRIPOS>BOND
     1     6     7    1
     2    12    11    1
     3     9     7    2
     4     9    10    2
     5    13    11    1
     6     7     4    2
     7     2    10    2
     8     2     5    2
     9    10    15    1
    10    11     5    1
    11     5     1    1
    12     4     3    2
    13    15     3    1
    14    15    14    2
    15     3     8    1
    16     1    14    2
    17     1    16    1
    18    16    18    1
    19    16    17    1
