@<TRIPOS>MOLECULE
3jq6_NAP_A_1.pdb
 48 52 0 0 0
SMALL
GASTEIGER

@<TRIPOS>ATOM
      1  PA         4.6510   -9.7090   38.4050 P.3   269  NAP269      0.2189
      2  O1A        4.3950  -10.6810   37.3300 O.2   269  NAP269     -0.5170
      3  O2A        5.0580  -10.2760   39.7170 O.3   269  NAP269     -0.4371
      4  O5B        5.7180   -8.6310   37.9340 O.3   269  NAP269     -0.3112
      5  C5B        5.3930   -7.7730   36.8660 C.3   269  NAP269      0.1813
      6  C4B        6.6950   -7.4100   36.1770 C.3   269  NAP269      0.1820
      7  O4B        7.5190   -6.6920   37.0520 O.3   269  NAP269     -0.3136
      8  C3B        7.5380   -8.5940   35.7520 C.3   269  NAP269      0.2157
      9  O3B        7.0330   -9.1300   34.5460 O.3   269  NAP269     -0.2175
     10  C2B        8.9100   -7.9400   35.6420 C.3   269  NAP269      0.2314
     11  O2B        9.3120   -7.7550   34.2980 O.3   269  NAP269     -0.2630
     12  C1B        8.7410   -6.6010   36.3940 C.3   269  NAP269      0.3158
     13  N9A        9.8940   -6.4900   37.2900 N.pl3 269  NAP269     -0.1439
     14  C8A       10.2450   -7.2980   38.3480 C.3   269  NAP269      0.3377
     15  N7A       11.4290   -6.8490   38.8230 N.2   269  NAP269     -0.2095
     16  C5A       11.8240   -5.7800   38.0690 C.2   269  NAP269      0.2526
     17  C6A       12.9510   -4.9570   38.0830 C.2   269  NAP269      0.4393
     18  N6A       13.9200   -5.1040   38.9850 N.pl3 269  NAP269      0.2180
     19  N1A       13.0380   -3.9360   37.1640 N.2   269  NAP269      0.0021
     20  C2A       12.0580   -3.7260   36.2140 C.3   269  NAP269      0.5254
     21  N3A       10.9270   -4.5250   36.1930 N.2   269  NAP269     -0.0055
     22  C4A       10.8570   -5.5580   37.0950 C.2   269  NAP269      0.3518
     23  O3         3.3010   -8.8970   38.6280 O.3   269  NAP269     -0.2703
     24  PN         1.7510   -9.2930   38.5330 P.3   269  NAP269      0.2189
     25  O1N        1.3750   -9.2170   37.1130 O.2   269  NAP269     -0.5170
     26  O2N        1.4920  -10.4790   39.3600 O.3   269  NAP269     -0.4371
     27  O5D        1.0850   -8.0540   39.3020 O.3   269  NAP269     -0.3112
     28  C5D        0.9250   -6.7930   38.6800 C.3   269  NAP269      0.1813
     29  C4D        0.9200   -5.7090   39.7450 C.3   269  NAP269      0.1799
     30  O4D       -0.1680   -6.0110   40.6150 O.3   269  NAP269     -0.3327
     31  C3D        2.1920   -5.6370   40.6060 C.3   269  NAP269      0.2158
     32  O3D        2.4330   -4.2740   40.9210 O.3   269  NAP269     -0.2175
     33  C2D        1.7810   -6.4120   41.8510 C.3   269  NAP269      0.2309
     34  O2D        2.4910   -6.0400   43.0250 O.3   269  NAP269     -0.2158
     35  C1D        0.2920   -6.0600   41.9450 C.3   269  NAP269      0.2263
     36  N1N       -0.4090   -7.1030   42.6990 N.pl3 269  NAP269     -0.2787
     37  C2N       -0.5670   -8.3310   42.1260 C.3   269  NAP269      0.1244
     38  C3N       -1.1940   -9.3270   42.8440 C.2   269  NAP269      0.0544
     39  C7N       -1.3720  -10.6640   42.2160 C.2   269  NAP269      0.2818
     40  O7N       -2.1370  -11.6070   42.9000 O.2   269  NAP269     -0.2670
     41  N7N       -0.7910  -10.9460   41.0340 N.am  269  NAP269     -0.0839
     42  C4N       -1.6640   -9.0680   44.1330 C.2   269  NAP269      0.0033
     43  C5N       -1.5100   -7.8070   44.7090 C.2   269  NAP269      0.0157
     44  C6N       -0.8620   -6.8260   43.9740 C.2   269  NAP269      0.0633
     45  P2B       10.0420   -8.8910   33.4090 P.3   269  NAP269      0.5328
     46  O1X       10.1550   -8.2920   32.0260 O.2   269  NAP269     -0.2224
     47  O2X        9.1560  -10.1090   33.3590 O.3   269  NAP269     -0.1145
     48  O3X       11.4090   -9.2130   33.9690 O.3   269  NAP269     -0.1145
@<TRIPOS>BOND
     1    46    45    2
     2    47    45    1
     3    45    48    1
     4    45    11    1
     5    11    10    1
     6     9     8    1
     7    10     8    1
     8    10    12    1
     9     8     6    1
    10     6     5    1
    11     6     7    1
    12    21    20    1
    13    21    22    2
    14    20    19    1
    15    12     7    1
    16    12    13    1
    17     5     4    1
    18    22    13    1
    19    22    16    1
    20    25    24    2
    21    19    17    2
    22    13    14    1
    23     2     1    2
    24     4     1    1
    25    16    17    1
    26    16    15    2
    27    17    18    1
    28    14    15    1
    29     1    23    1
    30     1     3    1
    31    24    23    1
    32    24    27    1
    33    24    26    1
    34    28    27    1
    35    28    29    1
    36    29    31    1
    37    29    30    1
    38    31    32    1
    39    31    33    1
    40    30    35    1
    41    41    39   am
    42    33    35    1
    43    33    34    1
    44    35    36    1
    45    37    36    1
    46    37    38    1
    47    39    38    1
    48    39    40    2
    49    36    44    1
    50    38    42    2
    51    44    43    2
    52    42    43    1
