@<TRIPOS>MOLECULE
3jq7_DX2_A_1.pdb
 19 21 0 0 0
SMALL
GASTEIGER

@<TRIPOS>ATOM
      1  C4         8.3350   -9.5310   14.8690 C.2   271  DX2271      0.2739
      2  C6         7.8150  -13.0070   13.9630 C.2   271  DX2271      0.1575
      3  C7         9.1360  -13.3600   13.6130 C.2   271  DX2271      0.2567
      4  N1        10.8630  -10.2350   14.1350 N.2   271  DX2271     -0.2562
      5  N2        11.5690   -8.0470   14.6000 N.pl3 271  DX2271     -0.0226
      6  N3         9.3380   -8.6160   14.9330 N.2   271  DX2271     -0.3033
      7  CAG        5.4890  -13.2700   14.4470 C.3   271  DX2271      0.0328
      8  CAE        4.2740  -14.0060   14.5020 C.2   271  DX2271     -0.0303
      9  CAD        4.0900  -15.3630   14.1610 C.2   271  DX2271     -0.0307
     10  CAF        5.2090  -16.0570   13.7810 C.3   271  DX2271      0.0261
     11  CAH        6.2580  -15.0960   13.5190 C.3   271  DX2271      0.0121
     12  CAN        6.7160  -13.8570   14.1690 C.3   271  DX2271      0.0612
     13  N5         7.6020  -11.7350   14.4010 N.2   271  DX2271     -0.3861
     14  C4A        8.6000  -10.8220   14.4420 C.2   271  DX2271      0.2640
     15  N4         7.0750   -9.2460   15.2520 N.pl3 271  DX2271     -0.0887
     16  C2        10.5910   -8.9690   14.5560 C.1   271  DX2271      0.2528
     17  C8A        9.8900  -11.1620   14.0590 C.1   271  DX2271      0.1867
     18  N8        10.1380  -12.4180   13.6300 N.2   271  DX2271     -0.3163
     19  NAB        9.4630  -14.5990   13.1720 N.pl3 271  DX2271     -0.0897
@<TRIPOS>BOND
     1    19     3    1
     2    11    10    1
     3    11    12    1
     4     3    18    2
     5     3     2    1
     6    18    17    2
     7    10     9    1
     8     2    12    1
     9     2    13    2
    10    17     4    2
    11    17    14    1
    12     4    16    2
    13     9     8    2
    14    12     7    1
    15    13    14    2
    16    14     1    1
    17     7     8    1
    18    16     5    1
    19    16     6    2
    20     1     6    2
    21     1    15    1
