@<TRIPOS>MOLECULE
3jq7_NAP_A_1.pdb
 48 52 0 0 0
SMALL
GASTEIGER

@<TRIPOS>ATOM
      1  PA        13.8240   -9.6490   11.8850 P.3   269  NAP269      0.2189
      2  O1A       14.3430  -10.5940   10.8930 O.2   269  NAP269     -0.5170
      3  O2A       13.4150  -10.2600   13.1770 O.3   269  NAP269     -0.4371
      4  O5B       14.8620   -8.4350   12.1000 O.3   269  NAP269     -0.3112
      5  C5B       15.2960   -7.6910   10.9700 C.3   269  NAP269      0.1813
      6  C4B       16.7080   -7.1830   11.2420 C.3   269  NAP269      0.1820
      7  O4B       16.7740   -6.4980   12.4620 O.3   269  NAP269     -0.3136
      8  C3B       17.7120   -8.3050   11.4640 C.3   269  NAP269      0.2157
      9  O3B       18.1070   -8.7600   10.2010 O.3   269  NAP269     -0.2175
     10  C2B       18.8200   -7.6050   12.2640 C.3   269  NAP269      0.2314
     11  O2B       20.0010   -7.3810   11.4880 O.3   269  NAP269     -0.2630
     12  C1B       18.1310   -6.2900   12.7230 C.3   269  NAP269      0.3158
     13  N9A       18.4800   -6.1120   14.1380 N.pl3 269  NAP269     -0.1439
     14  C8A       18.1590   -6.9260   15.2110 C.3   269  NAP269      0.3377
     15  N7A       18.7980   -6.4490   16.3130 N.2   269  NAP269     -0.2095
     16  C5A       19.5480   -5.3720   15.9430 C.2   269  NAP269      0.2526
     17  C6A       20.3940   -4.5070   16.6480 C.2   269  NAP269      0.4393
     18  N6A       20.6210   -4.6310   17.9590 N.pl3 269  NAP269      0.2180
     19  N1A       21.0120   -3.4960   15.9500 N.2   269  NAP269      0.0021
     20  C2A       20.7940   -3.2980   14.5930 C.3   269  NAP269      0.5254
     21  N3A       19.9570   -4.1450   13.8880 N.2   269  NAP269     -0.0055
     22  C4A       19.3590   -5.1650   14.5710 C.2   269  NAP269      0.3518
     23  O3        12.6070   -8.8700   11.2290 O.3   269  NAP269     -0.2703
     24  PN        11.4280   -9.3270   10.2120 P.3   269  NAP269      0.2189
     25  O1N       11.9540   -9.2950    8.8250 O.2   269  NAP269     -0.5170
     26  O2N       10.8270  -10.5730   10.7830 O.3   269  NAP269     -0.4371
     27  O5D       10.3480   -8.1850   10.3710 O.3   269  NAP269     -0.3112
     28  C5D       10.5520   -6.9760    9.6720 C.3   269  NAP269      0.1813
     29  C4D        9.8940   -5.8260   10.4470 C.3   269  NAP269      0.1799
     30  O4D        8.5070   -6.1080   10.4710 O.3   269  NAP269     -0.3327
     31  C3D       10.3510   -5.7100   11.9110 C.3   269  NAP269      0.2158
     32  O3D       10.3110   -4.3590   12.2720 O.3   269  NAP269     -0.2175
     33  C2D        9.2490   -6.4230   12.6600 C.3   269  NAP269      0.2309
     34  O2D        9.0580   -6.0590   14.0170 O.3   269  NAP269     -0.2158
     35  C1D        8.0170   -6.1430   11.7980 C.3   269  NAP269      0.2263
     36  N1N        7.0660   -7.2710   11.9530 N.pl3 269  NAP269     -0.2787
     37  C2N        7.4020   -8.5010   11.4330 C.3   269  NAP269      0.1244
     38  C3N        6.5340   -9.5870   11.5860 C.2   269  NAP269      0.0544
     39  C7N        6.8600  -10.9400   11.0240 C.2   269  NAP269      0.2818
     40  O7N        5.7620  -11.8050   10.9300 O.2   269  NAP269     -0.2670
     41  N7N        8.1050  -11.3240   10.6510 N.am  269  NAP269     -0.0839
     42  C4N        5.3140   -9.4090   12.2660 C.2   269  NAP269      0.0033
     43  C5N        4.9830   -8.1350   12.7880 C.2   269  NAP269      0.0157
     44  C6N        5.8830   -7.0680   12.6320 C.2   269  NAP269      0.0633
     45  P2B       21.1930   -8.4660   11.2730 P.3   269  NAP269      0.5328
     46  O1X       22.1500   -7.8380   10.2830 O.2   269  NAP269     -0.2224
     47  O2X       20.5760   -9.7480   10.7600 O.3   269  NAP269     -0.1145
     48  O3X       21.8460   -8.8170   12.5980 O.3   269  NAP269     -0.1145
@<TRIPOS>BOND
     1    25    24    2
     2    28    27    1
     3    28    29    1
     4     9     8    1
     5    24    27    1
     6    24    26    1
     7    24    23    1
     8    46    45    2
     9    29    30    1
    10    29    31    1
    11    30    35    1
    12    41    39   am
    13    47    45    1
    14     2     1    2
    15    40    39    2
    16     5     6    1
    17     5     4    1
    18    39    38    1
    19    23     1    1
    20     6     8    1
    21     6     7    1
    22    45    11    1
    23    45    48    1
    24    37    38    1
    25    37    36    1
    26     8    10    1
    27    11    10    1
    28    38    42    2
    29    35    36    1
    30    35    33    1
    31     1     4    1
    32     1     3    1
    33    31    32    1
    34    31    33    1
    35    36    44    1
    36    10    12    1
    37    42    43    1
    38     7    12    1
    39    44    43    2
    40    33    34    1
    41    12    13    1
    42    21    22    2
    43    21    20    1
    44    13    22    1
    45    13    14    1
    46    22    16    1
    47    20    19    1
    48    14    15    1
    49    16    15    2
    50    16    17    1
    51    19    17    2
    52    17    18    1
