@<TRIPOS>MOLECULE
3jq8_DX3_A_1.pdb
 15 16 0 0 0
SMALL
GASTEIGER

@<TRIPOS>ATOM
      1  C4         3.6170  -11.3040   43.0230 C.1   270  DX3270      0.1313
      2  C5         2.7760  -10.8990   44.0560 C.2   270  DX3270      0.2517
      3  C6         2.7470   -9.5490   44.3960 C.2   270  DX3270      0.2728
      4  N1         3.5270   -8.6800   43.7310 N.2   270  DX3270     -0.3033
      5  N3         4.3730  -10.3960   42.3900 N.2   270  DX3270     -0.2684
      6  NAI        3.6910  -12.6470   42.6470 N.2   270  DX3270     -0.2047
      7  CAO        2.7470  -13.6530   43.1900 C.3   270  DX3270      0.1370
      8  CAB        3.5470  -14.8860   43.6300 C.3   270  DX3270      0.0321
      9  CAC        1.8010  -13.9980   42.0440 C.3   270  DX3270      0.0321
     10  CAJ        1.9390  -13.0860   44.3830 C.2   270  DX3270      0.1088
     11  CAA        1.0250  -13.9870   45.2280 C.3   270  DX3270      0.0635
     12  NAF        2.0100  -11.7860   44.7150 N.2   270  DX3270     -0.3936
     13  C2         4.3270   -9.1000   42.7340 C.1   270  DX3270      0.2519
     14  NAD        5.0910   -8.2320   42.0820 N.pl3 270  DX3270     -0.0226
     15  NAE        1.9570   -9.1200   45.3760 N.pl3 270  DX3270     -0.0887
@<TRIPOS>BOND
     1     9     7    1
     2    14    13    1
     3     5    13    2
     4     5     1    2
     5     6     1    2
     6     6     7    1
     7    13     4    2
     8     1     2    1
     9     7     8    1
    10     7    10    1
    11     4     3    2
    12     2     3    1
    13     2    12    2
    14    10    12    2
    15    10    11    1
    16     3    15    1
