@<TRIPOS>MOLECULE
3jq8_NAP_A_1.pdb
 48 52 0 0 0
SMALL
GASTEIGER

@<TRIPOS>ATOM
      1  PA         5.0910   -9.6810   38.5570 P.3   269  NAP269      0.2189
      2  O1A        4.8010  -10.6500   37.4780 O.2   269  NAP269     -0.5170
      3  O2A        5.5840  -10.3620   39.7750 O.3   269  NAP269     -0.4371
      4  O5B        6.1480   -8.5950   38.0440 O.3   269  NAP269     -0.3112
      5  C5B        5.8560   -7.8110   36.9170 C.3   269  NAP269      0.1813
      6  C4B        7.1450   -7.4340   36.2020 C.3   269  NAP269      0.1820
      7  O4B        7.9950   -6.6680   37.0240 O.3   269  NAP269     -0.3136
      8  C3B        8.0050   -8.6200   35.7790 C.3   269  NAP269      0.2157
      9  O3B        7.5510   -9.1910   34.5740 O.3   269  NAP269     -0.2175
     10  C2B        9.3870   -7.9930   35.6520 C.3   269  NAP269      0.2314
     11  O2B        9.7810   -7.7870   34.3090 O.3   269  NAP269     -0.2630
     12  C1B        9.2430   -6.6450   36.3630 C.3   269  NAP269      0.3158
     13  N9A       10.4070   -6.4560   37.2500 N.pl3 269  NAP269     -0.1439
     14  C8A       10.7600   -7.1820   38.3630 C.3   269  NAP269      0.3377
     15  N7A       11.9180   -6.6800   38.8570 N.2   269  NAP269     -0.2095
     16  C5A       12.3120   -5.6510   38.0650 C.2   269  NAP269      0.2526
     17  C6A       13.4070   -4.7960   38.0910 C.2   269  NAP269      0.4393
     18  N6A       14.3320   -4.8980   39.0410 N.pl3 269  NAP269      0.2180
     19  N1A       13.5290   -3.8160   37.1320 N.2   269  NAP269      0.0021
     20  C2A       12.5820   -3.6810   36.1360 C.3   269  NAP269      0.5254
     21  N3A       11.5020   -4.5380   36.1080 N.2   269  NAP269     -0.0055
     22  C4A       11.3690   -5.5040   37.0530 C.2   269  NAP269      0.3518
     23  O3         3.7590   -8.8300   38.8610 O.3   269  NAP269     -0.2703
     24  PN         2.2200   -9.2270   38.6220 P.3   269  NAP269      0.2189
     25  O1N        1.9630   -9.2260   37.1670 O.2   269  NAP269     -0.5170
     26  O2N        1.9660  -10.4410   39.4260 O.3   269  NAP269     -0.4371
     27  O5D        1.3980   -8.0100   39.2880 O.3   269  NAP269     -0.3112
     28  C5D        1.3440   -6.7210   38.7060 C.3   269  NAP269      0.1813
     29  C4D        1.3470   -5.6350   39.7850 C.3   269  NAP269      0.1799
     30  O4D        0.2800   -5.8370   40.7020 O.3   269  NAP269     -0.3327
     31  C3D        2.6390   -5.6350   40.5880 C.3   269  NAP269      0.2158
     32  O3D        3.0420   -4.3100   40.8420 O.3   269  NAP269     -0.2175
     33  C2D        2.2360   -6.3210   41.8720 C.3   269  NAP269      0.2309
     34  O2D        2.9890   -5.9600   43.0040 O.3   269  NAP269     -0.2158
     35  C1D        0.7740   -5.9470   42.0260 C.3   269  NAP269      0.2263
     36  N1N        0.0860   -7.0060   42.7800 N.pl3 269  NAP269     -0.2787
     37  C2N       -0.0720   -8.2380   42.2120 C.3   269  NAP269      0.1244
     38  C3N       -0.7160   -9.2510   42.9020 C.2   269  NAP269      0.0544
     39  C7N       -0.8770  -10.5940   42.2560 C.2   269  NAP269      0.2818
     40  O7N       -1.6790  -11.5690   42.8870 O.2   269  NAP269     -0.2670
     41  N7N       -0.2470  -10.8320   41.0980 N.am  269  NAP269     -0.0839
     42  C4N       -1.1960   -9.0030   44.1840 C.2   269  NAP269      0.0033
     43  C5N       -1.0320   -7.7480   44.7600 C.2   269  NAP269      0.0157
     44  C6N       -0.3790   -6.7500   44.0440 C.2   269  NAP269      0.0633
     45  P2B       10.5600   -8.9070   33.4420 P.3   269  NAP269      0.5328
     46  O1X       10.8130   -8.3060   32.0820 O.2   269  NAP269     -0.2224
     47  O2X        9.6900  -10.1280   33.3190 O.3   269  NAP269     -0.1145
     48  O3X       11.8680   -9.2960   34.0870 O.3   269  NAP269     -0.1145
@<TRIPOS>BOND
     1    46    45    2
     2    47    45    1
     3    45    48    1
     4    45    11    1
     5    11    10    1
     6     9     8    1
     7    10     8    1
     8    10    12    1
     9     8     6    1
    10    21    20    1
    11    21    22    2
    12    20    19    1
    13     6     5    1
    14     6     7    1
    15    12     7    1
    16    12    13    1
    17     5     4    1
    18    22    13    1
    19    22    16    1
    20    19    17    2
    21    25    24    2
    22    13    14    1
    23     2     1    2
    24     4     1    1
    25    16    17    1
    26    16    15    2
    27    17    18    1
    28    14    15    1
    29     1    23    1
    30     1     3    1
    31    24    23    1
    32    24    27    1
    33    24    26    1
    34    28    27    1
    35    28    29    1
    36    29    31    1
    37    29    30    1
    38    31    32    1
    39    31    33    1
    40    30    35    1
    41    41    39   am
    42    33    35    1
    43    33    34    1
    44    35    36    1
    45    37    36    1
    46    37    38    1
    47    39    40    2
    48    39    38    1
    49    36    44    1
    50    38    42    2
    51    44    43    2
    52    42    43    1
