@<TRIPOS>MOLECULE
3jq9_AX1_A_1.pdb
 22 25 0 0 0
SMALL
GASTEIGER

@<TRIPOS>ATOM
      1  CAG        0.0260  -10.0450   48.4770 C.ar  270  AX1270      0.0428
      2  CAQ       -0.8300  -10.3590   49.5370 C.ar  270  AX1270      0.1765
      3  OAM       -1.0040   -9.7890   50.7620 O.3   270  AX1270     -0.4346
      4  CAH       -1.5840  -10.8460   51.5460 C.3   270  AX1270      0.4294
      5  OAL       -2.4200  -11.5250   50.5990 O.3   270  AX1270     -0.4346
      6  CAP       -1.7120  -11.4400   49.4410 C.ar  270  AX1270      0.1764
      7  CAF       -1.7450  -12.2110   48.2850 C.ar  270  AX1270      0.0403
      8  CAE       -0.8930  -11.8900   47.2330 C.ar  270  AX1270      0.0059
      9  CAO        0.0000  -10.8130   47.3100 C.ar  270  AX1270      0.0345
     10  CAS        0.8620  -10.5150   46.2420 C.2   270  AX1270      0.1549
     11  NAK        1.4530   -9.3570   45.9270 N.2   270  AX1270     -0.3379
     12  CAU        2.2120   -9.5030   44.8300 C.1   270  AX1270      0.1637
     13  NAI        2.9830   -8.6340   44.1410 N.2   270  AX1270     -0.2576
     14  CAN        3.6680   -9.0170   43.0440 C.1   270  AX1270      0.2616
     15  NAB        4.4220   -8.1470   42.3810 N.pl3 270  AX1270     -0.0220
     16  NAJ        3.6030  -10.3390   42.5860 N.2   270  AX1270     -0.2489
     17  CAT        2.8150  -11.2560   43.2760 C.1   270  AX1270      0.2281
     18  OAC        2.7470  -12.4210   42.8830 O.2   270  AX1270     -0.2078
     19  CAV        2.1200  -10.8300   44.4050 C.2   270  AX1270      0.1932
     20  CAR        1.2690  -11.4530   45.3010 C.2   270  AX1270      0.1223
     21  CAD        0.8840  -12.8320   45.2610 C.1   270  AX1270      0.1046
     22  NAA        0.5660  -13.9250   45.2420 N.1   270  AX1270     -0.1907
@<TRIPOS>BOND
     1    15    14    1
     2    16    14    2
     3    16    17    2
     4    18    17    2
     5    14    13    2
     6    17    19    1
     7    13    12    2
     8    19    12    1
     9    19    20    2
    10    12    11    2
    11    22    21    3
    12    21    20    1
    13    20    10    1
    14    11    10    2
    15    10     9    1
    16     8     9   ar
    17     8     7   ar
    18     9     1   ar
    19     7     6   ar
    20     1     2   ar
    21     6     2   ar
    22     6     5    1
    23     2     3    1
    24     5     4    1
    25     3     4    1
