@<TRIPOS>MOLECULE
3jq9_NAP_A_1.pdb
 48 52 0 0 0
SMALL
GASTEIGER

@<TRIPOS>ATOM
      1  PA         4.6580  -10.0280   39.0750 P.3   269  NAP269      0.2189
      2  O1A        4.2780  -11.0450   38.0690 O.2   269  NAP269     -0.5170
      3  O2A        5.1400  -10.6580   40.3260 O.3   269  NAP269     -0.4371
      4  O5B        5.7840   -9.0220   38.5220 O.3   269  NAP269     -0.3112
      5  C5B        5.4690   -7.9310   37.6830 C.3   269  NAP269      0.1813
      6  C4B        6.6390   -7.5800   36.7580 C.3   269  NAP269      0.1820
      7  O4B        7.5500   -6.6970   37.3830 O.3   269  NAP269     -0.3136
      8  C3B        7.4690   -8.7780   36.3140 C.3   269  NAP269      0.2157
      9  O3B        6.9310   -9.3740   35.1500 O.3   269  NAP269     -0.2175
     10  C2B        8.8480   -8.1860   36.0840 C.3   269  NAP269      0.2314
     11  O2B        9.1490   -8.0430   34.7070 O.3   269  NAP269     -0.2630
     12  C1B        8.8110   -6.8150   36.7560 C.3   269  NAP269      0.3158
     13  N9A        9.9610   -6.7150   37.6830 N.pl3 269  NAP269     -0.1439
     14  C8A       10.2820   -7.5760   38.7050 C.3   269  NAP269      0.3377
     15  N7A       11.4270   -7.1500   39.2930 N.2   269  NAP269     -0.2095
     16  C5A       11.8530   -6.0350   38.6540 C.2   269  NAP269      0.2526
     17  C6A       12.9600   -5.2040   38.8380 C.2   269  NAP269      0.4393
     18  N6A       13.8450   -5.4500   39.8060 N.pl3 269  NAP269      0.2180
     19  N1A       13.1280   -4.1030   38.0150 N.2   269  NAP269      0.0021
     20  C2A       12.2110   -3.8380   37.0090 C.3   269  NAP269      0.5254
     21  N3A       11.1240   -4.6720   36.8290 N.2   269  NAP269     -0.0055
     22  C4A       10.9420   -5.7530   37.6370 C.2   269  NAP269      0.3518
     23  O3         3.3680   -9.1010   39.3560 O.3   269  NAP269     -0.2703
     24  PN         1.8190   -9.3770   39.0420 P.3   269  NAP269      0.2189
     25  O1N        1.6560   -9.3860   37.5720 O.2   269  NAP269     -0.5170
     26  O2N        1.3740  -10.5570   39.8260 O.3   269  NAP269     -0.4371
     27  O5D        1.0830   -8.0750   39.6320 O.3   269  NAP269     -0.3112
     28  C5D        1.2690   -6.8020   39.0480 C.3   269  NAP269      0.1813
     29  C4D        1.0580   -5.7190   40.1020 C.3   269  NAP269      0.1799
     30  O4D       -0.0670   -6.0220   40.9150 O.3   269  NAP269     -0.3327
     31  C3D        2.2550   -5.5860   41.0260 C.3   269  NAP269      0.2158
     32  O3D        2.5600   -4.2190   41.1990 O.3   269  NAP269     -0.2175
     33  C2D        1.7940   -6.2020   42.3270 C.3   269  NAP269      0.2309
     34  O2D        2.3770   -5.5720   43.4460 O.3   269  NAP269     -0.2158
     35  C1D        0.2820   -6.0450   42.2800 C.3   269  NAP269      0.2263
     36  N1N       -0.4170   -7.1180   43.0060 N.pl3 269  NAP269     -0.2787
     37  C2N       -0.4130   -8.4360   42.5510 C.3   269  NAP269      0.1244
     38  C3N       -1.0770   -9.4200   43.2760 C.2   269  NAP269      0.0544
     39  C7N       -1.1370  -10.8770   42.8420 C.2   269  NAP269      0.2818
     40  O7N       -1.9090  -11.7690   43.6150 O.2   269  NAP269     -0.2670
     41  N7N       -0.5010  -11.3320   41.7560 N.am  269  NAP269     -0.0839
     42  C4N       -1.7330   -9.0550   44.4490 C.2   269  NAP269      0.0033
     43  C5N       -1.7250   -7.7370   44.9000 C.2   269  NAP269      0.0157
     44  C6N       -1.0590   -6.7630   44.1620 C.2   269  NAP269      0.0633
     45  P2B       10.0310   -9.1350   33.9170 P.3   269  NAP269      0.5328
     46  O1X       10.0090   -8.7770   32.4580 O.2   269  NAP269     -0.2224
     47  O2X        9.4600  -10.5230   34.0980 O.3   269  NAP269     -0.1145
     48  O3X       11.4490   -9.1320   34.4290 O.3   269  NAP269     -0.1145
@<TRIPOS>BOND
     1    46    45    2
     2    45    47    1
     3    45    48    1
     4    45    11    1
     5    11    10    1
     6     9     8    1
     7    10     8    1
     8    10    12    1
     9     8     6    1
    10    12     7    1
    11    12    13    1
    12     6     7    1
    13     6     5    1
    14    21    20    1
    15    21    22    2
    16    20    19    1
    17    25    24    2
    18    22    13    1
    19    22    16    1
    20     5     4    1
    21    13    14    1
    22    19    17    2
    23     2     1    2
    24     4     1    1
    25    16    17    1
    26    16    15    2
    27    14    15    1
    28    17    18    1
    29    24    23    1
    30    24    27    1
    31    24    26    1
    32    28    27    1
    33    28    29    1
    34     1    23    1
    35     1     3    1
    36    29    30    1
    37    29    31    1
    38    30    35    1
    39    31    32    1
    40    31    33    1
    41    41    39   am
    42    35    33    1
    43    35    36    1
    44    33    34    1
    45    37    36    1
    46    37    38    1
    47    39    38    1
    48    39    40    2
    49    36    44    1
    50    38    42    2
    51    44    43    2
    52    42    43    1
