@<TRIPOS>MOLECULE
3jqa_NAP_A_1.pdb
 48 52 0 0 0
SMALL
GASTEIGER

@<TRIPOS>ATOM
      1  PA        13.8400   -9.9430   11.9700 P.3   269  NAP269      0.2189
      2  O1A       14.3480  -10.9400   11.0440 O.2   269  NAP269     -0.5170
      3  O2A       13.4050  -10.5420   13.2450 O.3   269  NAP269     -0.4371
      4  O5B       14.9620   -8.8130   12.2550 O.3   269  NAP269     -0.3112
      5  C5B       15.3790   -8.0360   11.1540 C.3   269  NAP269      0.1813
      6  C4B       16.8140   -7.5520   11.3530 C.3   269  NAP269      0.1820
      7  O4B       16.9030   -6.7360   12.5050 O.3   269  NAP269     -0.3136
      8  C3B       17.8100   -8.6600   11.6220 C.3   269  NAP269      0.2157
      9  O3B       18.1940   -9.2980   10.4260 O.3   269  NAP269     -0.2175
     10  C2B       18.9450   -7.9230   12.3330 C.3   269  NAP269      0.2314
     11  O2B       20.0940   -7.6920   11.5140 O.3   269  NAP269     -0.2630
     12  C1B       18.2680   -6.6180   12.8080 C.3   269  NAP269      0.3158
     13  N9A       18.6090   -6.4650   14.2430 N.pl3 269  NAP269     -0.1439
     14  C8A       18.2680   -7.2510   15.3160 C.3   269  NAP269      0.3377
     15  N7A       18.9020   -6.7810   16.4190 N.2   269  NAP269     -0.2095
     16  C5A       19.6650   -5.7050   16.0750 C.2   269  NAP269      0.2526
     17  C6A       20.5080   -4.8290   16.7850 C.2   269  NAP269      0.4393
     18  N6A       20.7480   -4.9170   18.0890 N.pl3 269  NAP269      0.2180
     19  N1A       21.1380   -3.8280   16.0930 N.2   269  NAP269      0.0021
     20  C2A       20.9330   -3.6540   14.7340 C.3   269  NAP269      0.5254
     21  N3A       20.1030   -4.5150   14.0330 N.2   269  NAP269     -0.0055
     22  C4A       19.4800   -5.5090   14.7010 C.2   269  NAP269      0.3518
     23  O3        12.6760   -9.0840   11.2660 O.3   269  NAP269     -0.2703
     24  PN        11.5400   -9.5290   10.1870 P.3   269  NAP269      0.2189
     25  O1N       12.1740   -9.5110    8.8550 O.2   269  NAP269     -0.5170
     26  O2N       10.9540  -10.7550   10.7410 O.3   269  NAP269     -0.4371
     27  O5D       10.5290   -8.3070   10.3240 O.3   269  NAP269     -0.3112
     28  C5D       10.8120   -7.0170    9.8200 C.3   269  NAP269      0.1813
     29  C4D       10.0380   -5.9270   10.5820 C.3   269  NAP269      0.1799
     30  O4D        8.6390   -6.1760   10.5190 O.3   269  NAP269     -0.3327
     31  C3D       10.4340   -5.7880   12.0560 C.3   269  NAP269      0.2158
     32  O3D       10.4880   -4.4070   12.4350 O.3   269  NAP269     -0.2175
     33  C2D        9.3350   -6.5510   12.7550 C.3   269  NAP269      0.2309
     34  O2D        9.1200   -6.1720   14.1070 O.3   269  NAP269     -0.2158
     35  C1D        8.1310   -6.3080   11.8510 C.3   269  NAP269      0.2263
     36  N1N        7.2050   -7.4280   11.9590 N.pl3 269  NAP269     -0.2787
     37  C2N        7.5340   -8.6670   11.4250 C.3   269  NAP269      0.1244
     38  C3N        6.6060   -9.6900   11.5390 C.2   269  NAP269      0.0544
     39  C7N        6.9130  -11.0490   11.0020 C.2   269  NAP269      0.2818
     40  O7N        5.8520  -11.9660   10.9430 O.2   269  NAP269     -0.2670
     41  N7N        8.1590  -11.3240   10.6130 N.am  269  NAP269     -0.0839
     42  C4N        5.3890   -9.5020   12.1900 C.2   269  NAP269      0.0033
     43  C5N        5.0980   -8.2550   12.7060 C.2   269  NAP269      0.0157
     44  C6N        6.0060   -7.2270   12.5950 C.2   269  NAP269      0.0633
     45  P2B       21.2930   -8.7670   11.3430 P.3   269  NAP269      0.5328
     46  O1X       22.2510   -8.1480   10.3450 O.2   269  NAP269     -0.2224
     47  O2X       20.6810  -10.0180   10.7880 O.3   269  NAP269     -0.1145
     48  O3X       21.9560   -9.0720   12.6740 O.3   269  NAP269     -0.1145
@<TRIPOS>BOND
     1    25    24    2
     2    28    27    1
     3    28    29    1
     4    24    27    1
     5    24    26    1
     6    24    23    1
     7    46    45    2
     8     9     8    1
     9    30    29    1
    10    30    35    1
    11    29    31    1
    12    41    39   am
    13    47    45    1
    14    40    39    2
    15    39    38    1
    16     2     1    2
    17     5     6    1
    18     5     4    1
    19    23     1    1
    20    45    11    1
    21    45    48    1
    22     6     8    1
    23     6     7    1
    24    37    38    1
    25    37    36    1
    26    11    10    1
    27    38    42    2
    28     8    10    1
    29    35    36    1
    30    35    33    1
    31    36    44    1
    32     1     4    1
    33     1     3    1
    34    31    32    1
    35    31    33    1
    36    42    43    1
    37    10    12    1
    38     7    12    1
    39    44    43    2
    40    33    34    1
    41    12    13    1
    42    21    22    2
    43    21    20    1
    44    13    22    1
    45    13    14    1
    46    22    16    1
    47    20    19    1
    48    14    15    1
    49    16    15    2
    50    16    17    1
    51    19    17    2
    52    17    18    1
