@<TRIPOS>MOLECULE
3jqa_DX4_A_1.pdb
 11 12 0 0 0
SMALL
GASTEIGER

@<TRIPOS>ATOM
      1  C4         8.2050   -9.7000   14.9700 C.1   270  DX4270      0.1262
      2  C5         8.3280  -11.0020   14.5020 C.2   270  DX4270      0.2163
      3  C6         9.5880  -11.4330   14.0690 C.1   270  DX4270      0.0819
      4  C8         6.2740  -10.6440   15.1110 C.3   270  DX4270      0.2632
      5  N1        10.6650  -10.6100   14.1310 N.2   270  DX4270     -0.2794
      6  N2        11.5060   -8.4890   14.6750 N.pl3 270  DX4270     -0.0221
      7  N3         9.3010   -8.9360   15.0130 N.2   270  DX4270     -0.2684
      8  C2        10.5020   -9.3530   14.5970 C.1   270  DX4270      0.2586
      9  N9         6.9400   -9.5010   15.3480 N.2   270  DX4270     -0.1802
     10  N7         7.1160  -11.5620   14.5980 N.2   270  DX4270     -0.2234
     11  S6         9.8090  -13.0670   13.4610 S.2   270  DX4270      0.0272
@<TRIPOS>BOND
     1    11     3    2
     2     3     5    2
     3     3     2    1
     4     5     8    2
     5     2    10    2
     6     2     1    1
     7     8     6    1
     8     8     7    2
     9    10     4    1
    10     1     7    2
    11     1     9    2
    12     4     9    1
