@<TRIPOS>MOLECULE
3jqb_NAP_A_1.pdb
 48 52 0 0 0
SMALL
GASTEIGER

@<TRIPOS>ATOM
      1  PA         5.8230  -12.7300   25.2960 P.3   269  NAP269      0.2189
      2  O1A        5.3260  -13.6960   26.3040 O.3   269  NAP269     -0.4371
      3  O2A        6.1640  -13.4100   24.0250 O.2   269  NAP269     -0.5170
      4  O5B        4.7270  -11.5890   25.0320 O.3   269  NAP269     -0.3112
      5  C5B        4.3070  -10.7560   26.0870 C.3   269  NAP269      0.1813
      6  C4B        2.8600  -10.3330   25.8840 C.3   269  NAP269      0.1820
      7  O4B        2.7010   -9.5380   24.7260 O.3   269  NAP269     -0.3136
      8  C3B        1.8890  -11.4850   25.6700 C.3   269  NAP269      0.2157
      9  O3B        1.5030  -12.0710   26.8930 O.3   269  NAP269     -0.2175
     10  C2B        0.7310  -10.8140   24.9480 C.3   269  NAP269      0.2314
     11  O2B       -0.3460  -10.5310   25.8160 O.3   269  NAP269     -0.2630
     12  C1B        1.3120   -9.4900   24.4600 C.3   269  NAP269      0.3158
     13  N9A        0.9620   -9.3120   23.0380 N.pl3 269  NAP269     -0.1439
     14  C8A        1.3690  -10.0750   21.9720 C.3   269  NAP269      0.3377
     15  N7A        0.7920   -9.5830   20.8510 N.2   269  NAP269     -0.2095
     16  C5A        0.0200   -8.5250   21.1850 C.2   269  NAP269      0.2526
     17  C6A       -0.7800   -7.6670   20.4360 C.2   269  NAP269      0.4393
     18  N6A       -0.8890   -7.8120   19.1140 N.pl3 269  NAP269      0.2180
     19  N1A       -1.4640   -6.6530   21.0780 N.2   269  NAP269      0.0021
     20  C2A       -1.3550   -6.4890   22.4470 C.3   269  NAP269      0.5254
     21  N3A       -0.5600   -7.3470   23.1810 N.2   269  NAP269     -0.0055
     22  C4A        0.1160   -8.3470   22.5610 C.2   269  NAP269      0.3518
     23  O3         7.0720  -11.9260   25.9210 O.3   269  NAP269     -0.2703
     24  PN         8.1630  -12.3660   27.0210 P.3   269  NAP269      0.2189
     25  O1N        7.5310  -12.3790   28.3570 O.3   269  NAP269     -0.4371
     26  O2N        8.8350  -13.5790   26.5020 O.2   269  NAP269     -0.5170
     27  O5D        9.2380  -11.1660   26.9910 O.3   269  NAP269     -0.3112
     28  C5D        8.9930   -9.9000   27.5700 C.3   269  NAP269      0.1813
     29  C4D        9.7140   -8.7970   26.7950 C.3   269  NAP269      0.1799
     30  O4D       11.1200   -9.0010   26.7950 O.3   269  NAP269     -0.3327
     31  C3D        9.2560   -8.7610   25.3440 C.3   269  NAP269      0.2158
     32  O3D        9.0730   -7.4210   24.9440 O.3   269  NAP269     -0.2175
     33  C2D       10.4020   -9.3930   24.5830 C.3   269  NAP269      0.2309
     34  O2D       10.5630   -8.8780   23.2840 O.3   269  NAP269     -0.2158
     35  C1D       11.6140   -9.1540   25.4720 C.3   269  NAP269      0.2263
     36  N1N       12.5280  -10.3060   25.3590 N.pl3 269  NAP269     -0.2787
     37  C2N       12.1840  -11.5330   25.8770 C.3   269  NAP269      0.1244
     38  C3N       13.0570  -12.6150   25.7620 C.2   269  NAP269      0.0544
     39  C7N       12.6940  -13.9620   26.3190 C.2   269  NAP269      0.2818
     40  O7N       13.6780  -14.9730   26.3440 O.2   269  NAP269     -0.2670
     41  N7N       11.4560  -14.1780   26.7690 N.am  269  NAP269     -0.0839
     42  C4N       14.2800  -12.4420   25.1160 C.2   269  NAP269      0.0033
     43  C5N       14.6200  -11.1990   24.5920 C.2   269  NAP269      0.0157
     44  C6N       13.7300  -10.1340   24.7200 C.2   269  NAP269      0.0633
     45  P2B       -1.6130  -11.5220   25.9630 P.3   269  NAP269      0.5328
     46  O1X       -2.5450  -10.9080   26.9770 O.3   269  NAP269     -0.1145
     47  O2X       -1.1250  -12.8690   26.4410 O.3   269  NAP269     -0.1145
     48  O3X       -2.3310  -11.6660   24.6460 O.2   269  NAP269     -0.2224
@<TRIPOS>BOND
     1    18    17    1
     2    17    19    2
     3    17    16    1
     4    15    16    2
     5    15    14    1
     6    19    20    1
     7    16    22    1
     8    14    13    1
     9    20    21    1
    10    22    13    1
    11    22    21    2
    12    13    12    1
    13    34    33    1
    14     3     1    2
    15    12     7    1
    16    12    10    1
    17    33    31    1
    18    33    35    1
    19    43    44    2
    20    43    42    1
    21    48    45    2
    22    44    36    1
    23     7     6    1
    24    32    31    1
    25    10     8    1
    26    10    11    1
    27     4     1    1
    28     4     5    1
    29    42    38    2
    30     1    23    1
    31     1     2    1
    32    31    29    1
    33    36    35    1
    34    36    37    1
    35    35    30    1
    36     8     6    1
    37     8     9    1
    38    38    37    1
    39    38    39    1
    40    11    45    1
    41     6     5    1
    42    23    24    1
    43    45    47    1
    44    45    46    1
    45    39    40    2
    46    39    41   am
    47    26    24    2
    48    30    29    1
    49    29    28    1
    50    27    24    1
    51    27    28    1
    52    24    25    1
