@<TRIPOS>MOLECULE
3jqb_DX6_A_1.pdb
 19 21 0 0 0
SMALL
GASTEIGER

@<TRIPOS>ATOM
      1  CAF       14.7990  -16.7840   20.7260 C.ar  270  DX6270     -0.0043
      2  CAD       15.0790  -17.8100   19.8260 C.ar  270  DX6270     -0.0003
      3  CAC       15.2120  -19.1170   20.2880 C.ar  270  DX6270     -0.0000
      4  CAE       15.0710  -19.3930   21.6480 C.ar  270  DX6270     -0.0003
      5  CAG       14.7900  -18.3680   22.5460 C.ar  270  DX6270     -0.0043
      6  CAN       14.6550  -17.0620   22.0850 C.ar  270  DX6270     -0.0219
      7  CAI       14.3410  -15.9370   23.0700 C.3   270  DX6270      0.0308
      8  CAJ       12.8240  -15.7230   23.1480 C.3   270  DX6270      0.0305
      9  CAP       12.4060  -14.3220   22.6750 C.2   270  DX6270      0.0071
     10  CAH       13.1920  -13.4080   22.1000 C.2   270  DX6270      0.1039
     11  NAL       12.4840  -12.3110   21.8310 N.2   270  DX6270     -0.1847
     12  CAR       11.2240  -12.4880   22.2230 C.1   270  DX6270      0.0973
     13  NAK       10.1410  -11.6900   22.1620 N.2   270  DX6270     -0.2733
     14  CAS       11.1350  -13.7650   22.7680 C.3   270  DX6270      0.2358
     15  CAQ        9.9120  -14.2200   23.2600 C.1   270  DX6270      0.2101
     16  OAB        9.7970  -15.3420   23.7500 O.2   270  DX6270     -0.2120
     17  NAM        8.8020  -13.3710   23.1890 N.2   270  DX6270     -0.2525
     18  CAO        8.9480  -12.0940   22.6320 C.1   270  DX6270      0.2602
     19  NAA        7.8980  -11.2850   22.5580 N.pl3 270  DX6270     -0.0221
@<TRIPOS>BOND
     1     2     3   ar
     2     2     1   ar
     3     3     4   ar
     4     1     6   ar
     5     4     5   ar
     6    11    10    1
     7    11    12    2
     8     6     5   ar
     9     6     7    1
    10    10     9    2
    11    13    12    2
    12    13    18    2
    13    12    14    1
    14    19    18    1
    15    18    17    2
    16     9    14    1
    17     9     8    1
    18    14    15    1
    19     7     8    1
    20    17    15    2
    21    15    16    2
