@<TRIPOS>MOLECULE
3jqc_JU2_A_1.pdb
 14 15 0 0 0
SMALL
GASTEIGER

@<TRIPOS>ATOM
      1 BR15        4.7080  -10.7380   15.5030 Br    270  JU2270     -0.0121
      2  C8         6.5930  -10.4740   15.0450 C.2   270  JU2270      0.1886
      3  C7         7.3750  -11.5380   14.4460 C.2   270  JU2270      0.1287
      4  C10        6.9500  -12.7680   14.1410 C.1   270  JU2270      0.1051
      5  N11        6.5570  -13.8340   13.9060 N.1   270  JU2270     -0.1907
      6  N9         7.2570   -9.3340   15.2420 N.2   270  JU2270     -0.3310
      7  C5         8.5240   -9.5480   14.8160 C.1   270  JU2270      0.1642
      8  C4         8.6900  -10.9380   14.2830 C.2   270  JU2270      0.1938
      9  C3         9.9970  -11.3580   13.7760 C.1   270  JU2270      0.2281
     10  O12       10.1390  -12.5290   13.3430 O.2   270  JU2270     -0.2078
     11  N6         9.6000   -8.7430   14.8030 N.2   270  JU2270     -0.2576
     12  C1        10.7820   -9.1820   14.3050 C.1   270  JU2270      0.2616
     13  N13       11.8000   -8.3030   14.3270 N.pl3 270  JU2270     -0.0220
     14  N2        10.9750  -10.4360   13.8180 N.2   270  JU2270     -0.2489
@<TRIPOS>BOND
     1    10     9    2
     2     9    14    2
     3     9     8    1
     4    14    12    2
     5     5     4    3
     6     4     3    1
     7     8     3    2
     8     8     7    1
     9    12    13    1
    10    12    11    2
    11     3     2    1
    12    11     7    2
    13     7     6    2
    14     2     6    2
    15     2     1    1
