@<TRIPOS>MOLECULE
3jqc_NAP_A_1.pdb
 48 52 0 0 0
SMALL
GASTEIGER

@<TRIPOS>ATOM
      1  PA        13.7840   -9.7930   11.7320 P.3   269  NAP269      0.2189
      2  O1A       14.2500  -10.7800   10.7270 O.2   269  NAP269     -0.5170
      3  O2A       13.4310  -10.4360   13.0040 O.3   269  NAP269     -0.4371
      4  O5B       14.8960   -8.6690   11.9920 O.3   269  NAP269     -0.3112
      5  C5B       15.2840   -7.8090   10.9490 C.3   269  NAP269      0.1813
      6  C4B       16.6950   -7.3070   11.2080 C.3   269  NAP269      0.1820
      7  O4B       16.7550   -6.5630   12.4080 O.3   269  NAP269     -0.3136
      8  C3B       17.7080   -8.4220   11.4150 C.3   269  NAP269      0.2157
      9  O3B       18.1780   -8.9530   10.1920 O.3   269  NAP269     -0.2175
     10  C2B       18.7960   -7.7220   12.2170 C.3   269  NAP269      0.2314
     11  O2B       19.9290   -7.4070   11.4330 O.3   269  NAP269     -0.2630
     12  C1B       18.1240   -6.4380   12.7020 C.3   269  NAP269      0.3158
     13  N9A       18.4640   -6.2880   14.1240 N.pl3 269  NAP269     -0.1439
     14  C8A       18.0830   -7.0440   15.2090 C.3   269  NAP269      0.3377
     15  N7A       18.6940   -6.5410   16.3080 N.2   269  NAP269     -0.2095
     16  C5A       19.4640   -5.4840   15.9290 C.2   269  NAP269      0.2526
     17  C6A       20.3050   -4.6050   16.6140 C.2   269  NAP269      0.4393
     18  N6A       20.4920   -4.6940   17.9280 N.pl3 269  NAP269      0.2180
     19  N1A       20.9600   -3.6150   15.9130 N.2   269  NAP269      0.0021
     20  C2A       20.8000   -3.4710   14.5500 C.3   269  NAP269      0.5254
     21  N3A       19.9730   -4.3430   13.8740 N.2   269  NAP269     -0.0055
     22  C4A       19.3260   -5.3260   14.5560 C.2   269  NAP269      0.3518
     23  O3        12.5530   -8.9530   11.1460 O.3   269  NAP269     -0.2703
     24  PN        11.3900   -9.3830   10.1170 P.3   269  NAP269      0.2189
     25  O1N       11.9760   -9.4120    8.7560 O.2   269  NAP269     -0.5170
     26  O2N       10.7450  -10.6160   10.6210 O.3   269  NAP269     -0.4371
     27  O5D       10.3600   -8.1500   10.2740 O.3   269  NAP269     -0.3112
     28  C5D       10.5980   -6.8830    9.7000 C.3   269  NAP269      0.1813
     29  C4D        9.8660   -5.7890   10.4910 C.3   269  NAP269      0.1799
     30  O4D        8.4670   -6.0240   10.4910 O.3   269  NAP269     -0.3327
     31  C3D       10.3040   -5.7490   11.9500 C.3   269  NAP269      0.2158
     32  O3D       10.3380   -4.4180   12.3960 O.3   269  NAP269     -0.2175
     33  C2D        9.2010   -6.4990   12.6580 C.3   269  NAP269      0.2309
     34  O2D        9.0550   -6.1710   14.0240 O.3   269  NAP269     -0.2158
     35  C1D        7.9760   -6.1590   11.8120 C.3   269  NAP269      0.2263
     36  N1N        7.0160   -7.2690   11.9460 N.pl3 269  NAP269     -0.2787
     37  C2N        7.3310   -8.5030   11.4310 C.3   269  NAP269      0.1244
     38  C3N        6.4410   -9.5570   11.5770 C.2   269  NAP269      0.0544
     39  C7N        6.7610  -10.9150   11.0240 C.2   269  NAP269      0.2818
     40  O7N        5.7120  -11.8270   10.8830 O.2   269  NAP269     -0.2670
     41  N7N        8.0150  -11.2530   10.6970 N.am  269  NAP269     -0.0839
     42  C4N        5.2360   -9.3370   12.2460 C.2   269  NAP269      0.0033
     43  C5N        4.9300   -8.0830   12.7680 C.2   269  NAP269      0.0157
     44  C6N        5.8360   -7.0430   12.6100 C.2   269  NAP269      0.0633
     45  P2B       21.1320   -8.4730   11.2540 P.3   269  NAP269      0.5328
     46  O1X       22.0640   -7.8630   10.2290 O.2   269  NAP269     -0.2224
     47  O2X       20.6240   -9.7940   10.7450 O.3   269  NAP269     -0.1145
     48  O3X       21.8370   -8.6740   12.5710 O.3   269  NAP269     -0.1145
@<TRIPOS>BOND
     1    25    24    2
     2    28    27    1
     3    28    29    1
     4    24    27    1
     5    24    26    1
     6    24    23    1
     7     9     8    1
     8    46    45    2
     9    30    29    1
    10    30    35    1
    11    29    31    1
    12    41    39   am
    13     2     1    2
    14    47    45    1
    15    40    39    2
    16     5     6    1
    17     5     4    1
    18    39    38    1
    19    23     1    1
    20     6     8    1
    21     6     7    1
    22    45    11    1
    23    45    48    1
    24     8    10    1
    25    37    38    1
    26    37    36    1
    27    11    10    1
    28    38    42    2
    29     1     4    1
    30     1     3    1
    31    35    36    1
    32    35    33    1
    33    36    44    1
    34    31    32    1
    35    31    33    1
    36    10    12    1
    37    42    43    1
    38     7    12    1
    39    44    43    2
    40    33    34    1
    41    12    13    1
    42    21    20    1
    43    21    22    2
    44    13    22    1
    45    13    14    1
    46    20    19    1
    47    22    16    1
    48    14    15    1
    49    19    17    2
    50    16    15    2
    51    16    17    1
    52    17    18    1
