@<TRIPOS>MOLECULE
3jqd_NAP_A_1.pdb
 48 52 0 0 0
SMALL
GASTEIGER

@<TRIPOS>ATOM
      1  PA        31.1570   12.6590   25.5420 P.3   269  NAP269      0.2189
      2  O1A       31.6940   13.6340   26.5130 O.3   269  NAP269     -0.4371
      3  O2A       30.7800   13.2600   24.2390 O.2   269  NAP269     -0.5170
      4  O5B       32.2340   11.4970   25.2780 O.3   269  NAP269     -0.3112
      5  C5B       32.6810   10.7480   26.3760 C.3   269  NAP269      0.1813
      6  C4B       34.0890   10.2400   26.1130 C.3   269  NAP269      0.1820
      7  O4B       34.1490    9.4130   24.9580 O.3   269  NAP269     -0.3136
      8  C3B       35.1040   11.3450   25.8830 C.3   269  NAP269      0.2157
      9  O3B       35.5360   11.9350   27.0980 O.3   269  NAP269     -0.2175
     10  C2B       36.1970   10.6120   25.1250 C.3   269  NAP269      0.2314
     11  O2B       37.3350   10.3320   25.9190 O.3   269  NAP269     -0.2630
     12  C1B       35.5240    9.3040   24.6630 C.3   269  NAP269      0.3158
     13  N9A       35.8680    9.1280   23.2490 N.pl3 269  NAP269     -0.1439
     14  C8A       35.5270    9.9110   22.1810 C.3   269  NAP269      0.3377
     15  N7A       36.1370    9.4120   21.0820 N.2   269  NAP269     -0.2095
     16  C5A       36.8670    8.3370   21.4470 C.2   269  NAP269      0.2526
     17  C6A       37.6770    7.4600   20.7460 C.2   269  NAP269      0.4393
     18  N6A       37.8560    7.5900   19.4360 N.pl3 269  NAP269      0.2180
     19  N1A       38.3000    6.4430   21.4370 N.2   269  NAP269      0.0021
     20  C2A       38.1260    6.2730   22.7920 C.3   269  NAP269      0.5254
     21  N3A       37.3210    7.1450   23.4830 N.2   269  NAP269     -0.0055
     22  C4A       36.7130    8.1570   22.8140 C.2   269  NAP269      0.3518
     23  O3        29.9410   11.8470   26.1870 O.3   269  NAP269     -0.2703
     24  PN        28.7900   12.2930   27.2030 P.3   269  NAP269      0.2189
     25  O1N       29.3410   12.3120   28.5780 O.3   269  NAP269     -0.4371
     26  O2N       28.1170   13.4950   26.6840 O.2   269  NAP269     -0.5170
     27  O5D       27.7460   11.0790   27.0480 O.3   269  NAP269     -0.3112
     28  C5D       28.0300    9.7890   27.5900 C.3   269  NAP269      0.1813
     29  C4D       27.2700    8.6850   26.8580 C.3   269  NAP269      0.1799
     30  O4D       25.8880    8.9860   26.8800 O.3   269  NAP269     -0.3327
     31  C3D       27.6790    8.5630   25.3980 C.3   269  NAP269      0.2158
     32  O3D       27.6870    7.2110   24.9650 O.3   269  NAP269     -0.2175
     33  C2D       26.6020    9.3480   24.6950 C.3   269  NAP269      0.2309
     34  O2D       26.4010    8.9580   23.3590 O.3   269  NAP269     -0.2158
     35  C1D       25.3810    9.0960   25.5650 C.3   269  NAP269      0.2263
     36  N1N       24.4200   10.2050   25.4260 N.pl3 269  NAP269     -0.2787
     37  C2N       24.6980   11.4270   25.9620 C.3   269  NAP269      0.1244
     38  C3N       23.7970   12.4800   25.8180 C.2   269  NAP269      0.0544
     39  C7N       24.1100   13.8350   26.3980 C.2   269  NAP269      0.2818
     40  O7N       23.0960   14.8110   26.4830 O.2   269  NAP269     -0.2670
     41  N7N       25.3490   14.1240   26.8160 N.am  269  NAP269     -0.0839
     42  C4N       22.5980   12.2570   25.1430 C.2   269  NAP269      0.0033
     43  C5N       22.3220   10.9990   24.6220 C.2   269  NAP269      0.0157
     44  C6N       23.2440    9.9670   24.7630 C.2   269  NAP269      0.0633
     45  P2B       38.5450   11.3870   26.1390 P.3   269  NAP269      0.5328
     46  O1X       39.4900   10.8000   27.1520 O.3   269  NAP269     -0.1145
     47  O2X       37.9690   12.6820   26.6470 O.3   269  NAP269     -0.1145
     48  O3X       39.2720   11.6620   24.8450 O.2   269  NAP269     -0.2224
@<TRIPOS>BOND
     1    18    17    1
     2    17    19    2
     3    17    16    1
     4    15    16    2
     5    15    14    1
     6    19    20    1
     7    16    22    1
     8    14    13    1
     9    20    21    1
    10    22    13    1
    11    22    21    2
    12    13    12    1
    13    34    33    1
    14     3     1    2
    15    43    44    2
    16    43    42    1
    17    12     7    1
    18    12    10    1
    19    33    31    1
    20    33    35    1
    21    44    36    1
    22    48    45    2
    23     7     6    1
    24    32    31    1
    25    10     8    1
    26    10    11    1
    27    42    38    2
    28     4     1    1
    29     4     5    1
    30    31    29    1
    31    36    35    1
    32    36    37    1
    33     1    23    1
    34     1     2    1
    35    35    30    1
    36    38    37    1
    37    38    39    1
    38     8     6    1
    39     8     9    1
    40    11    45    1
    41     6     5    1
    42    45    47    1
    43    45    46    1
    44    23    24    1
    45    39    40    2
    46    39    41   am
    47    26    24    2
    48    29    30    1
    49    29    28    1
    50    27    24    1
    51    27    28    1
    52    24    25    1
