@<TRIPOS>MOLECULE
3jqd_DX7_A_1.pdb
 19 21 0 0 0
SMALL
GASTEIGER

@<TRIPOS>ATOM
      1  CAH       21.5790   14.9020   22.5250 C.ar  270  DX7270      0.0026
      2  CAF       20.2600   15.1310   22.1380 C.ar  270  DX7270      0.0001
      3  CAE       19.6470   14.3080   21.1960 C.ar  270  DX7270      0.0000
      4  CAG       20.3650   13.2540   20.6370 C.ar  270  DX7270      0.0001
      5  CAI       21.6880   13.0340   21.0160 C.ar  270  DX7270      0.0026
      6  CAN       22.3040   13.8370   21.9750 C.ar  270  DX7270      0.0312
      7  CAP       23.6460   13.5760   22.2980 C.2   270  DX7270      0.1548
      8  NAL       24.3270   12.4600   22.0360 N.2   270  DX7270     -0.3379
      9  CAR       25.5920   12.5600   22.4480 C.1   270  DX7270      0.1637
     10  NAJ       26.6140   11.6760   22.3910 N.2   270  DX7270     -0.2576
     11  CAM       27.8300   12.0040   22.8670 C.1   270  DX7270      0.2616
     12  NAB       28.8420   11.1410   22.8120 N.pl3 270  DX7270     -0.0220
     13  NAK       28.0440   13.2670   23.4320 N.2   270  DX7270     -0.2489
     14  CAQ       27.0130   14.1970   23.5080 C.1   270  DX7270      0.2281
     15  OAC       27.2360   15.3010   24.0090 O.2   270  DX7270     -0.2078
     16  CAS       25.7680   13.8320   23.0010 C.2   270  DX7270      0.1932
     17  CAO       24.5350   14.4610   22.8950 C.2   270  DX7270      0.1223
     18  CAD       24.2360   15.7850   23.3310 C.1   270  DX7270      0.1046
     19  NAA       23.9690   16.8330   23.6750 N.1   270  DX7270     -0.1907
@<TRIPOS>BOND
     1     4     5   ar
     2     4     3   ar
     3     5     6   ar
     4     3     2   ar
     5     6     7    1
     6     6     1   ar
     7     8     7    2
     8     8     9    2
     9     2     1   ar
    10     7    17    1
    11    10     9    2
    12    10    11    2
    13     9    16    1
    14    12    11    1
    15    11    13    2
    16    17    16    2
    17    17    18    1
    18    16    14    1
    19    18    19    3
    20    13    14    2
    21    14    15    2
