@<TRIPOS>MOLECULE
3jqe_NAP_A_1.pdb
 48 52 0 0 0
SMALL
GASTEIGER

@<TRIPOS>ATOM
      1  PA        13.8330   -9.7450   12.0320 P.3   269  NAP269      0.2189
      2  O1A       14.3310  -10.7030   11.0240 O.2   269  NAP269     -0.5170
      3  O2A       13.5190  -10.3710   13.3390 O.3   269  NAP269     -0.4371
      4  O5B       14.8730   -8.5420   12.2490 O.3   269  NAP269     -0.3112
      5  C5B       15.3220   -7.7870   11.1390 C.3   269  NAP269      0.1813
      6  C4B       16.7380   -7.3220   11.4190 C.3   269  NAP269      0.1820
      7  O4B       16.7750   -6.5530   12.6050 O.3   269  NAP269     -0.3136
      8  C3B       17.7070   -8.4420   11.7340 C.3   269  NAP269      0.2157
      9  O3B       18.1460   -9.0660   10.5570 O.3   269  NAP269     -0.2175
     10  C2B       18.8220   -7.6980   12.4740 C.3   269  NAP269      0.2314
     11  O2B       19.9920   -7.4280   11.6910 O.3   269  NAP269     -0.2630
     12  C1B       18.1240   -6.3890   12.9070 C.3   269  NAP269      0.3158
     13  N9A       18.4660   -6.2170   14.3330 N.pl3 269  NAP269     -0.1439
     14  C8A       18.1420   -6.9980   15.4180 C.3   269  NAP269      0.3377
     15  N7A       18.7840   -6.4930   16.5070 N.2   269  NAP269     -0.2095
     16  C5A       19.5360   -5.4320   16.1220 C.2   269  NAP269      0.2526
     17  C6A       20.3920   -4.5590   16.7990 C.2   269  NAP269      0.4393
     18  N6A       20.6310   -4.6530   18.1130 N.pl3 269  NAP269      0.2180
     19  N1A       21.0130   -3.5710   16.0790 N.2   269  NAP269      0.0021
     20  C2A       20.8110   -3.4180   14.7180 C.3   269  NAP269      0.5254
     21  N3A       19.9620   -4.2800   14.0430 N.2   269  NAP269     -0.0055
     22  C4A       19.3490   -5.2690   14.7450 C.2   269  NAP269      0.3518
     23  O3        12.6220   -8.9520   11.3680 O.3   269  NAP269     -0.2703
     24  PN        11.4610   -9.3590   10.3300 P.3   269  NAP269      0.2189
     25  O1N       12.0590   -9.3180    8.9790 O.2   269  NAP269     -0.5170
     26  O2N       10.8400  -10.6000   10.8750 O.3   269  NAP269     -0.4371
     27  O5D       10.4600   -8.1400   10.4660 O.3   269  NAP269     -0.3112
     28  C5D       10.7240   -6.8750    9.8860 C.3   269  NAP269      0.1813
     29  C4D        9.9410   -5.8040   10.6490 C.3   269  NAP269      0.1799
     30  O4D        8.5440   -6.0620   10.6220 O.3   269  NAP269     -0.3327
     31  C3D       10.3660   -5.7200   12.1140 C.3   269  NAP269      0.2158
     32  O3D       10.3490   -4.3720   12.4980 O.3   269  NAP269     -0.2175
     33  C2D        9.2710   -6.4840   12.8250 C.3   269  NAP269      0.2309
     34  O2D        9.0810   -6.0980   14.1750 O.3   269  NAP269     -0.2158
     35  C1D        8.0520   -6.2110   11.9410 C.3   269  NAP269      0.2263
     36  N1N        7.0830   -7.3110   12.0550 N.pl3 269  NAP269     -0.2787
     37  C2N        7.3540   -8.5730   11.5430 C.3   269  NAP269      0.1244
     38  C3N        6.4060   -9.6010   11.6850 C.2   269  NAP269      0.0544
     39  C7N        6.6580  -10.9860   11.1420 C.2   269  NAP269      0.2818
     40  O7N        5.5520  -11.8420   10.9950 O.2   269  NAP269     -0.2670
     41  N7N        7.8930  -11.3680   10.8140 N.am  269  NAP269     -0.0839
     42  C4N        5.2140   -9.3480   12.3410 C.2   269  NAP269      0.0033
     43  C5N        4.9530   -8.0740   12.8590 C.2   269  NAP269      0.0157
     44  C6N        5.8970   -7.0530   12.7070 C.2   269  NAP269      0.0633
     45  P2B       21.2040   -8.4820   11.4830 P.3   269  NAP269      0.5328
     46  O1X       22.1200   -7.8850   10.4110 O.2   269  NAP269     -0.2224
     47  O2X       20.6230   -9.7910   11.0080 O.3   269  NAP269     -0.1145
     48  O3X       22.0120   -8.6610   12.7460 O.3   269  NAP269     -0.1145
@<TRIPOS>BOND
     1    25    24    2
     2    28    27    1
     3    28    29    1
     4    24    27    1
     5    24    26    1
     6    24    23    1
     7    46    45    2
     8     9     8    1
     9    30    29    1
    10    30    35    1
    11    29    31    1
    12    41    39   am
    13    40    39    2
    14    47    45    1
    15     2     1    2
    16     5     6    1
    17     5     4    1
    18    39    38    1
    19    23     1    1
    20     6     8    1
    21     6     7    1
    22    45    11    1
    23    45    48    1
    24    37    38    1
    25    37    36    1
    26    38    42    2
    27    11    10    1
    28     8    10    1
    29    35    36    1
    30    35    33    1
    31     1     4    1
    32     1     3    1
    33    36    44    1
    34    31    32    1
    35    31    33    1
    36    42    43    1
    37    10    12    1
    38     7    12    1
    39    44    43    2
    40    33    34    1
    41    12    13    1
    42    21    20    1
    43    21    22    2
    44    13    22    1
    45    13    14    1
    46    20    19    1
    47    22    16    1
    48    14    15    1
    49    19    17    2
    50    16    15    2
    51    16    17    1
    52    17    18    1
