@<TRIPOS>MOLECULE
3jqe_DX8_A_1.pdb
 21 23 0 0 0
SMALL
GASTEIGER

@<TRIPOS>ATOM
      1  CAA        0.6970  -11.1620   18.3690 C.3   270  DX8270      0.2525
      2  OAM        1.0940  -11.3630   16.9820 O.3   270  DX8270     -0.4714
      3  CAO        2.4050  -11.1200   16.6140 C.ar  270  DX8270      0.1387
      4  CAG        3.1890  -10.1260   17.2150 C.ar  270  DX8270      0.0370
      5  CAI        4.5050   -9.9350   16.7720 C.ar  270  DX8270      0.0057
      6  CAF        2.9560  -11.8830   15.5770 C.ar  270  DX8270      0.0370
      7  CAH        4.2640  -11.6920   15.1340 C.ar  270  DX8270      0.0057
      8  CAP        5.0480  -10.6980   15.7190 C.ar  270  DX8270      0.0314
      9  CAR        6.3800  -10.4620   15.3610 C.2   270  DX8270      0.1548
     10  NAL        7.0940   -9.3660   15.6350 N.2   270  DX8270     -0.3379
     11  CAT        8.3470   -9.4970   15.1870 C.1   270  DX8270      0.1637
     12  NAJ        9.4010   -8.6520   15.2480 N.2   270  DX8270     -0.2576
     13  CAN       10.6010   -8.9830   14.7270 C.1   270  DX8270      0.2616
     14  NAC       11.6250   -8.1370   14.7870 N.pl3 270  DX8270     -0.0220
     15  NAK       10.7820  -10.2290   14.1070 N.2   270  DX8270     -0.2489
     16  CAS        9.7180  -11.1300   14.0270 C.1   270  DX8270      0.2281
     17  OAD        9.9130  -12.2190   13.4750 O.2   270  DX8270     -0.2078
     18  CAU        8.4800  -10.7540   14.5820 C.2   270  DX8270      0.1932
     19  CAQ        7.2300  -11.3570   14.7050 C.2   270  DX8270      0.1223
     20  CAE        6.8910  -12.6640   14.2240 C.1   270  DX8270      0.1046
     21  NAB        6.6160  -13.6980   13.8400 N.1   270  DX8270     -0.1907
@<TRIPOS>BOND
     1    17    16    2
     2    21    20    3
     3    16    15    2
     4    16    18    1
     5    15    13    2
     6    20    19    1
     7    18    19    2
     8    18    11    1
     9    19     9    1
    10    13    14    1
    11    13    12    2
    12     7     6   ar
    13     7     8   ar
    14    11    12    2
    15    11    10    2
    16     9    10    2
    17     9     8    1
    18     6     3   ar
    19     8     5   ar
    20     3     2    1
    21     3     4   ar
    22     5     4   ar
    23     2     1    1
