@<TRIPOS>MOLECULE
3jqf_NAP_A_1.pdb
 48 52 0 0 0
SMALL
GASTEIGER

@<TRIPOS>ATOM
      1  PA        13.7330   -9.8300   11.8880 P.3   269  NAP269      0.2189
      2  O1A       14.1440  -10.8060   10.8500 O.2   269  NAP269     -0.5170
      3  O2A       13.3580  -10.4260   13.2050 O.3   269  NAP269     -0.4371
      4  O5B       14.9020   -8.7740   12.1380 O.3   269  NAP269     -0.3112
      5  C5B       15.3340   -7.9340   11.0570 C.3   269  NAP269      0.1813
      6  C4B       16.7620   -7.4870   11.3020 C.3   269  NAP269      0.1820
      7  O4B       16.7810   -6.6900   12.4790 O.3   269  NAP269     -0.3136
      8  C3B       17.7720   -8.6190   11.5600 C.3   269  NAP269      0.2157
      9  O3B       18.1700   -9.2120   10.3240 O.3   269  NAP269     -0.2175
     10  C2B       18.8710   -7.8370   12.3040 C.3   269  NAP269      0.2314
     11  O2B       19.9830   -7.5390   11.4830 O.3   269  NAP269     -0.2630
     12  C1B       18.1550   -6.5080   12.7220 C.3   269  NAP269      0.3158
     13  N9A       18.4970   -6.3110   14.1400 N.pl3 269  NAP269     -0.1439
     14  C8A       18.1200   -7.0790   15.2200 C.3   269  NAP269      0.3377
     15  N7A       18.7580   -6.5820   16.3340 N.2   269  NAP269     -0.2095
     16  C5A       19.5320   -5.5080   15.9600 C.2   269  NAP269      0.2526
     17  C6A       20.4100   -4.6510   16.6520 C.2   269  NAP269      0.4393
     18  N6A       20.6410   -4.7560   17.9700 N.pl3 269  NAP269      0.2180
     19  N1A       21.0370   -3.6560   15.9200 N.2   269  NAP269      0.0021
     20  C2A       20.8520   -3.4990   14.5540 C.3   269  NAP269      0.5254
     21  N3A       19.9860   -4.3340   13.8670 N.2   269  NAP269     -0.0055
     22  C4A       19.3760   -5.3380   14.5730 C.2   269  NAP269      0.3518
     23  O3        12.6160   -8.9870   11.1380 O.3   269  NAP269     -0.2703
     24  PN        11.4410   -9.4700   10.1260 P.3   269  NAP269      0.2189
     25  O1N       12.0150   -9.4280    8.7590 O.2   269  NAP269     -0.5170
     26  O2N       10.8450  -10.6920   10.6690 O.3   269  NAP269     -0.4371
     27  O5D       10.4730   -8.1930   10.2690 O.3   269  NAP269     -0.3112
     28  C5D       10.7340   -6.9120    9.6930 C.3   269  NAP269      0.1813
     29  C4D        9.9480   -5.8110   10.4580 C.3   269  NAP269      0.1799
     30  O4D        8.5600   -6.1440   10.3920 O.3   269  NAP269     -0.3327
     31  C3D       10.3090   -5.7440   11.9490 C.3   269  NAP269      0.2158
     32  O3D       10.3120   -4.4020   12.3560 O.3   269  NAP269     -0.2175
     33  C2D        9.1860   -6.5470   12.6080 C.3   269  NAP269      0.2309
     34  O2D        8.9990   -6.1970   13.9590 O.3   269  NAP269     -0.2158
     35  C1D        8.0150   -6.2860   11.6770 C.3   269  NAP269      0.2263
     36  N1N        7.0560   -7.3630   11.8020 N.pl3 269  NAP269     -0.2787
     37  C2N        7.3840   -8.5700   11.2670 C.3   269  NAP269      0.1244
     38  C3N        6.4990   -9.6450   11.4230 C.2   269  NAP269      0.0544
     39  C7N        6.8520  -11.0080   10.8810 C.2   269  NAP269      0.2818
     40  O7N        5.8260  -11.8970   10.8400 O.2   269  NAP269     -0.2670
     41  N7N        8.0840  -11.2960   10.4500 N.am  269  NAP269     -0.0839
     42  C4N        5.2700   -9.4390   12.1280 C.2   269  NAP269      0.0033
     43  C5N        4.9740   -8.1750   12.6620 C.2   269  NAP269      0.0157
     44  C6N        5.9030   -7.1240   12.5090 C.2   269  NAP269      0.0633
     45  P2B       21.2140   -8.5950   11.2990 P.3   269  NAP269      0.5328
     46  O1X       22.1610   -8.0580   10.2450 O.2   269  NAP269     -0.2224
     47  O2X       20.5790   -9.9020   10.8560 O.3   269  NAP269     -0.1145
     48  O3X       21.9140   -8.7550   12.6090 O.3   269  NAP269     -0.1145
@<TRIPOS>BOND
     1    25    24    2
     2    28    27    1
     3    28    29    1
     4    24    27    1
     5    24    26    1
     6    24    23    1
     7    46    45    2
     8     9     8    1
     9    30    29    1
    10    30    35    1
    11    41    39   am
    12    29    31    1
    13    40    39    2
    14     2     1    2
    15    47    45    1
    16    39    38    1
    17     5     6    1
    18     5     4    1
    19    23     1    1
    20    37    38    1
    21    37    36    1
    22    45    11    1
    23    45    48    1
    24     6     8    1
    25     6     7    1
    26    38    42    2
    27    11    10    1
    28     8    10    1
    29    35    36    1
    30    35    33    1
    31    36    44    1
    32     1     4    1
    33     1     3    1
    34    31    32    1
    35    31    33    1
    36    42    43    1
    37    10    12    1
    38     7    12    1
    39    44    43    2
    40    33    34    1
    41    12    13    1
    42    21    20    1
    43    21    22    2
    44    13    22    1
    45    13    14    1
    46    20    19    1
    47    22    16    1
    48    14    15    1
    49    19    17    2
    50    16    15    2
    51    16    17    1
    52    17    18    1
