@<TRIPOS>MOLECULE
3jqg_AX6_A_1.pdb
 18 19 0 0 0
SMALL
GASTEIGER

@<TRIPOS>ATOM
      1  C4         9.8370  -11.2870   14.4320 C.2   270  AX6270      0.1570
      2  C5         8.5150  -10.8630   14.7560 C.3   270  AX6270      0.1455
      3  C6         8.3040   -9.5260   15.1660 C.2   270  AX6270      0.2178
      4  N1         9.3660   -8.6970   15.2120 N.2   270  AX6270     -0.3114
      5  N3        10.8370  -10.4000   14.5120 N.2   270  AX6270     -0.3234
      6  CAA        3.6200  -14.3990   16.7080 C.3   270  AX6270      0.2525
      7  OAL        4.6220  -15.4440   16.5670 O.3   270  AX6270     -0.4714
      8  CAP        5.6410  -15.0030   15.7860 C.ar  270  AX6270      0.1387
      9  CAG        5.3490  -14.5400   14.5030 C.ar  270  AX6270      0.0366
     10  CAE        6.3590  -14.0630   13.6740 C.ar  270  AX6270     -0.0003
     11  CAF        6.9540  -15.0040   16.2550 C.ar  270  AX6270      0.0366
     12  CAD        7.9670  -14.5180   15.4200 C.ar  270  AX6270     -0.0003
     13  CAO        7.6740  -14.0460   14.1260 C.ar  270  AX6270     -0.0107
     14  CAI        8.7380  -13.5180   13.1440 C.3   270  AX6270      0.0906
     15  SAM       10.3140  -12.9620   13.9050 S.3   270  AX6270     -0.0805
     16  C2        10.6100   -9.1220   14.9000 C.1   270  AX6270      0.2426
     17  NAC       11.6300   -8.2720   14.9750 N.pl3 270  AX6270     -0.0232
     18  NAB        7.0810   -9.0380   15.5110 N.pl3 270  AX6270     -0.0965
@<TRIPOS>BOND
     1    14    15    1
     2    14    13    1
     3    10    13   ar
     4    10     9   ar
     5    15     1    1
     6    13    12   ar
     7     1     5    2
     8     1     2    1
     9     9     8   ar
    10     5    16    2
    11     2     3    1
    12    16    17    1
    13    16     4    2
    14     3     4    2
    15     3    18    1
    16    12    11   ar
    17     8    11   ar
    18     8     7    1
    19     7     6    1
