@<TRIPOS>MOLECULE
3jqg_NAP_A_1.pdb
 48 52 0 0 0
SMALL
GASTEIGER

@<TRIPOS>ATOM
      1  PA        13.9240   -9.8610   12.1520 P.3   269  NAP269      0.2189
      2  O1A       14.4230  -10.8510   11.1770 O.2   269  NAP269     -0.5170
      3  O2A       13.5770  -10.5290   13.4470 O.3   269  NAP269     -0.4371
      4  O5B       14.8960   -8.6140   12.4150 O.3   269  NAP269     -0.3112
      5  C5B       15.3370   -7.8620   11.3270 C.3   269  NAP269      0.1813
      6  C4B       16.7630   -7.3790   11.5580 C.3   269  NAP269      0.1820
      7  O4B       16.8750   -6.5750   12.7130 O.3   269  NAP269     -0.3136
      8  C3B       17.7530   -8.5070   11.7660 C.3   269  NAP269      0.2157
      9  O3B       18.1750   -8.9800   10.5030 O.3   269  NAP269     -0.2175
     10  C2B       18.8660   -7.8490   12.5580 C.3   269  NAP269      0.2314
     11  O2B       19.9490   -7.5480   11.7030 O.3   269  NAP269     -0.2630
     12  C1B       18.2500   -6.5140   13.0080 C.3   269  NAP269      0.3158
     13  N9A       18.5860   -6.3590   14.4290 N.pl3 269  NAP269     -0.1439
     14  C8A       18.2380   -7.1520   15.4880 C.3   269  NAP269      0.3377
     15  N7A       18.8580   -6.6460   16.5910 N.2   269  NAP269     -0.2095
     16  C5A       19.6100   -5.5780   16.2560 C.2   269  NAP269      0.2526
     17  C6A       20.4370   -4.6930   16.9720 C.2   269  NAP269      0.4393
     18  N6A       20.6580   -4.7890   18.2880 N.pl3 269  NAP269      0.2180
     19  N1A       21.0670   -3.6840   16.2780 N.2   269  NAP269      0.0021
     20  C2A       20.8940   -3.5140   14.9130 C.3   269  NAP269      0.5254
     21  N3A       20.0880   -4.3860   14.1980 N.2   269  NAP269     -0.0055
     22  C4A       19.4450   -5.3900   14.8740 C.2   269  NAP269      0.3518
     23  O3        12.7310   -9.0150   11.4600 O.3   269  NAP269     -0.2703
     24  PN        11.5940   -9.4170   10.3610 P.3   269  NAP269      0.2189
     25  O1N       12.2080   -9.4510    9.0180 O.2   269  NAP269     -0.5170
     26  O2N       10.9900  -10.6660   10.8870 O.3   269  NAP269     -0.4371
     27  O5D       10.5550   -8.2570   10.4220 O.3   269  NAP269     -0.3112
     28  C5D       10.8390   -6.9420    9.9480 C.3   269  NAP269      0.1813
     29  C4D       10.0750   -5.9340   10.8020 C.3   269  NAP269      0.1799
     30  O4D        8.6760   -6.1920   10.7320 O.3   269  NAP269     -0.3327
     31  C3D       10.4370   -5.7780   12.2860 C.3   269  NAP269      0.2158
     32  O3D       10.3710   -4.3550   12.6080 O.3   269  NAP269     -0.2175
     33  C2D        9.3210   -6.5350   12.9480 C.3   269  NAP269      0.2309
     34  O2D        9.1000   -6.0710   14.2780 O.3   269  NAP269     -0.2158
     35  C1D        8.1170   -6.2520   12.0310 C.3   269  NAP269      0.2263
     36  N1N        7.1310   -7.3110   12.1740 N.pl3 269  NAP269     -0.2787
     37  C2N        7.4290   -8.5220   11.6300 C.3   269  NAP269      0.1244
     38  C3N        6.5330   -9.5550   11.7790 C.2   269  NAP269      0.0544
     39  C7N        6.8390  -10.8890   11.2030 C.2   269  NAP269      0.2818
     40  O7N        5.7760  -11.7950   11.1530 O.2   269  NAP269     -0.2670
     41  N7N        8.0630  -11.2210   10.7660 N.am  269  NAP269     -0.0839
     42  C4N        5.3380   -9.3620   12.4840 C.2   269  NAP269      0.0033
     43  C5N        5.0420   -8.1280   13.0450 C.2   269  NAP269      0.0157
     44  C6N        5.9430   -7.0850   12.8710 C.2   269  NAP269      0.0633
     45  P2B       21.2790   -8.4090   11.5820 P.3   269  NAP269      0.5328
     46  O1X       22.1770   -7.8100   10.5060 O.2   269  NAP269     -0.2224
     47  O2X       20.9160   -9.8310   11.1830 O.3   269  NAP269     -0.1145
     48  O3X       21.9960   -8.6050   12.9070 O.3   269  NAP269     -0.1145
@<TRIPOS>BOND
     1    25    24    2
     2    28    27    1
     3    28    29    1
     4    24    27    1
     5    24    26    1
     6    24    23    1
     7     9     8    1
     8    46    45    2
     9    30    29    1
    10    30    35    1
    11    41    39   am
    12    29    31    1
    13    40    39    2
    14     2     1    2
    15    47    45    1
    16    39    38    1
    17     5     6    1
    18     5     4    1
    19    23     1    1
    20     6     8    1
    21     6     7    1
    22    45    11    1
    23    45    48    1
    24    37    38    1
    25    37    36    1
    26    11    10    1
    27     8    10    1
    28    38    42    2
    29    35    36    1
    30    35    33    1
    31     1     4    1
    32     1     3    1
    33    36    44    1
    34    31    32    1
    35    31    33    1
    36    42    43    1
    37    10    12    1
    38     7    12    1
    39    44    43    2
    40    33    34    1
    41    12    13    1
    42    21    22    2
    43    21    20    1
    44    13    22    1
    45    13    14    1
    46    22    16    1
    47    20    19    1
    48    14    15    1
    49    16    15    2
    50    16    17    1
    51    19    17    2
    52    17    18    1
