@<TRIPOS>MOLECULE
3jqm_GTP_A_1.pdb
 32 34 0 0 0
SMALL
GASTEIGER

@<TRIPOS>ATOM
      1  PG         0.0520  -27.7070   93.2460 P.3   158  GTP158      0.5373
      2  O1G        0.6550  -27.3970   91.8120 O.2   158  GTP158     -0.2221
      3  O2G       -1.1850  -26.9070   93.4460 O.3   158  GTP158     -0.1143
      4  O3G       -0.2500  -29.2780   93.2790 O.3   158  GTP158     -0.1143
      5  O3B        1.1970  -27.3410   94.3230 O.3   158  GTP158     -0.2258
      6  PB         1.0370  -27.4990   95.9280 P.3   158  GTP158      0.2277
      7  O1B        2.3360  -27.9100   96.4830 O.3   158  GTP158     -0.4368
      8  O2B       -0.0710  -28.4300   96.1860 O.2   158  GTP158     -0.5168
      9  O3A        0.6490  -26.0670   96.5520 O.3   158  GTP158     -0.2700
     10  PA         1.5820  -24.7540   96.4890 P.3   158  GTP158      0.2189
     11  O1A        0.8530  -23.6930   97.2130 O.3   158  GTP158     -0.4371
     12  O2A        1.8410  -24.4970   95.0470 O.2   158  GTP158     -0.5170
     13  O5'        2.9890  -25.1270   97.2220 O.3   158  GTP158     -0.3112
     14  C5'        3.0780  -25.4620   98.6110 C.3   158  GTP158      0.1813
     15  C4'        4.4220  -25.0570   99.2530 C.3   158  GTP158      0.1799
     16  O4'        4.6060  -23.6050   99.2030 O.3   158  GTP158     -0.3326
     17  C3'        4.4790  -25.4480  100.7440 C.3   158  GTP158      0.2158
     18  O3'        5.1460  -26.7180  100.9140 O.3   158  GTP158     -0.2175
     19  C2'        5.2840  -24.3000  101.3430 C.3   158  GTP158      0.2310
     20  O2'        6.6570  -24.5890  100.9750 O.3   158  GTP158     -0.2158
     21  C1'        4.7370  -23.0820  100.5670 C.3   158  GTP158      0.2293
     22  N9         3.3350  -22.5460  100.8700 N.pl3 158  GTP158     -0.2354
     23  C8         2.1280  -23.1690  100.9180 C.3   158  GTP158      0.2246
     24  N7         1.1630  -22.2930  101.1580 N.2   158  GTP158     -0.2322
     25  C5         1.7230  -21.0970  101.2770 C.2   158  GTP158      0.2182
     26  C6         1.2090  -19.8110  101.5190 C.1   158  GTP158      0.2372
     27  O6        -0.0100  -19.6660  101.6700 O.2   158  GTP158     -0.2069
     28  N1         2.1150  -18.7000  101.5880 N.2   158  GTP158     -0.2485
     29  C2         3.5140  -18.9230  101.3990 C.1   158  GTP158      0.2531
     30  N2         4.3830  -17.9140  101.4530 N.pl3 158  GTP158     -0.0226
     31  N3         3.9690  -20.1850  101.1620 N.2   158  GTP158     -0.3074
     32  C4         3.1160  -21.2520  101.0940 C.2   158  GTP158      0.2300
@<TRIPOS>BOND
     1     2     1    2
     2     1     4    1
     3     1     3    1
     4     1     5    1
     5     5     6    1
     6    12    10    2
     7     6     8    2
     8     6     7    1
     9     6     9    1
    10    10     9    1
    11    10    11    1
    12    10    13    1
    13    13    14    1
    14    14    15    1
    15    16    15    1
    16    16    21    1
    17    15    17    1
    18    21    22    1
    19    21    19    1
    20    17    18    1
    21    17    19    1
    22    22    23    1
    23    22    32    1
    24    23    24    1
    25    20    19    1
    26    32    31    2
    27    32    25    1
    28    24    25    2
    29    31    29    2
    30    25    26    1
    31    29    30    1
    32    29    28    2
    33    26    28    2
    34    26    27    2
