@<TRIPOS>MOLECULE
3jqp_A2P_A_1.pdb
 27 29 0 0 0
SMALL
GASTEIGER

@<TRIPOS>ATOM
      1  P1       -66.1190  -35.8330  -12.9310 P.3   416  A2P416      0.5328
      2  O1P      -66.4440  -36.2190  -14.3560 O.2   416  A2P416     -0.2224
      3  O2P      -67.2670  -35.2570  -12.1370 O.3   416  A2P416     -0.1145
      4  O3P      -64.8150  -35.0800  -12.7720 O.3   416  A2P416     -0.1145
      5  P2       -60.3990  -37.6630  -12.7870 P.3   416  A2P416      0.5327
      6  O4P      -59.8810  -38.3700  -11.5550 O.3   416  A2P416     -0.1145
      7  O5P      -61.1700  -36.3880  -12.5240 O.3   416  A2P416     -0.1145
      8  O6P      -59.4050  -37.5660  -13.9220 O.2   416  A2P416     -0.2224
      9  O5'      -61.5130  -38.6720  -13.3470 O.3   416  A2P416     -0.2675
     10  C5'      -61.8550  -39.8270  -12.5930 C.3   416  A2P416      0.1860
     11  C4'      -63.3450  -39.7920  -12.2900 C.3   416  A2P416      0.1822
     12  O4'      -63.5570  -39.5460  -10.8960 O.3   416  A2P416     -0.3136
     13  C3'      -64.0660  -38.6810  -13.0530 C.3   416  A2P416      0.2157
     14  O3'      -65.1580  -39.2450  -13.7840 O.3   416  A2P416     -0.2175
     15  C2'      -64.6050  -37.7710  -11.9720 C.3   416  A2P416      0.2314
     16  O2'      -65.9030  -37.2700  -12.2490 O.3   416  A2P416     -0.2630
     17  C1'      -64.7450  -38.7650  -10.8460 C.3   416  A2P416      0.3158
     18  N9       -65.0460  -38.0680   -9.5780 N.pl3 416  A2P416     -0.1439
     19  C8       -65.0580  -36.7370   -9.3780 C.3   416  A2P416      0.3377
     20  N7       -65.4150  -36.4560   -8.0980 N.2   416  A2P416     -0.2095
     21  C5       -65.6540  -37.6260   -7.4730 C.2   416  A2P416      0.2526
     22  C6       -66.0680  -38.0580   -6.1190 C.2   416  A2P416      0.4393
     23  N6       -66.3070  -37.1520   -5.1420 N.pl3 416  A2P416      0.2180
     24  N1       -66.1990  -39.3830   -5.8880 N.2   416  A2P416      0.0021
     25  C2       -65.9630  -40.2960   -6.8470 C.3   416  A2P416      0.5254
     26  N3       -65.5840  -39.9760   -8.0960 N.2   416  A2P416     -0.0055
     27  C4       -65.4170  -38.6830   -8.4600 C.2   416  A2P416      0.3518
@<TRIPOS>BOND
     1     2     1    2
     2     8     5    2
     3    14    13    1
     4     9     5    1
     5     9    10    1
     6    13    11    1
     7    13    15    1
     8     1     4    1
     9     1    16    1
    10     1     3    1
    11     5     7    1
    12     5     6    1
    13    10    11    1
    14    11    12    1
    15    16    15    1
    16    15    17    1
    17    12    17    1
    18    17    18    1
    19    18    19    1
    20    18    27    1
    21    19    20    1
    22    27    26    2
    23    27    21    1
    24    20    21    2
    25    26    25    1
    26    21    22    1
    27    25    24    1
    28    22    24    2
    29    22    23    1
