@<TRIPOS>MOLECULE
3jqq_A2P_A_1.pdb
 27 29 0 0 0
SMALL
GASTEIGER

@<TRIPOS>ATOM
      1  P1        -4.7740   72.3770   12.4820 P.3   416  A2P416      0.5328
      2  O1P       -5.8410   71.7460   11.6250 O.2   416  A2P416     -0.2224
      3  O2P       -3.3890   71.8260   12.2450 O.3   416  A2P416     -0.1145
      4  O3P       -5.1420   72.5070   13.9400 O.3   416  A2P416     -0.1145
      5  P2         1.1560   74.3880   12.5140 P.3   416  A2P416      0.5327
      6  O4P        1.2040   72.9970   11.9360 O.3   416  A2P416     -0.1145
      7  O5P        1.1780   74.4320   14.0230 O.3   416  A2P416     -0.1145
      8  O6P        2.0970   75.3720   11.8620 O.2   416  A2P416     -0.2224
      9  O5'       -0.3130   74.9270   12.1250 O.3   416  A2P416     -0.2675
     10  C5'       -0.6850   76.2650   12.4500 C.3   416  A2P416      0.1860
     11  C4'       -2.1450   76.5080   12.0910 C.3   416  A2P416      0.1822
     12  O4'       -2.3510   76.3090   10.6840 O.3   416  A2P416     -0.3136
     13  C3'       -3.0610   75.5250   12.8130 C.3   416  A2P416      0.2157
     14  O3'       -4.2400   76.2110   13.2400 O.3   416  A2P416     -0.2175
     15  C2'       -3.4330   74.5270   11.7390 C.3   416  A2P416      0.2314
     16  O2'       -4.6940   73.9020   11.9660 O.3   416  A2P416     -0.2630
     17  C1'       -3.5000   75.4650   10.5510 C.3   416  A2P416      0.3158
     18  N9        -3.6360   74.7240    9.2730 N.pl3 416  A2P416     -0.1439
     19  C8        -3.5360   73.3880    9.1040 C.3   416  A2P416      0.3377
     20  N7        -3.7480   73.0460    7.8080 N.2   416  A2P416     -0.2095
     21  C5        -4.0000   74.1840    7.1370 C.2   416  A2P416      0.2526
     22  C6        -4.3090   74.5520    5.7350 C.2   416  A2P416      0.4393
     23  N6        -4.3910   73.6060    4.7700 N.pl3 416  A2P416      0.2180
     24  N1        -4.5070   75.8610    5.4510 N.2   416  A2P416      0.0021
     25  C2        -4.4300   76.8140    6.4010 C.3   416  A2P416      0.5254
     26  N3        -4.1540   76.5520    7.6820 N.2   416  A2P416     -0.0055
     27  C4        -3.9340   75.2840    8.1030 C.2   416  A2P416      0.3518
@<TRIPOS>BOND
     1    23    22    1
     2    24    22    2
     3    24    25    1
     4    22    21    1
     5    25    26    1
     6    21    20    2
     7    21    27    1
     8    26    27    2
     9    20    19    1
    10    27    18    1
    11    19    18    1
    12    18    17    1
    13    17    12    1
    14    17    15    1
    15    12    11    1
    16     2     1    2
    17    15    16    1
    18    15    13    1
    19     8     5    2
    20     6     5    1
    21    16     1    1
    22    11    10    1
    23    11    13    1
    24     9    10    1
    25     9     5    1
    26     3     1    1
    27     1     4    1
    28     5     7    1
    29    13    14    1
