@<TRIPOS>MOLECULE
3jqz_LQZ_A_1.pdb
 17 17 0 0 0
SMALL
GASTEIGER

@<TRIPOS>ATOM
      1  C         45.7970    8.9040  -36.6200 C.2   586  LQZ586      0.2619
      2  N         47.6800   10.4800  -35.8970 N.3   586  LQZ586     -0.2650
      3  O         45.1060    9.5180  -35.8860 O.2   586  LQZ586     -0.2715
      4  CA        47.2720    9.3360  -36.7590 C.3   586  LQZ586      0.1606
      5  CAA       48.0030   12.8780  -36.6020 C.3   586  LQZ586      0.0188
      6  CAB       50.0140   10.0460  -36.8460 C.3   586  LQZ586      0.0188
      7  CAC       42.9100   10.0310  -37.2050 C.3   586  LQZ586      0.0324
      8  CAD       44.4840    4.8310  -37.4500 C.3   586  LQZ586      0.0324
      9  CAF       40.7980    6.5290  -37.0960 C.ar  586  LQZ586     -0.0006
     10  CAG       41.1650    8.0550  -37.0890 C.ar  586  LQZ586     -0.0030
     11  CAH       41.9290    5.4500  -37.2210 C.ar  586  LQZ586     -0.0030
     12  CAI       47.0110   11.7500  -36.2710 C.3   586  LQZ586      0.0726
     13  CAJ       49.1510   10.6080  -35.6930 C.3   586  LQZ586      0.0726
     14  NAL       45.2100    7.8420  -37.4440 N.am  586  LQZ586     -0.1787
     15  CAN       42.6490    8.5180  -37.2080 C.ar  586  LQZ586     -0.0068
     16  CAO       43.4010    5.9050  -37.3350 C.ar  586  LQZ586     -0.0068
     17  CAP       43.7840    7.4600  -37.3290 C.ar  586  LQZ586      0.0654
@<TRIPOS>BOND
     1     8    16    1
     2    14    17    1
     3    14     1   am
     4    16    17   ar
     5    16    11   ar
     6    17    15   ar
     7    11     9   ar
     8    15     7    1
     9    15    10   ar
    10     9    10   ar
    11     6    13    1
    12     4     1    1
    13     4     2    1
    14     1     3    2
    15     5    12    1
    16    12     2    1
    17     2    13    1
