@<TRIPOS>MOLECULE
3jrs_A8S_A_1.pdb
 19 19 0 0 0
SMALL
GASTEIGER

@<TRIPOS>ATOM
      1  C1        30.4800  -14.7790   22.5860 C.2     1  A8S1        0.3652
      2  C2        31.7790  -15.4850   22.8930 C.3     1  A8S1        0.1184
      3  C3        32.0330  -16.8110   22.2050 C.3     1  A8S1        0.0330
      4  C4        31.8270  -16.9400   20.6880 C.2     1  A8S1       -0.0281
      5  C5        32.1870  -18.1010   20.0840 C.2     1  A8S1       -0.0009
      6  C6        33.2820  -17.4930   22.7410 C.3     1  A8S1        0.0052
      7  C7        31.8590  -18.2470   18.5940 C.3     1  A8S1        0.1487
      8  O7        30.8070  -17.3270   18.2230 O.3     1  A8S1       -0.2209
      9  C8        33.0880  -18.0450   17.7010 C.3     1  A8S1        0.0568
     10  C9        33.6200  -19.1980   17.4220 C.2     1  A8S1        0.0137
     11  C10       33.5290  -20.4250   17.6660 C.2     1  A8S1        0.1691
     12  O10       34.3290  -21.4230   17.2910 O.2     1  A8S1       -0.2917
     13  C11       32.4290  -20.6450   18.4810 C.3     1  A8S1        0.0715
     14  O11       29.9900  -14.0730   23.5170 O.co2   1  A8S1       -0.2456
     15  C12       31.2650  -19.6720   18.3920 C.3     1  A8S1        0.0370
     16  O12       30.0130  -14.7880   21.4170 O.co2   1  A8S1       -0.2456
     17  C13       33.4430  -16.6590   17.2400 C.3     1  A8S1        0.0077
     18  C14       30.6320  -19.9130   16.9990 C.3     1  A8S1        0.0032
     19  C15       30.1500  -19.9800   19.4290 C.3     1  A8S1        0.0032
@<TRIPOS>BOND
     1    18    15    1
     2    17     9    1
     3    12    11    1
     4    10    11    2
     5    10     9    1
     6    11    13    1
     7     9     7    1
     8     8     7    1
     9    15    13    1
    10    15     7    1
    11    15    19    1
    12     7     5    1
    13     5     4    2
    14     4     3    1
    15    16     1   ar
    16     3     6    1
    17     3     2    1
    18     1     2    1
    19     1    14   ar
