@<TRIPOS>MOLECULE
3jrx_S1A_A_1.pdb
 37 39 0 0 0
SMALL
GASTEIGER

@<TRIPOS>ATOM
      1  C1       -44.2290   25.2330  -16.0730 C.2   1000  S1A1000     0.3216
      2  C2       -43.0360   25.4650  -17.0210 C.3   1000  S1A1000     0.1556
      3  C3       -43.0030   24.3820  -18.1640 C.3   1000  S1A1000     0.2564
      4  C4       -41.7590   24.5840  -19.1540 C.3   1000  S1A1000     0.1998
      5  C5       -41.9300   23.7530  -20.5000 C.3   1000  S1A1000     0.1862
      6  C6       -43.3720   23.8570  -21.0900 C.3   1000  S1A1000     0.0607
      7  C7       -44.4530   23.5540  -19.9770 C.3   1000  S1A1000     0.1242
      8  C8       -45.9070   23.7030  -20.5330 C.3   1000  S1A1000     0.0491
      9  C9       -46.9490   23.3900  -19.3810 C.2   1000  S1A1000    -0.0261
     10  C10      -47.2590   22.0820  -18.9900 C.2   1000  S1A1000     0.0008
     11  C11      -48.2920   21.7990  -17.8550 C.3   1000  S1A1000     0.1639
     12  C12      -47.9140   20.5050  -17.0590 C.3   1000  S1A1000     0.1465
     13  C13      -46.5260   20.6350  -16.3780 C.3   1000  S1A1000     0.0324
     14  C14      -46.4040   21.7570  -15.3570 C.3   1000  S1A1000     0.0027
     15  C15      -45.1070   21.6290  -14.6050 C.3   1000  S1A1000     0.0042
     16  C16      -44.9050   22.6990  -13.5500 C.3   1000  S1A1000     0.0483
     17  C17      -44.9800   24.1660  -14.0080 C.3   1000  S1A1000     0.1911
     18  C19      -41.7310   25.4840  -16.2010 C.3   1000  S1A1000     0.0170
     19  C20      -40.1980   26.3900  -19.4450 C.3   1000  S1A1000     0.1743
     20  C21      -43.5590   25.2460  -21.7550 C.3   1000  S1A1000     0.0052
     21  C22      -46.1710   22.7650  -21.7270 C.3   1000  S1A1000     0.0072
     22  C23      -50.5980   22.3730  -17.7070 C.3   1000  S1A1000     0.1746
     23  C24      -47.9660   18.1030  -17.2720 C.3   1000  S1A1000     0.1741
     24  C25      -44.6950   24.9940  -12.7240 C.ar  1000  S1A1000     0.0173
     25  C26      -43.3360   25.0970  -12.2360 C.ar  1000  S1A1000    -0.0008
     26  C27      -43.0540   25.8000  -11.0500 C.ar  1000  S1A1000    -0.0002
     27  C28      -44.1070   26.4110  -10.3270 C.ar  1000  S1A1000    -0.0000
     28  C29      -45.4540   26.3180  -10.7970 C.ar  1000  S1A1000    -0.0002
     29  C30      -45.7440   25.6080  -12.0010 C.ar  1000  S1A1000    -0.0008
     30  O1       -45.3970   25.6870  -16.1590 O.2   1000  S1A1000    -0.2499
     31  O3       -42.8940   23.0670  -17.5630 O.3   1000  S1A1000    -0.1920
     32  O4       -41.6040   25.9910  -19.4730 O.3   1000  S1A1000    -0.3459
     33  O5       -41.6270   22.3800  -20.2420 O.3   1000  S1A1000    -0.2203
     34  O7       -44.2830   24.4680  -18.8540 O.3   1000  S1A1000    -0.3319
     35  O11      -49.5960   21.6190  -18.4420 O.3   1000  S1A1000    -0.3467
     36  O12      -47.9080   19.3820  -17.9830 O.3   1000  S1A1000    -0.3507
     37  O18      -43.9250   24.4360  -15.0020 O.3   1000  S1A1000    -0.4476
@<TRIPOS>BOND
     1    20     6    1
     2    21     8    1
     3     6     5    1
     4     6     7    1
     5     8     7    1
     6     8     9    1
     7     5    33    1
     8     5     4    1
     9     7    34    1
    10    32    19    1
    11    32     4    1
    12     9    10    2
    13     4     3    1
    14    10    11    1
    15    34     3    1
    16    35    11    1
    17    35    22    1
    18     3    31    1
    19     3     2    1
    20    36    23    1
    21    36    12    1
    22    11    12    1
    23    12    13    1
    24     2    18    1
    25     2     1    1
    26    13    14    1
    27    30     1    2
    28     1    37    1
    29    14    15    1
    30    37    17    1
    31    15    16    1
    32    17    16    1
    33    17    24    1
    34    24    25   ar
    35    24    29   ar
    36    25    26   ar
    37    29    28   ar
    38    26    27   ar
    39    28    27   ar
