@<TRIPOS>MOLECULE
3js2_VM1_A_1.pdb
 14 15 0 0 0
SMALL
GASTEIGER

@<TRIPOS>ATOM
      1  O1A        8.9650    6.0140   22.6630 O.co2 801  VM1801     -0.2405
      2  C1B        8.4870    4.9670   23.1500 C.2   801  VM1801      0.3893
      3  O1C        8.7900    4.5130   24.2750 O.co2 801  VM1801     -0.2405
      4  S1D        6.3630    5.8310   18.3510 S.2   801  VM1801     -0.0864
      5  C1E        5.6000    5.5760   16.8490 C.ar  801  VM1801      0.0354
      6  C1F        4.9940    4.3930   16.9400 C.ar  801  VM1801      0.0075
      7  C1G        7.4690    4.1940   22.3110 C.ar  801  VM1801      0.0989
      8  C1H        7.1060    4.6640   21.0560 C.ar  801  VM1801      0.0102
      9  C1I        6.1890    3.9320   20.3120 C.ar  801  VM1801      0.0254
     10  C1J        5.8430    4.3490   19.0300 C.ar  801  VM1801      0.0310
     11  C1K        5.1180    3.7360   18.0980 C.ar  801  VM1801      0.0071
     12  C1L        6.9060    3.0150   22.7870 C.ar  801  VM1801      0.1054
     13  N1M        6.0340    2.3460   22.0540 N.ar  801  VM1801     -0.2421
     14  C1N        5.6680    2.7640   20.8540 C.ar  801  VM1801      0.0993
@<TRIPOS>BOND
     1     5     6   ar
     2     5     4   ar
     3     6    11   ar
     4    11    10   ar
     5     4    10   ar
     6    10     9    1
     7     9    14   ar
     8     9     8   ar
     9    14    13   ar
    10     8     7   ar
    11    13    12   ar
    12     7    12   ar
    13     7     2    1
    14     1     2   ar
    15     2     3   ar
