@<TRIPOS>MOLECULE
3js3_DHS_A_1.pdb
 11 11 0 0 0
SMALL
GASTEIGER

@<TRIPOS>ATOM
      1  C1        -5.6710   19.6130   -4.2270 C.2   301  DHS301      0.0560
      2  C3        -5.6350   20.2230   -1.7900 C.3   301  DHS301      0.0614
      3  C4        -6.4020   18.9200   -1.4960 C.3   301  DHS301      0.1867
      4  C5        -7.2680   18.4760   -2.6640 C.3   301  DHS301      0.1870
      5  C6        -6.4120   18.3530   -3.9150 C.3   301  DHS301      0.0682
      6  C7        -5.2420   19.7930   -5.6200 C.2   301  DHS301      0.3836
      7  C2        -5.3680   20.4930   -3.2630 C.2   301  DHS301     -0.0211
      8  O2        -7.2140   19.1530   -0.3490 O.3   301  DHS301     -0.2200
      9  O3        -7.8520   17.1790   -2.4900 O.3   301  DHS301     -0.2200
     10  O4        -5.1190   20.9390   -6.1320 O.co2 301  DHS301     -0.2409
     11  O5        -5.0270   18.7630   -6.2970 O.co2 301  DHS301     -0.2409
@<TRIPOS>BOND
     1    11     6   ar
     2    10     6   ar
     3     6     1    1
     4     1     5    1
     5     1     7    2
     6     5     4    1
     7     7     2    1
     8     4     9    1
     9     4     3    1
    10     2     3    1
    11     3     8    1
