@<TRIPOS>MOLECULE
3js5_EPE_A_1.pdb
 15 15 0 0 0
SMALL
GASTEIGER

@<TRIPOS>ATOM
      1  N1       -17.3890   19.4800  -16.6820 N.3   201  EPE201     -0.2689
      2  C2       -16.0410   19.8650  -17.1560 C.3   201  EPE201      0.0897
      3  C3       -16.0850   21.2510  -17.7970 C.3   201  EPE201      0.0897
      4  N4       -16.7480   22.2340  -16.9510 N.3   201  EPE201     -0.2681
      5  C5       -17.9330   21.8290  -16.2080 C.3   201  EPE201      0.0897
      6  C6       -17.8690   20.4150  -15.6480 C.3   201  EPE201      0.0897
      7  C7       -16.7080   23.6490  -17.3070 C.3   201  EPE201      0.1081
      8  C8       -15.5850   24.0350  -18.2610 C.3   201  EPE201      0.1993
      9  O8       -14.3600   23.9440  -17.5740 O.3   201  EPE201     -0.2189
     10  C9       -17.2560   18.1410  -16.0920 C.3   201  EPE201      0.0939
     11  C10      -18.6110   17.4950  -15.8280 C.3   201  EPE201      0.1225
     12  S        -18.3070   16.0510  -14.7930 S.3   201  EPE201     -0.1946
     13  O1S      -18.0020   16.5590  -13.4600 O.3   201  EPE201     -0.3074
     14  O2S      -17.1610   15.2910  -15.2970 O.3   201  EPE201     -0.3074
     15  O3S      -19.4990   15.1960  -14.7820 O.3   201  EPE201     -0.3074
@<TRIPOS>BOND
     1     8     9    1
     2     8     7    1
     3     3     2    1
     4     3     4    1
     5     7     4    1
     6     2     1    1
     7     4     5    1
     8     1    10    1
     9     1     6    1
    10     5     6    1
    11    10    11    1
    12    11    12    1
    13    14    12    1
    14    12    15    1
    15    12    13    1
