@<TRIPOS>MOLECULE
3jsa_NAD_A_1.pdb
 44 48 0 0 0
SMALL
GASTEIGER

@<TRIPOS>ATOM
      1  PA         0.6760   69.6250    1.1130 P.3   501  NAD501      0.2189
      2  O1A        1.3590   69.4810    2.3930 O.3   501  NAD501     -0.4371
      3  O2A        1.1290   68.9060   -0.1430 O.2   501  NAD501     -0.5170
      4  O5B       -0.8530   69.2700    1.2690 O.3   501  NAD501     -0.3112
      5  C5B       -1.7430   69.2050    0.1640 C.3   501  NAD501      0.1813
      6  C4B       -2.9800   68.5420    0.7440 C.3   501  NAD501      0.1821
      7  O4B       -4.0440   68.6010   -0.2230 O.3   501  NAD501     -0.3135
      8  C3B       -2.7480   67.0620    1.0550 C.3   501  NAD501      0.2184
      9  O3B       -3.5270   66.6900    2.2060 O.3   501  NAD501     -0.2174
     10  C2B       -3.3300   66.3760   -0.1710 C.3   501  NAD501      0.2570
     11  O2B       -3.6540   64.9760    0.0440 O.3   501  NAD501     -0.2130
     12  C1B       -4.5340   67.2770   -0.3800 C.3   501  NAD501      0.3186
     13  N9A       -5.1830   67.0820   -1.6810 N.pl3 501  NAD501     -0.1439
     14  C8A       -4.5820   66.7130   -2.8340 C.3   501  NAD501      0.3377
     15  N7A       -5.5190   66.6030   -3.8070 N.2   501  NAD501     -0.2095
     16  C5A       -6.7230   66.9080   -3.2650 C.2   501  NAD501      0.2526
     17  C6A       -8.1320   66.9970   -3.7090 C.2   501  NAD501      0.4393
     18  N6A       -8.4720   66.7280   -4.9980 N.pl3 501  NAD501      0.2180
     19  N1A       -9.0870   67.3370   -2.8000 N.2   501  NAD501      0.0021
     20  C2A       -8.7900   67.6110   -1.4970 C.3   501  NAD501      0.5254
     21  N3A       -7.5400   67.5310   -1.0450 N.2   501  NAD501     -0.0055
     22  C4A       -6.4930   67.2140   -1.8540 C.2   501  NAD501      0.3518
     23  O3         0.6030   71.2040    0.6750 O.3   501  NAD501     -0.2703
     24  PN         0.7100   72.4130    1.7680 P.3   501  NAD501      0.2189
     25  O1N        2.1250   72.5940    2.1610 O.2   501  NAD501     -0.5170
     26  O2N       -0.2320   72.1370    2.8990 O.3   501  NAD501     -0.4371
     27  O5D        0.1530   73.5740    0.7880 O.3   501  NAD501     -0.3112
     28  C5D       -1.2520   73.7280    0.5210 C.3   501  NAD501      0.1813
     29  C4D       -1.5070   74.9390   -0.3730 C.3   501  NAD501      0.1799
     30  O4D       -1.0540   76.0710    0.3860 O.3   501  NAD501     -0.3327
     31  C3D       -0.6820   74.8710   -1.6600 C.3   501  NAD501      0.2158
     32  O3D       -1.4600   75.3190   -2.7870 O.3   501  NAD501     -0.2175
     33  C2D        0.5330   75.7420   -1.3420 C.3   501  NAD501      0.2309
     34  O2D        1.0660   76.3200   -2.5470 O.3   501  NAD501     -0.2158
     35  C1D       -0.0420   76.7510   -0.3580 C.3   501  NAD501      0.2263
     36  N1N        0.9200   77.3720    0.5530 N.pl3 501  NAD501     -0.2787
     37  C2N        1.6710   76.6590    1.3960 C.3   501  NAD501      0.1244
     38  C3N        2.5670   77.2860    2.2420 C.2   501  NAD501      0.0544
     39  C7N        3.3580   76.4610    3.2110 C.2   501  NAD501      0.2818
     40  O7N        3.5140   75.2320    3.0700 O.2   501  NAD501     -0.2670
     41  N7N        3.7670   77.0890    4.2940 N.am  501  NAD501     -0.0839
     42  C4N        2.6780   78.6910    2.2260 C.2   501  NAD501      0.0033
     43  C5N        1.8690   79.4180    1.3520 C.2   501  NAD501      0.0157
     44  C6N        0.9790   78.7290    0.5280 C.2   501  NAD501      0.0633
@<TRIPOS>BOND
     1    18    17    1
     2    15    16    2
     3    15    14    1
     4    17    16    1
     5    17    19    2
     6    16    22    1
     7    14    13    1
     8    19    20    1
     9    32    31    1
    10    34    33    1
    11    22    13    1
    12    22    21    2
    13    13    12    1
    14    31    33    1
    15    31    29    1
    16    20    21    1
    17    33    35    1
    18    12     7    1
    19    12    10    1
    20    29    30    1
    21    29    28    1
    22    35    30    1
    23    35    36    1
    24     7     6    1
    25    10    11    1
    26    10     8    1
    27     3     1    2
    28     5     6    1
    29     5     4    1
    30    28    27    1
    31    44    36    1
    32    44    43    2
    33    36    37    1
    34    23     1    1
    35    23    24    1
    36     6     8    1
    37    27    24    1
    38     8     9    1
    39     1     4    1
    40     1     2    1
    41    43    42    1
    42    37    38    1
    43    24    25    2
    44    24    26    1
    45    42    38    2
    46    38    39    1
    47    40    39    2
    48    39    41   am
