@<TRIPOS>MOLECULE
3jsf_XV1_A_1.pdb
 19 21 0 0 0
SMALL
GASTEIGER

@<TRIPOS>ATOM
      1  CAA       14.4710  -37.1630  -23.5850 C.2   123  XV1123      0.0050
      2  CAB       13.2610  -36.8320  -22.7020 C.3   123  XV1123      0.0542
      3  CAC       14.7810  -36.4230  -24.7260 C.2   123  XV1123      0.2055
      4  CAD       13.6750  -35.9630  -21.5150 C.ar  123  XV1123      0.0094
      5  CAE       15.9060  -36.7480  -25.4810 C.2   123  XV1123      0.1155
      6  CAF       15.2900  -38.2210  -23.2060 C.3   123  XV1123      0.0513
      7  NAG       16.2110  -36.0340  -26.5760 N.2   123  XV1123     -0.2413
      8  CAH       13.6120  -36.4970  -20.2290 C.ar  123  XV1123     -0.0017
      9  CAI       16.7230  -37.8080  -25.0950 C.2   123  XV1123     -0.0009
     10  CAJ       16.4170  -38.5470  -23.9550 C.2   123  XV1123     -0.0240
     11  OAK       14.0100  -35.3710  -25.1080 O.2   123  XV1123     -0.2856
     12  CAL       14.1630  -34.6690  -21.6970 C.ar  123  XV1123      0.1364
     13  CAM       17.2750  -36.2960  -27.3170 C.2   123  XV1123      0.0947
     14  CAN       14.0370  -35.7520  -19.1350 C.ar  123  XV1123     -0.0002
     15  CAO       17.8490  -38.1060  -25.8530 C.3   123  XV1123      0.0552
     16  CAP       14.5900  -33.9230  -20.6020 C.ar  123  XV1123      0.0293
     17  CAQ       18.1320  -37.3400  -26.9800 C.2   123  XV1123     -0.0008
     18  CAR       14.5280  -34.4610  -19.3210 C.ar  123  XV1123      0.0023
     19  FAS       14.2200  -34.1330  -22.9310 F     123  XV1123     -0.2045
@<TRIPOS>BOND
     1    13    17    2
     2    13     7    1
     3    17    15    1
     4     7     5    2
     5    15     9    1
     6     5     9    1
     7     5     3    1
     8    11     3    1
     9     9    10    2
    10     3     1    2
    11    10     6    1
    12     1     6    1
    13     1     2    1
    14    19    12    1
    15     2     4    1
    16    12     4   ar
    17    12    16   ar
    18     4     8   ar
    19    16    18   ar
    20     8    14   ar
    21    18    14   ar
