@<TRIPOS>MOLECULE
3jsg_0IN_A_1.pdb
 18 20 0 0 0
SMALL
GASTEIGER

@<TRIPOS>ATOM
      1  CAE       26.6420    6.9950  -19.3990 C.ar  123  0IN123      0.0227
      2  CAF       25.5000    6.3110  -18.6440 C.3   123  0IN123      0.0575
      3  CAG       27.1320    8.1810  -18.8580 C.ar  123  0IN123      0.2094
      4  CAH       28.1450    8.8770  -19.5120 C.ar  123  0IN123      0.1197
      5  CAI       27.1680    6.5000  -20.5890 C.ar  123  0IN123     -0.0007
      6  CAJ       25.9110    4.8960  -18.2260 C.ar  123  0IN123      0.0015
      7  NAK       28.6100   10.0280  -19.0020 N.ar  123  0IN123     -0.2406
      8  NAL       26.6600    3.4190  -16.5500 N.ar  123  0IN123     -0.2426
      9  CAM       28.6680    8.3790  -20.7040 C.ar  123  0IN123      0.0208
     10  CAN       28.1830    7.1910  -21.2440 C.ar  123  0IN123      0.0014
     11  OAO       26.6340    8.6520  -17.6840 O.3   123  0IN123     -0.2853
     12  CAP       26.2920    4.6370  -16.9130 C.ar  123  0IN123      0.0949
     13  CAQ       29.5650   10.7260  -19.5930 C.ar  123  0IN123      0.0989
     14  CAR       25.9260    3.8520  -19.1460 C.ar  123  0IN123     -0.0008
     15  CAS       26.6870    2.4040  -17.3970 C.ar  123  0IN123      0.0989
     16  CAT       29.6720    9.0940  -21.3470 C.ar  123  0IN123      0.0032
     17  CAU       26.3210    2.5850  -18.7270 C.ar  123  0IN123      0.0204
     18  CAV       30.1280   10.2830  -20.7860 C.ar  123  0IN123      0.0207
@<TRIPOS>BOND
     1    16    18   ar
     2    16     9   ar
     3    10     9   ar
     4    10     5   ar
     5    18    13   ar
     6     9     4   ar
     7     5     1   ar
     8    13     7   ar
     9     4     7   ar
    10     4     3   ar
    11     1     3   ar
    12     1     2    1
    13    14    17   ar
    14    14     6   ar
    15     3    11    1
    16    17    15   ar
    17     2     6    1
    18     6    12   ar
    19    15     8   ar
    20    12     8   ar
