@<TRIPOS>MOLECULE
3jsi_WTC_A_1.pdb
 22 25 0 0 0
SMALL
GASTEIGER

@<TRIPOS>ATOM
      1  C1        77.3900   52.0750   43.8100 C.3   903  WTC903      0.2301
      2  C2        77.3450   52.1930   42.4050 C.2   903  WTC903      0.2132
      3  N3        78.4660   51.5860   41.9290 N.pl3 903  WTC903     -0.1884
      4  N4        79.2070   51.1000   43.0150 N.2   903  WTC903     -0.1777
      5  C5        78.5720   51.3730   44.1230 C.2   903  WTC903      0.1176
      6  C6        76.2860   52.6670   44.5880 C.1   903  WTC903      0.2032
      7  N7        75.3000   53.2910   43.8860 N.2   903  WTC903     -0.2737
      8  C8        75.3350   53.3510   42.5230 C.1   903  WTC903      0.1312
      9  N9        76.3090   52.8340   41.8200 N.2   903  WTC903     -0.3288
     10  C10       78.8480   51.5190   40.5150 C.3   903  WTC903      0.0986
     11  C11       78.8160   50.0850   39.9730 C.3   903  WTC903      0.0219
     12  C12       80.0390   50.0010   39.0390 C.3   903  WTC903      0.0018
     13  C13       81.1060   50.8390   39.7870 C.3   903  WTC903      0.0018
     14  C14       80.2920   52.0400   40.3260 C.3   903  WTC903      0.0219
     15  O15       76.2510   52.6230   45.8100 O.2   903  WTC903     -0.2126
     16  C16       74.2110   54.0610   41.8070 C.3   903  WTC903      0.1520
     17  C17       74.6060   55.4950   41.5470 C.ar  903  WTC903     -0.0052
     18  C18       74.6090   55.9930   40.2540 C.ar  903  WTC903     -0.0032
     19  C19       74.9750   57.3120   40.0100 C.ar  903  WTC903     -0.0003
     20  C20       75.3420   58.1430   41.0580 C.ar  903  WTC903     -0.0000
     21  C21       75.3430   57.6470   42.3520 C.ar  903  WTC903     -0.0003
     22  C22       74.9720   56.3290   42.5950 C.ar  903  WTC903     -0.0032
@<TRIPOS>BOND
     1    12    13    1
     2    12    11    1
     3    13    14    1
     4    11    10    1
     5    19    18   ar
     6    19    20   ar
     7    18    17   ar
     8    14    10    1
     9    10     3    1
    10    20    21   ar
    11    17    16    1
    12    17    22   ar
    13    16     8    1
    14     9     2    2
    15     9     8    2
    16     3     2    1
    17     3     4    1
    18    21    22   ar
    19     2     1    1
    20     8     7    2
    21     4     5    2
    22     1     5    1
    23     1     6    1
    24     7     6    2
    25     6    15    2
