@<TRIPOS>MOLECULE
3jsk_AHZ_A_1.pdb
 38 41 0 0 0
SMALL
GASTEIGER

@<TRIPOS>ATOM
      1  O2'       99.9150  -29.3730  -31.2670 O.3   500  AHZ500     -0.2130
      2  C2'      100.0750  -28.0340  -30.8190 C.3   500  AHZ500      0.2570
      3  C3'       99.5860  -27.8620  -29.3800 C.3   500  AHZ500      0.2184
      4  O3'       99.0430  -29.0950  -28.8790 O.3   500  AHZ500     -0.2174
      5  C1'       99.2030  -27.0720  -31.5980 C.3   500  AHZ500      0.3186
      6  N9        99.8780  -26.4400  -32.7710 N.pl3 500  AHZ500     -0.1439
      7  C8       101.0360  -25.7530  -32.7870 C.3   500  AHZ500      0.3377
      8  N7       101.2950  -25.3390  -34.0330 N.2   500  AHZ500     -0.2095
      9  C5       100.3060  -25.7620  -34.8120 C.2   500  AHZ500      0.2526
     10  C6       100.0110  -25.6490  -36.1850 C.2   500  AHZ500      0.4393
     11  N1        98.8770  -26.2230  -36.6670 N.2   500  AHZ500      0.0021
     12  C2        98.0350  -26.8910  -35.8640 C.3   500  AHZ500      0.5254
     13  N6       100.8220  -24.9920  -37.0020 N.pl3 500  AHZ500      0.2180
     14  C4        99.4040  -26.4650  -34.0080 C.2   500  AHZ500      0.3518
     15  N3        98.2870  -27.0120  -34.5550 N.2   500  AHZ500     -0.0055
     16  O4'       98.7550  -26.0710  -30.6500 O.3   500  AHZ500     -0.3135
     17  C4'       98.5210  -26.7530  -29.3960 C.3   500  AHZ500      0.1821
     18  C5'       98.7800  -25.7450  -28.2370 C.3   500  AHZ500      0.1813
     19  O5'       99.5690  -26.3440  -27.1910 O.3   500  AHZ500     -0.3112
     20  PA       100.0580  -25.5830  -25.8600 P.3   500  AHZ500      0.2189
     21  O2A       99.4780  -26.2760  -24.6970 O.3   500  AHZ500     -0.4371
     22  O1A      101.5400  -25.5490  -25.9290 O.2   500  AHZ500     -0.5170
     23  O3A       99.4870  -24.0620  -25.9830 O.3   500  AHZ500     -0.2703
     24  PB        98.4250  -23.4160  -24.9260 P.3   500  AHZ500      0.2188
     25  O1B       97.1070  -24.0500  -25.1330 O.2   500  AHZ500     -0.5170
     26  O2B       98.5110  -21.9380  -25.0990 O.3   500  AHZ500     -0.4371
     27  O3B       98.9690  -23.8440  -23.4670 O.3   500  AHZ500     -0.3139
     28  C7T       99.9560  -23.0830  -22.7770 C.3   500  AHZ500      0.1505
     29  C6T      100.6070  -23.9470  -21.6870 C.3   500  AHZ500      0.0505
     30  C5T      102.0650  -23.5290  -21.5380 C.3   500  AHZ500      0.1049
     31  S1T      102.5860  -22.2900  -20.5230 S.3   500  AHZ500     -0.0698
     32  C2T      104.2000  -22.4420  -20.9260 C.2   500  AHZ500      0.2359
     33  C1R      105.3250  -21.5830  -20.3640 C.2   500  AHZ500      0.4227
     34  O1R      106.4990  -21.9650  -20.5630 O.co2 500  AHZ500     -0.2371
     35  O2R      105.0040  -20.5350  -19.7450 O.co2 500  AHZ500     -0.2371
     36  N3T      104.3480  -23.4250  -21.8160 N.2   500  AHZ500     -0.3967
     37  C4T      103.1960  -24.0300  -22.1610 C.2   500  AHZ500      0.0981
     38  C1M      103.1400  -25.1830  -23.1690 C.3   500  AHZ500      0.0624
@<TRIPOS>BOND
     1    13    10    1
     2    11    10    2
     3    11    12    1
     4    10     9    1
     5    12    15    1
     6     9     8    2
     7     9    14    1
     8    15    14    2
     9     8     7    1
    10    14     6    1
    11     7     6    1
    12     6     5    1
    13     5     2    1
    14     5    16    1
    15     1     2    1
    16     2     3    1
    17    16    17    1
    18    17     3    1
    19    17    18    1
    20     3     4    1
    21    18    19    1
    22    19    20    1
    23    23    20    1
    24    23    24    1
    25    22    20    2
    26    20    21    1
    27    25    24    2
    28    26    24    1
    29    24    27    1
    30    27    28    1
    31    38    37    1
    32    28    29    1
    33    37    36    2
    34    37    30    1
    35    36    32    2
    36    29    30    1
    37    30    31    1
    38    32    31    1
    39    32    33    1
    40    34    33   ar
    41    33    35   ar
