@<TRIPOS>MOLECULE
3jsm_TNV_A_1.pdb
 27 28 0 0 0
SMALL
GASTEIGER

@<TRIPOS>ATOM
      1  PA        69.5080   57.0710  -63.7730 P.3   823  TNV823      0.4035
      2  O1A       70.3870   56.0490  -62.9900 O.2   823  TNV823     -0.2526
      3  O2A       69.1410   58.1930  -62.7600 O.3   823  TNV823     -0.1374
      4  O3A       70.3750   57.6870  -64.8890 O.3   823  TNV823     -0.2466
      5  PB        70.9700   56.9730  -66.1320 P.3   823  TNV823      0.2296
      6  O1B       70.2840   57.5520  -67.4040 O.2   823  TNV823     -0.5167
      7  O2B       70.6820   55.4490  -66.0230 O.3   823  TNV823     -0.4368
      8  O3B       72.5190   57.1700  -66.2810 O.3   823  TNV823     -0.2258
      9  PG        73.5770   56.7640  -65.1950 P.3   823  TNV823      0.5373
     10  O1G       73.5710   55.2790  -65.0980 O.3   823  TNV823     -0.1143
     11  O2G       74.9580   57.1880  -65.6200 O.2   823  TNV823     -0.2221
     12  O3G       73.2860   57.3390  -63.7780 O.3   823  TNV823     -0.1143
     13  C9'       68.0070   56.3580  -64.3530 C.3   823  TNV823      0.2606
     14  O9'       67.3400   57.4660  -64.9020 O.3   823  TNV823     -0.3403
     15  C8'       66.0350   57.8550  -66.8010 C.3   823  TNV823      0.0365
     16  C7'       66.0680   57.1550  -65.4510 C.3   823  TNV823      0.1627
     17  C6'       64.9300   57.6250  -64.5270 C.3   823  TNV823      0.2336
     18  N9        65.0490   58.9960  -64.0600 N.pl3 823  TNV823     -0.1652
     19  C4        64.3420   60.0720  -64.5170 C.2   823  TNV823      0.3501
     20  N3        63.4070   60.0850  -65.4850 N.2   823  TNV823     -0.0055
     21  C2        62.9070   61.3390  -65.6880 C.3   823  TNV823      0.5254
     22  N1        63.2630   62.4850  -65.0400 N.2   823  TNV823      0.0021
     23  C6        64.2110   62.4200  -64.0710 C.2   823  TNV823      0.4393
     24  N6        64.5460   63.5900  -63.4400 N.pl3 823  TNV823      0.2180
     25  C5        64.8110   61.1580  -63.7750 C.2   823  TNV823      0.2525
     26  N7        65.7800   60.7520  -62.8680 N.2   823  TNV823     -0.2096
     27  C8        65.8970   59.4510  -63.0700 C.3   823  TNV823      0.3359
@<TRIPOS>BOND
     1     6     5    2
     2    15    16    1
     3     8     5    1
     4     8     9    1
     5     5     7    1
     6     5     4    1
     7    21    20    1
     8    21    22    1
     9    11     9    2
    10    20    19    2
    11    16    14    1
    12    16    17    1
    13     9    10    1
    14     9    12    1
    15    22    23    2
    16    14    13    1
    17     4     1    1
    18    17    18    1
    19    19    18    1
    20    19    25    1
    21    13     1    1
    22    23    25    1
    23    23    24    1
    24    18    27    1
    25    25    26    2
    26     1     2    2
    27     1     3    1
    28    27    26    1
