@<TRIPOS>MOLECULE
3jsq_HNE_A_1.pdb
 11 10 0 0 0
SMALL
GASTEIGER

@<TRIPOS>ATOM
      1  C1        27.9320   17.9940    2.8670 C.2   201  HNE201      0.2340
      2  C2        27.1020   18.1770    3.8960 C.2   201  HNE201      0.0433
      3  C3        26.3260   17.1930    4.3780 C.2   201  HNE201      0.0095
      4  C4        25.4660   17.5740    5.5680 C.3   201  HNE201      0.1741
      5  C5        25.1170   16.3610    6.4480 C.3   201  HNE201      0.0375
      6  C6        24.1470   16.7550    7.5810 C.3   201  HNE201      0.0030
      7  C7        24.8430   17.4880    8.7310 C.3   201  HNE201      0.0001
      8  C8        24.2200   18.8570    8.9770 C.3   201  HNE201      0.0000
      9  C9        25.2740   19.8930    9.3000 C.3   201  HNE201      0.0000
     10  O10       26.2640   18.4880    6.3680 O.3   201  HNE201     -0.2183
     11  O11       28.5990   18.9500    2.4850 O.2   201  HNE201     -0.2832
@<TRIPOS>BOND
     1    11     1    2
     2     1     2    1
     3     2     3    2
     4     3     4    1
     5     4    10    1
     6     4     5    1
     7     5     6    1
     8     6     7    1
     9     7     8    1
    10     8     9    1
