@<TRIPOS>MOLECULE
3jsu_KA5_A_1.pdb
 25 27 0 0 0
SMALL
GASTEIGER

@<TRIPOS>ATOM
      1  N1        29.6970    5.9360   56.3450 N.2   609  KA5609     -0.3294
      2  C2        30.4850    5.0110   55.9090 C.1   609  KA5609      0.2422
      3  N3        30.9370    4.1010   56.7000 N.2   609  KA5609     -0.3111
      4  C4        30.6260    4.0610   57.9560 C.2   609  KA5609      0.2214
      5  C5        29.7820    5.0050   58.5270 C.3   609  KA5609      0.1581
      6  C6        29.3380    5.9660   57.5910 C.2   609  KA5609      0.1355
      7  C7        28.4990    6.9880   57.9540 C.2   609  KA5609      0.0307
      8  C8        28.0680    7.0960   59.2440 C.2   609  KA5609      0.0190
      9  C9        28.4680    6.1710   60.2080 C.2   609  KA5609      0.0731
     10  C10       29.3190    5.1290   59.8540 C.2   609  KA5609      0.0648
     11  N11       30.8400    4.9960   54.6150 N.pl3 609  KA5609     -0.0232
     12  N12       31.2040    3.0390   58.5980 N.pl3 609  KA5609     -0.0961
     13 CL13       29.7450    4.0200   61.1470 Cl    609  KA5609     -0.0847
     14  N14       28.0180    6.2680   61.5140 N.pl3 609  KA5609     -0.2321
     15  C15       27.3320    7.4110   62.1070 C.3   609  KA5609      0.1416
     16  C16       25.8140    7.3990   61.9230 C.ar  609  KA5609      0.0364
     17  C17       25.1710    6.2080   61.6400 C.ar  609  KA5609      0.0374
     18  C18       23.8170    6.0950   61.4350 C.ar  609  KA5609      0.1387
     19  C19       23.0850    7.2720   61.5370 C.ar  609  KA5609      0.0400
     20  C20       23.6970    8.4770   61.8220 C.ar  609  KA5609      0.0397
     21  C21       25.0610    8.5830   62.0180 C.ar  609  KA5609      0.1366
     22  O22       25.6250    9.8340   62.2660 O.3   609  KA5609     -0.4717
     23  C23       26.0690   10.1300   63.5930 C.3   609  KA5609      0.2525
     24  O24       23.3340    4.8300   61.1390 O.3   609  KA5609     -0.4714
     25  C25       21.9570    4.5890   60.8870 C.3   609  KA5609      0.2525
@<TRIPOS>BOND
     1    11     2    1
     2     2     1    2
     3     2     3    2
     4     1     6    2
     5     3     4    2
     6     6     7    1
     7     6     5    1
     8     7     8    2
     9     4     5    1
    10     4    12    1
    11     5    10    1
    12     8     9    1
    13    10     9    2
    14    10    13    1
    15     9    14    1
    16    25    24    1
    17    24    18    1
    18    18    19   ar
    19    18    17   ar
    20    14    15    1
    21    19    20   ar
    22    17    16   ar
    23    20    21   ar
    24    16    21   ar
    25    16    15    1
    26    21    22    1
    27    22    23    1
