@<TRIPOS>MOLECULE
3jsu_UMP_A_1.pdb
 20 21 0 0 0
SMALL
GASTEIGER

@<TRIPOS>ATOM
      1  N1        44.3780   20.7670   19.3460 N.am  611  UMP611     -0.1790
      2  C2        43.5900   20.0940   20.3480 C.1   611  UMP611      0.2844
      3  N3        42.7990   20.9580   21.1240 N.2   611  UMP611     -0.2452
      4  C4        42.7250   22.3700   21.0000 C.1   611  UMP611      0.2182
      5  C5        43.5650   22.9640   19.9490 C.2   611  UMP611      0.1242
      6  C6        44.3620   22.1140   19.1630 C.2   611  UMP611      0.0928
      7  O2        43.5670   18.8810   20.5550 O.2   611  UMP611     -0.1918
      8  O4        42.0070   23.0510   21.7220 O.2   611  UMP611     -0.2085
      9  C1'       45.2960   20.0390   18.4090 C.3   611  UMP611      0.2090
     10  C2'       44.7500   19.0660   17.3570 C.3   611  UMP611      0.0874
     11  C3'       45.9710   18.8100   16.4590 C.3   611  UMP611      0.1857
     12  C4'       46.6860   20.1820   16.2820 C.3   611  UMP611      0.1774
     13  O3'       46.8500   17.8780   17.1690 O.3   611  UMP611     -0.2203
     14  O4'       46.2220   20.8640   17.5370 O.3   611  UMP611     -0.3339
     15  C5'       46.1640   20.9660   15.0540 C.3   611  UMP611      0.1858
     16  O5'       46.5200   20.2440   13.8100 O.3   611  UMP611     -0.2675
     17  P         45.5150   19.9880   12.6440 P.3   611  UMP611      0.5327
     18  OP1       46.1690   19.4630   11.4590 O.2   611  UMP611     -0.2224
     19  OP2       44.5850   19.0100   13.1550 O.3   611  UMP611     -0.1145
     20  OP3       44.8560   21.2260   12.2900 O.3   611  UMP611     -0.1145
@<TRIPOS>BOND
     1    18    17    2
     2    20    17    1
     3    17    19    1
     4    17    16    1
     5    16    15    1
     6    15    12    1
     7    12    11    1
     8    12    14    1
     9    11    13    1
    10    11    10    1
    11    10     9    1
    12    14     9    1
    13     9     1    1
    14     6     1    1
    15     6     5    2
    16     1     2   am
    17     5     4    1
    18     2     7    2
    19     2     3    2
    20     4     3    2
    21     4     8    2
