@<TRIPOS>MOLECULE
3jsu_NDP_A_1.pdb
 48 52 0 0 0
SMALL
GASTEIGER

@<TRIPOS>ATOM
      1  PA        35.8930    4.0500   68.6550 P.3   610  NDP610      0.2189
      2  O1A       36.9870    3.3160   68.0830 O.3   610  NDP610     -0.4371
      3  O2A       34.5380    4.0900   68.0170 O.2   610  NDP610     -0.5170
      4  O5B       35.6930    3.4660   70.1880 O.3   610  NDP610     -0.3112
      5  C5B       36.8410    3.2650   71.0180 C.3   610  NDP610      0.1813
      6  C4B       36.2780    2.5550   72.2410 C.3   610  NDP610      0.1820
      7  O4B       35.7630    1.2730   71.7710 O.3   610  NDP610     -0.3136
      8  C3B       37.1950    2.2000   73.3470 C.3   610  NDP610      0.2157
      9  O3B       37.6870    3.2710   74.1800 O.3   610  NDP610     -0.2175
     10  C2B       36.5680    1.0370   74.0090 C.3   610  NDP610      0.2314
     11  O2B       35.3890    1.2790   74.7940 O.3   610  NDP610     -0.2630
     12  C1B       36.2370    0.3200   72.7290 C.3   610  NDP610      0.3158
     13  N9A       37.2110   -0.6680   72.2030 N.pl3 610  NDP610     -0.1439
     14  C8A       38.0190   -0.5870   71.0420 C.3   610  NDP610      0.3377
     15  N7A       38.7550   -1.6680   70.8940 N.2   610  NDP610     -0.2095
     16  C5A       38.4560   -2.4870   71.9460 C.2   610  NDP610      0.2526
     17  C6A       38.8870   -3.7770   72.3570 C.2   610  NDP610      0.4393
     18  N6A       39.7890   -4.4440   71.6500 N.pl3 610  NDP610      0.2180
     19  N1A       38.3700   -4.3280   73.4900 N.2   610  NDP610      0.0021
     20  C2A       37.4440   -3.6470   74.2170 C.3   610  NDP610      0.5254
     21  N3A       36.9670   -2.4250   73.9180 N.2   610  NDP610     -0.0055
     22  C4A       37.5140   -1.8940   72.7550 C.2   610  NDP610      0.3518
     23  O3        36.2320    5.5400   68.9660 O.3   610  NDP610     -0.2703
     24  PN        37.0720    6.7250   68.3340 P.3   610  NDP610      0.2189
     25  O1N       37.0920    7.8020   69.3460 O.3   610  NDP610     -0.4371
     26  O2N       38.3260    6.1030   67.8020 O.2   610  NDP610     -0.5170
     27  O5D       36.1350    7.0230   67.0610 O.3   610  NDP610     -0.3112
     28  C5D       34.7910    7.6270   67.2160 C.3   610  NDP610      0.1813
     29  C4D       34.7180    8.8560   66.2590 C.3   610  NDP610      0.1799
     30  O4D       34.7980    8.3100   64.9680 O.3   610  NDP610     -0.3327
     31  C3D       33.3300    9.5230   66.3020 C.3   610  NDP610      0.2158
     32  O3D       33.4470   10.9450   66.1690 O.3   610  NDP610     -0.2175
     33  C2D       32.4950    8.8820   65.2220 C.3   610  NDP610      0.2309
     34  O2D       31.5390    9.8220   64.7460 O.3   610  NDP610     -0.2158
     35  C1D       33.6810    8.7090   64.1730 C.3   610  NDP610      0.2263
     36  N1N       33.4250    7.6440   63.1640 N.pl3 610  NDP610     -0.2787
     37  C2N       33.4320    8.0990   61.8270 C.3   610  NDP610      0.1244
     38  C3N       33.2020    7.1080   60.7870 C.2   610  NDP610      0.0544
     39  C7N       33.2060    7.5280   59.3670 C.2   610  NDP610      0.2818
     40  O7N       33.0250    6.7460   58.4120 O.2   610  NDP610     -0.2670
     41  N7N       33.4200    8.8240   59.0420 N.am  610  NDP610     -0.0839
     42  C4N       32.9860    5.7650   61.1770 C.2   610  NDP610      0.0033
     43  C5N       32.9840    5.3450   62.4930 C.2   610  NDP610      0.0157
     44  C6N       33.2060    6.2840   63.4940 C.2   610  NDP610      0.0633
     45  P2B       35.3330    1.5060   76.3170 P.3   610  NDP610      0.5328
     46  O1X       35.7010    2.9290   76.4790 O.2   610  NDP610     -0.2224
     47  O2X       33.9630    1.2000   76.7660 O.3   610  NDP610     -0.1145
     48  O3X       36.3380    0.5660   76.9930 O.3   610  NDP610     -0.1145
@<TRIPOS>BOND
     1    40    39    2
     2    41    39   am
     3    39    38    1
     4    38    42    2
     5    38    37    1
     6    42    43    1
     7    37    36    1
     8    43    44    2
     9    36    44    1
    10    36    35    1
    11    35    30    1
    12    35    33    1
    13    34    33    1
    14    30    29    1
    15    33    31    1
    16    32    31    1
    17    29    31    1
    18    29    28    1
    19    27    28    1
    20    27    24    1
    21    26    24    2
    22     3     1    2
    23     2     1    1
    24    24    23    1
    25    24    25    1
    26     1    23    1
    27     1     4    1
    28     4     5    1
    29    15    14    1
    30    15    16    2
    31     5     6    1
    32    14    13    1
    33    18    17    1
    34     7     6    1
    35     7    12    1
    36    16    17    1
    37    16    22    1
    38    13    12    1
    39    13    22    1
    40     6     8    1
    41    17    19    2
    42    12    10    1
    43    22    21    2
    44     8    10    1
    45     8     9    1
    46    19    20    1
    47    21    20    1
    48    10    11    1
    49    11    45    1
    50    45    46    2
    51    45    47    1
    52    45    48    1
