@<TRIPOS>MOLECULE
3jsw_JAR_A_1.pdb
 26 29 0 0 0
SMALL
GASTEIGER

@<TRIPOS>ATOM
      1  C1        79.6000   50.9590   40.5740 C.3   900  JAR900      0.0237
      2  C2        78.0890   50.7740   40.6380 C.3   900  JAR900      0.0987
      3  C3        77.5840   49.5020   39.9690 C.3   900  JAR900      0.0237
      4  N4        77.6120   50.8250   42.0440 N.pl3 900  JAR900     -0.1884
      5  N5        78.3100   50.2130   43.0960 N.2   900  JAR900     -0.1777
      6  C6        77.5790   50.4910   44.2030 C.2   900  JAR900      0.1176
      7  C7        76.4900   51.2790   43.8380 C.3   900  JAR900      0.2301
      8  C8        75.4130   51.9930   44.5240 C.1   900  JAR900      0.2032
      9  O9        75.2060   51.9600   45.7480 O.2   900  JAR900     -0.2126
     10  N10       74.5850   52.7160   43.7380 N.2   900  JAR900     -0.2740
     11  C11       74.6700   52.8720   42.3870 C.1   900  JAR900      0.1270
     12  N12       75.6210   52.2840   41.7250 N.2   900  JAR900     -0.3291
     13  C13       76.5310   51.4960   42.4640 C.2   900  JAR900      0.2132
     14  C14       73.6620   53.6650   41.6040 C.3   900  JAR900      0.1272
     15  C16       72.8240   52.7630   40.6910 C.3   900  JAR900      0.0895
     16  N17       73.1200   53.2510   39.3380 N.3   900  JAR900     -0.2680
     17  C18       71.9190   53.1420   38.5320 C.3   900  JAR900      0.0992
     18  C19       71.6400   51.6490   38.3090 C.ar  900  JAR900     -0.0061
     19  C20       70.3610   51.1150   38.6550 C.ar  900  JAR900     -0.0029
     20  C21       70.0770   49.7310   38.4550 C.ar  900  JAR900     -0.0003
     21  C22       71.0890   48.9120   37.8990 C.ar  900  JAR900     -0.0000
     22  C23       72.3490   49.4630   37.5670 C.ar  900  JAR900     -0.0003
     23  C24       72.6270   50.8300   37.7740 C.ar  900  JAR900     -0.0029
     24  C25       73.4570   54.6310   39.4490 C.3   900  JAR900      0.0735
     25  C26       74.3080   54.7110   40.6960 C.3   900  JAR900      0.0333
     26  C28       74.5010   56.0910   41.3180 C.3   900  JAR900      0.0026
@<TRIPOS>BOND
     1    22    23   ar
     2    22    21   ar
     3    23    18   ar
     4    21    20   ar
     5    18    17    1
     6    18    19   ar
     7    20    19   ar
     8    17    16    1
     9    16    24    1
    10    16    15    1
    11    24    25    1
    12     3     2    1
    13     1     2    1
    14     2     4    1
    15    15    14    1
    16    25    26    1
    17    25    14    1
    18    14    11    1
    19    12    11    2
    20    12    13    2
    21     4    13    1
    22     4     5    1
    23    11    10    2
    24    13     7    1
    25     5     6    2
    26    10     8    2
    27     7     6    1
    28     7     8    1
    29     8     9    2
