@<TRIPOS>MOLECULE
3jsx_CC2_A_1.pdb
 25 28 0 0 0
SMALL
GASTEIGER

@<TRIPOS>ATOM
      1  C1        13.2920   -4.2230   34.9070 C.ar  547  CC2547     -0.0228
      2  O1        12.4820   -4.7890   30.0190 O.3   547  CC2547     -0.2866
      3  C2        13.4680   -2.9760   34.3300 C.ar  547  CC2547      0.0332
      4  O2        13.4940   -1.5950   32.3960 O.2   547  CC2547     -0.4211
      5  C3        13.3080   -2.8200   32.9600 C.ar  547  CC2547      0.1514
      6  C4        12.9780   -3.8890   32.1540 C.ar  547  CC2547      0.0731
      7  C5        12.8030   -5.1320   32.7310 C.ar  547  CC2547      0.0017
      8  C6        12.9620   -5.3090   34.1040 C.ar  547  CC2547     -0.0255
      9  O7        13.4980   -0.2640   30.5970 O.2   547  CC2547     -0.2447
     10  C8        13.3280   -1.4030   31.0580 C.ar  547  CC2547      0.3451
     11  C9        13.0090   -2.4540   30.2150 C.ar  547  CC2547      0.0970
     12  C10       12.8200   -3.7170   30.7790 C.ar  547  CC2547      0.2011
     13  C11       13.4680   -4.3850   36.3880 C.3   547  CC2547      0.0308
     14  C12       12.7710   -6.6810   34.6960 C.3   547  CC2547      0.0307
     15  C13       12.8380   -2.1780   28.7330 C.3   547  CC2547      0.0625
     16  C14       11.3950   -1.7420   28.5320 C.ar  547  CC2547     -0.0175
     17  C15       10.9070   -1.3330   27.2790 C.ar  547  CC2547     -0.0036
     18  C16        9.5700   -0.9590   27.1380 C.ar  547  CC2547     -0.0003
     19  C17        8.7180   -0.9840   28.2360 C.ar  547  CC2547     -0.0000
     20  C18        9.1950   -1.3920   29.4950 C.ar  547  CC2547     -0.0003
     21  C19       10.5280   -1.7670   29.6290 C.ar  547  CC2547     -0.0039
     22  C20       11.7450   -1.2990   26.1710 C.ar  547  CC2547     -0.0003
     23  C21       11.2580   -0.8890   24.9410 C.ar  547  CC2547     -0.0000
     24  C22        9.9270   -0.5120   24.8080 C.ar  547  CC2547     -0.0000
     25  C23        9.0840   -0.5520   25.9150 C.ar  547  CC2547     -0.0000
@<TRIPOS>BOND
     1    24    23   ar
     2    24    25   ar
     3    23    22   ar
     4    25    18   ar
     5    22    17   ar
     6    18    17   ar
     7    18    19   ar
     8    17    16   ar
     9    19    20   ar
    10    16    15    1
    11    16    21   ar
    12    15    11    1
    13    20    21   ar
    14     2    12    1
    15    11    12   ar
    16    11    10   ar
    17     9    10    2
    18    12     6   ar
    19    10     4   ar
    20     6     7   ar
    21     6     5   ar
    22     4     5   ar
    23     7     8   ar
    24     5     3   ar
    25     8    14    1
    26     8     1   ar
    27     3     1   ar
    28     1    13    1
