@<TRIPOS>MOLECULE
3jsz_UPG_A_1.pdb
 36 38 0 0 0
SMALL
GASTEIGER

@<TRIPOS>ATOM
      1  N1        45.5850    9.0540   -4.9020 N.am  526  UPG526     -0.1766
      2  C2        46.5490    9.0460   -5.9240 C.1   526  UPG526      0.2845
      3  N3        47.6700    9.7680   -5.8090 N.2   526  UPG526     -0.2452
      4  C4        47.9080   10.4960   -4.6970 C.1   526  UPG526      0.2182
      5  C5        46.9790   10.5140   -3.6610 C.2   526  UPG526      0.1242
      6  C6        45.8070    9.7730   -3.7730 C.2   526  UPG526      0.0929
      7  O2        46.3220    8.3500   -6.9500 O.2   526  UPG526     -0.1918
      8  O4        48.9610   11.1720   -4.6010 O.2   526  UPG526     -0.2085
      9  C1C       44.3700    8.2510   -5.0930 C.3   526  UPG526      0.2401
     10  C2C       44.6420    6.7760   -4.8920 C.3   526  UPG526      0.2319
     11  O2C       43.8030    5.9790   -5.7340 O.3   526  UPG526     -0.2157
     12  C3C       44.2130    6.5770   -3.4560 C.3   526  UPG526      0.2158
     13  C4C       43.0190    7.4940   -3.3630 C.3   526  UPG526      0.1799
     14  O4C       43.3700    8.6320   -4.1400 O.3   526  UPG526     -0.3320
     15  O3C       43.9130    5.2260   -3.1450 O.3   526  UPG526     -0.2175
     16  C5C       42.6600    7.9320   -1.9570 C.3   526  UPG526      0.1813
     17  O5C       43.7890    8.5310   -1.3680 O.3   526  UPG526     -0.3112
     18  PA        43.9200    8.4570    0.2450 P.3   526  UPG526      0.2189
     19  O1A       43.6310    7.0840    0.7690 O.3   526  UPG526     -0.4371
     20  O2A       45.2710    9.0390    0.5630 O.2   526  UPG526     -0.5170
     21  O3A       42.8400    9.5300    0.6760 O.3   526  UPG526     -0.2703
     22  PB        41.5330    9.3570    1.5810 P.3   526  UPG526      0.2208
     23  O1B       41.0180   10.7400    1.8660 O.2   526  UPG526     -0.5170
     24  O2B       41.7910    8.5010    2.7860 O.3   526  UPG526     -0.4371
     25  O3B       40.5390    8.6220    0.5520 O.3   526  UPG526     -0.2857
     26  C1'       39.1260    8.7500    0.6050 C.3   526  UPG526      0.2742
     27  C2'       38.5630    7.4630    0.0350 C.3   526  UPG526      0.2409
     28  C3'       39.0210    7.3100   -1.4080 C.3   526  UPG526      0.2198
     29  C4'       38.6570    8.5540   -2.2160 C.3   526  UPG526      0.2144
     30  C5'       39.1000    9.8490   -1.5390 C.3   526  UPG526      0.1835
     31  C6'       38.5760   11.0630   -2.3040 C.3   526  UPG526      0.2142
     32  O2'       39.0010    6.3520    0.8340 O.3   526  UPG526     -0.2149
     33  O3'       38.4070    6.1510   -1.9920 O.3   526  UPG526     -0.2174
     34  O4'       39.3150    8.4640   -3.4940 O.3   526  UPG526     -0.2176
     35  O5'       38.6930    9.8900   -0.1510 O.3   526  UPG526     -0.3254
     36  O6'       37.1450   11.0550   -2.4120 O.3   526  UPG526     -0.2176
@<TRIPOS>BOND
     1     7     2    2
     2     2     3    2
     3     2     1   am
     4     3     4    2
     5    11    10    1
     6     9     1    1
     7     9    10    1
     8     9    14    1
     9     1     6    1
    10    10    12    1
    11     4     8    2
    12     4     5    1
    13    14    13    1
    14     6     5    2
    15    34    29    1
    16    12    13    1
    17    12    15    1
    18    13    16    1
    19    36    31    1
    20    31    30    1
    21    29    30    1
    22    29    28    1
    23    33    28    1
    24    16    17    1
    25    30    35    1
    26    28    27    1
    27    17    18    1
    28    35    26    1
    29    27    26    1
    30    27    32    1
    31    18    20    2
    32    18    21    1
    33    18    19    1
    34    25    26    1
    35    25    22    1
    36    21    22    1
    37    22    23    2
    38    22    24    1
