@<TRIPOS>MOLECULE
3jt1_UDP_A_1.pdb
 25 26 0 0 0
SMALL
GASTEIGER

@<TRIPOS>ATOM
      1  N1        45.2640   -8.8260   38.6680 N.am  526  UDP526     -0.1996
      2  C2        46.1860   -8.7890   39.6730 C.1   526  UDP526      0.2802
      3  N3        47.3580   -9.4660   39.5780 N.2   526  UDP526     -0.2497
      4  C4        47.6160  -10.1880   38.4590 C.1   526  UDP526      0.1941
      5  C5        46.6930  -10.2170   37.4300 C.3   526  UDP526      0.1579
      6  C6        45.6080   -9.3680   37.4760 C.3   526  UDP526      0.1249
      7  O2        45.9650   -8.1480   40.6720 O.2   526  UDP526     -0.1922
      8  O4        48.6640  -10.7930   38.3800 O.2   526  UDP526     -0.2133
      9  C1'       44.0090   -8.0690   38.8270 C.3   526  UDP526      0.2361
     10  C2'       44.2660   -6.6110   38.5330 C.3   526  UDP526      0.2316
     11  O2'       43.4630   -5.8500   39.3910 O.3   526  UDP526     -0.2157
     12  C3'       43.8920   -6.4820   37.0700 C.3   526  UDP526      0.2158
     13  C4'       42.8870   -7.5890   36.8300 C.3   526  UDP526      0.1799
     14  O4'       43.0280   -8.4810   37.9060 O.3   526  UDP526     -0.3322
     15  O3'       43.3830   -5.2220   36.7530 O.3   526  UDP526     -0.2175
     16  C5'       43.1970   -8.3930   35.5820 C.3   526  UDP526      0.1813
     17  O5'       42.3720   -8.0680   34.4950 O.3   526  UDP526     -0.3111
     18  PA        43.1310   -7.8970   33.1000 P.3   526  UDP526      0.2231
     19  O1A       43.9130   -6.6550   33.1590 O.3   526  UDP526     -0.4370
     20  O2A       43.9760   -9.0730   32.8870 O.2   526  UDP526     -0.5169
     21  O3A       42.0920   -7.7080   31.8880 O.3   526  UDP526     -0.2261
     22  PB        42.5630   -6.8290   30.6090 P.3   526  UDP526      0.5373
     23  O1B       43.3780   -7.6870   29.7380 O.2   526  UDP526     -0.2221
     24  O2B       43.3530   -5.6780   31.0540 O.3   526  UDP526     -0.1143
     25  O3B       41.4170   -6.3650   29.8400 O.3   526  UDP526     -0.1143
@<TRIPOS>BOND
     1    23    22    2
     2    25    22    1
     3    22    24    1
     4    22    21    1
     5    21    18    1
     6    20    18    2
     7    18    19    1
     8    18    17    1
     9    17    16    1
    10    16    13    1
    11    15    12    1
    12    13    12    1
    13    13    14    1
    14    12    10    1
    15     5     6    1
    16     5     4    1
    17     6     1    1
    18    14     9    1
    19     8     4    2
    20     4     3    2
    21    10     9    1
    22    10    11    1
    23     1     9    1
    24     1     2   am
    25     3     2    2
    26     2     7    2
