@<TRIPOS>MOLECULE
3jt3_H4B_A_1.pdb
 17 18 0 0 0
SMALL
GASTEIGER

@<TRIPOS>ATOM
      1  N1         9.8840    2.6110   33.8100 N.2   760  H4B760     -0.2683
      2  C2        10.0410    2.2030   32.5470 C.1   760  H4B760      0.2608
      3  N2        11.3120    2.1150   32.0350 N.pl3 760  H4B760     -0.0220
      4  N3         8.9510    1.9240   31.7940 N.2   760  H4B760     -0.2474
      5  C4         7.6960    2.0160   32.2990 C.1   760  H4B760      0.2441
      6  O4         6.7340    1.7160   31.5390 O.2   760  H4B760     -0.2063
      7  C4A        7.5280    2.4630   33.6100 C.2   760  H4B760      0.2463
      8  C8A        8.6600    2.7680   34.3550 C.1   760  H4B760      0.1270
      9  N5         6.3180    2.6170   34.2110 N.2   760  H4B760     -0.2460
     10  N8         8.5910    3.1560   35.6640 N.2   760  H4B760     -0.2054
     11  C6         6.2340    3.5700   35.3480 C.3   760  H4B760      0.1627
     12  C7         7.3230    3.3190   36.3750 C.3   760  H4B760      0.1643
     13  C9         4.8500    3.6110   35.9880 C.3   760  H4B760      0.2063
     14  O9         4.5340    2.2820   36.3900 O.3   760  H4B760     -0.2183
     15  C10        4.7510    4.5300   37.1990 C.3   760  H4B760      0.1842
     16  C11        3.3060    4.7230   37.6270 C.3   760  H4B760      0.0383
     17  O10        5.2580    5.8320   36.8860 O.3   760  H4B760     -0.2204
@<TRIPOS>BOND
     1     6     5    2
     2     4     5    2
     3     4     2    2
     4     3     2    1
     5     5     7    1
     6     2     1    2
     7     7     9    2
     8     7     8    1
     9     1     8    2
    10     9    11    1
    11     8    10    2
    12    11    13    1
    13    11    12    1
    14    10    12    1
    15    13    14    1
    16    13    15    1
    17    17    15    1
    18    15    16    1
