@<TRIPOS>MOLECULE
3jt3_HEM_A_1.pdb
 43 50 0 0 0
SMALL
GASTEIGER

@<TRIPOS>ATOM
      1  CHA       12.8290    4.5990   26.5730 C.2   750  HEM750      0.0000
      2  CHB       16.7600    1.7510   26.1600 C.2   750  HEM750      0.0000
      3  CHC       17.7110    3.4720   21.7310 C.2   750  HEM750      0.0000
      4  CHD       14.6360    7.1040   22.6780 C.2   750  HEM750      0.0000
      5  C1A       13.7320    3.5980   26.7740 C.2   750  HEM750      0.0000
      6  C2A       13.6590    2.5940   27.7640 C.2   750  HEM750      0.0000
      7  C3A       14.7200    1.8080   27.6560 C.2   750  HEM750      0.0000
      8  C4A       15.5470    2.2910   26.5650 C.2   750  HEM750      0.0000
      9  CMA       15.0060    0.5870   28.5510 C.3   750  HEM750      0.0000
     10  CAA       12.4760    2.4340   28.7210 C.3   750  HEM750      0.0000
     11  CBA       11.5040    1.8850   27.6910 C.3   750  HEM750      0.0000
     12  CGA       10.2850    1.2650   28.3340 C.2   750  HEM750      0.0000
     13  O1A       10.3980    0.8110   29.5090 O.co2 750  HEM750      0.0000
     14  O2A        9.2230    1.2580   27.6560 O.co2 750  HEM750      0.0000
     15  C1B       17.3360    1.9260   24.9480 C.ar  750  HEM750      0.0000
     16  C2B       18.4660    1.1740   24.4260 C.ar  750  HEM750      0.0000
     17  C3B       18.7130    1.6530   23.2110 C.ar  750  HEM750      0.0000
     18  C4B       17.7860    2.7420   22.9260 C.ar  750  HEM750      0.0000
     19  CMB       19.2210   -0.0060   25.1050 C.3   750  HEM750      0.0000
     20  CAB       19.7970    1.1090   22.2710 C.2   750  HEM750      0.0000
     21  CBB       20.2190    1.8430   21.2480 C.2   750  HEM750      0.0000
     22  C1C       16.9280    4.6050   21.5480 C.2   750  HEM750      0.0000
     23  C2C       16.8640    5.4530   20.3670 C.2   750  HEM750      0.0000
     24  C3C       16.0000    6.4640   20.6460 C.2   750  HEM750      0.0000
     25  C4C       15.5090    6.2930   21.9880 C.2   750  HEM750      0.0000
     26  CMC       17.6430    5.1310   19.0580 C.3   750  HEM750      0.0000
     27  CAC       15.5410    7.6270   19.7480 C.2   750  HEM750      0.0000
     28  CBC       16.4000    8.0490   18.8210 C.2   750  HEM750      0.0000
     29  C1D       13.8700    6.7290   23.7870 C.ar  750  HEM750      0.0000
     30  C2D       12.7410    7.4830   24.2600 C.ar  750  HEM750      0.0000
     31  C3D       12.2120    6.6990   25.4590 C.ar  750  HEM750      0.0000
     32  C4D       13.0330    5.5450   25.5870 C.ar  750  HEM750      0.0000
     33  CMD       12.1560    8.8110   23.7190 C.3   750  HEM750      0.0000
     34  CAD       11.0060    7.0450   26.3360 C.3   750  HEM750      0.0000
     35  CBD        9.8080    6.6340   25.5110 C.3   750  HEM750      0.0000
     36  CGD        8.5960    6.4540   26.3860 C.2   750  HEM750      0.0000
     37  O1D        8.2350    7.4050   27.1380 O.co2 750  HEM750      0.0000
     38  O2D        8.0200    5.3380   26.2940 O.co2 750  HEM750      0.0000
     39  NA        14.8840    3.3900   26.0450 N.2   750  HEM750      0.0000
     40  NB        16.9610    2.9060   24.0390 N.ar  750  HEM750      0.0000
     41  NC        16.0800    5.1500   22.4840 N.2   750  HEM750      0.0000
     42  ND        14.0360    5.5960   24.6120 N.ar  750  HEM750      0.0000
     43 FE         15.7130    4.5220   24.5070 Fe    750  HEM750      0.0000
@<TRIPOS>BOND
     1    28    27    2
     2    26    23    1
     3    27    24    1
     4    23    24    2
     5    23    22    1
     6    24    25    1
     7    21    20    2
     8    22     3    2
     9    22    41    1
    10     3    18    1
    11    25    41    2
    12    25     4    1
    13    20    17    1
    14    41    43    1
    15     4    29    2
    16    18    17   ar
    17    18    40   ar
    18    17    16   ar
    19    33    30    1
    20    29    30   ar
    21    29    42   ar
    22    40    43    1
    23    40    15   ar
    24    30    31   ar
    25    16    15   ar
    26    16    19    1
    27    43    42    1
    28    43    39    1
    29    42    32   ar
    30    15     2    1
    31    31    32   ar
    32    31    34    1
    33    35    34    1
    34    35    36    1
    35    32     1    2
    36    39     8    1
    37    39     5    2
    38     2     8    2
    39    38    36   ar
    40    36    37   ar
    41     8     7    1
    42     1     5    1
    43     5     6    1
    44     7     6    2
    45     7     9    1
    46    14    12   ar
    47    11    12    1
    48    11    10    1
    49     6    10    1
    50    12    13   ar
