@<TRIPOS>MOLECULE
3jt3_JM2_A_1.pdb
 14 13 0 0 0
SMALL
GASTEIGER

@<TRIPOS>ATOM
      1  C          9.0670   -3.1070   24.6630 C.2   800  JM2800      0.3819
      2  N          9.9170   -1.5000   26.2800 N.3   800  JM2800     -0.1208
      3  C1        13.9290    0.4130   23.5600 C.2   800  JM2800      0.4141
      4  C2        14.1990    1.6800   22.7800 C.3   800  JM2800      0.1861
      5  S3        13.8990    1.3160   21.0650 S.3   800  JM2800     -0.1263
      6  C4        13.4830    2.8750   20.3450 C.3   800  JM2800      0.0698
      7  CA         9.2950   -1.6300   24.9570 C.3   800  JM2800      0.1948
      8  CB        10.0880   -0.8750   23.8610 C.3   800  JM2800      0.0394
      9  CD        11.7190    0.9830   23.7160 C.2   800  JM2800      0.2091
     10  NE        12.6730    0.1750   23.9720 N.2   800  JM2800     -0.0349
     11  CG        10.3200    0.6110   24.1900 C.3   800  JM2800      0.0795
     12  NH        14.9370   -0.4270   23.7990 N.2   800  JM2800      0.1955
     13  OA1        8.5750   -3.4510   23.5520 O.co2 800  JM2800     -0.2441
     14  OA2        9.3470   -3.9510   25.5530 O.co2 800  JM2800     -0.2441
@<TRIPOS>BOND
     1     6     5    1
     2     5     4    1
     3     4     3    1
     4    13     1   ar
     5     3    12    2
     6     3    10    1
     7     9    10    2
     8     9    11    1
     9     8    11    1
    10     8     7    1
    11     1     7    1
    12     1    14   ar
    13     7     2    1
