@<TRIPOS>MOLECULE
3jt4_HEM_A_1.pdb
 43 50 0 0 0
SMALL
GASTEIGER

@<TRIPOS>ATOM
      1  CHA       13.0700    4.6830   26.3010 C.2   750  HEM750      0.0000
      2  CHB       17.0300    1.8640   25.9470 C.2   750  HEM750      0.0000
      3  CHC       17.8930    3.7520   21.5810 C.2   750  HEM750      0.0000
      4  CHD       14.8910    7.3830   22.6200 C.2   750  HEM750      0.0000
      5  C1A       13.9670    3.6390   26.4890 C.2   750  HEM750      0.0000
      6  C2A       13.7940    2.5150   27.3820 C.2   750  HEM750      0.0000
      7  C3A       14.8810    1.7180   27.2970 C.2   750  HEM750      0.0000
      8  C4A       15.7820    2.3290   26.3250 C.2   750  HEM750      0.0000
      9  CMA       15.1480    0.3880   28.0660 C.3   750  HEM750      0.0000
     10  CAA       12.5110    2.3620   28.2260 C.3   750  HEM750      0.0000
     11  CBA       11.4010    1.8720   27.2930 C.3   750  HEM750      0.0000
     12  CGA       10.1770    1.4360   28.0540 C.2   750  HEM750      0.0000
     13  O1A       10.2640    1.1540   29.2800 O.co2 750  HEM750      0.0000
     14  O2A        9.0990    1.3170   27.4250 O.co2 750  HEM750      0.0000
     15  C1B       17.5820    2.0750   24.7160 C.ar  750  HEM750      0.0000
     16  C2B       18.6180    1.2950   24.0970 C.ar  750  HEM750      0.0000
     17  C3B       18.8400    1.8030   22.8890 C.ar  750  HEM750      0.0000
     18  C4B       17.9800    2.9490   22.7110 C.ar  750  HEM750      0.0000
     19  CMB       19.2960    0.0530   24.7200 C.3   750  HEM750      0.0000
     20  CAB       19.8690    1.2310   21.8990 C.2   750  HEM750      0.0000
     21  CBB       20.5210    1.9440   20.9900 C.2   750  HEM750      0.0000
     22  C1C       17.1110    4.8850   21.4440 C.2   750  HEM750      0.0000
     23  C2C       17.0520    5.7330   20.2640 C.2   750  HEM750      0.0000
     24  C3C       16.2240    6.7540   20.5360 C.2   750  HEM750      0.0000
     25  C4C       15.7510    6.5840   21.8940 C.2   750  HEM750      0.0000
     26  CMC       17.8030    5.3950   18.9640 C.3   750  HEM750      0.0000
     27  CAC       15.8220    7.9200   19.6110 C.2   750  HEM750      0.0000
     28  CBC       16.5240    8.1390   18.4840 C.2   750  HEM750      0.0000
     29  C1D       14.0760    6.9640   23.6540 C.ar  750  HEM750      0.0000
     30  C2D       12.9190    7.6750   24.1220 C.ar  750  HEM750      0.0000
     31  C3D       12.3670    6.8440   25.2600 C.ar  750  HEM750      0.0000
     32  C4D       13.2210    5.6980   25.3810 C.ar  750  HEM750      0.0000
     33  CMD       12.3700    9.0220   23.5820 C.3   750  HEM750      0.0000
     34  CAD       11.1110    7.1030   26.0760 C.3   750  HEM750      0.0000
     35  CBD       10.0440    6.2980   25.3060 C.3   750  HEM750      0.0000
     36  CGD        8.7320    6.3760   26.0510 C.2   750  HEM750      0.0000
     37  O1D        8.5490    7.3750   26.7850 O.co2 750  HEM750      0.0000
     38  O2D        7.8740    5.4600   25.9270 O.co2 750  HEM750      0.0000
     39  NA        15.1860    3.5030   25.8780 N.2   750  HEM750      0.0000
     40  NB        17.2320    3.1220   23.8580 N.ar  750  HEM750      0.0000
     41  NC        16.3150    5.4480   22.4070 N.2   750  HEM750      0.0000
     42  ND        14.2450    5.8280   24.4330 N.ar  750  HEM750      0.0000
     43 FE         15.7930    4.5250   24.1950 Fe    750  HEM750      0.0000
@<TRIPOS>BOND
     1    28    27    2
     2    26    23    1
     3    27    24    1
     4    23    24    2
     5    23    22    1
     6    24    25    1
     7    21    20    2
     8    22     3    2
     9    22    41    1
    10     3    18    1
    11    25    41    2
    12    25     4    1
    13    20    17    1
    14    41    43    1
    15     4    29    2
    16    18    17   ar
    17    18    40   ar
    18    17    16   ar
    19    33    30    1
    20    29    30   ar
    21    29    42   ar
    22    40    43    1
    23    40    15   ar
    24    16    15   ar
    25    16    19    1
    26    30    31   ar
    27    43    42    1
    28    43    39    1
    29    42    32   ar
    30    15     2    1
    31    31    32   ar
    32    31    34    1
    33    35    36    1
    34    35    34    1
    35    32     1    2
    36    39     8    1
    37    39     5    2
    38    38    36   ar
    39     2     8    2
    40    36    37   ar
    41     1     5    1
    42     8     7    1
    43     5     6    1
    44    11    12    1
    45    11    10    1
    46     7     6    2
    47     7     9    1
    48     6    10    1
    49    14    12   ar
    50    12    13   ar
