@<TRIPOS>MOLECULE
3jt4_JM8_A_1.pdb
 16 15 0 0 0
SMALL
GASTEIGER

@<TRIPOS>ATOM
      1  C          8.7160   -3.1780   24.5080 C.2   800  JM8800      0.3819
      2  N          9.3980   -1.3590   25.9970 N.3   800  JM8800     -0.1208
      3  C1        13.9810   -0.1620   23.1310 C.2   800  JM8800      0.3904
      4  C2        14.3010    0.4350   21.9650 C.3   800  JM8800      0.1375
      5  C3        15.0810    1.7170   22.0450 C.3   800  JM8800      0.0705
      6  S4        14.1690    2.9990   22.8710 S.3   800  JM8800     -0.1396
      7  C5        13.5740    3.9270   21.4810 C.3   800  JM8800      0.0576
      8  C6        13.0080    3.0230   20.4010 C.3   800  JM8800      0.0125
      9  CA         8.9470   -1.6870   24.6430 C.3   800  JM8800      0.1945
     10  CB         9.9990   -1.2340   23.6210 C.3   800  JM8800      0.0350
     11  CD        11.5860    0.5550   22.9100 C.3   800  JM8800      0.2510
     12  NE        12.7230   -0.0930   23.5860 N.pl3 800  JM8800     -0.0315
     13  CG        10.3130    0.2640   23.6960 C.3   800  JM8800      0.0574
     14  NH        14.9740   -0.7660   23.7980 N.2   800  JM8800      0.1918
     15  OA1        8.3090   -3.6680   23.4280 O.co2 800  JM8800     -0.2441
     16  OA2        8.9660   -3.9160   25.4730 O.co2 800  JM8800     -0.2441
@<TRIPOS>BOND
     1     8     7    1
     2     7     6    1
     3     4     5    1
     4     4     3    1
     5     5     6    1
     6    11    12    1
     7    11    13    1
     8     3    12    1
     9     3    14    2
    10    15     1   ar
    11    10    13    1
    12    10     9    1
    13     1     9    1
    14     1    16   ar
    15     9     2    1
