@<TRIPOS>MOLECULE
3jt4_H4B_A_1.pdb
 17 18 0 0 0
SMALL
GASTEIGER

@<TRIPOS>ATOM
      1  N1         9.9360    2.5600   33.6210 N.2   760  H4B760     -0.2683
      2  C2        10.0870    2.2250   32.3300 C.1   760  H4B760      0.2608
      3  N2        11.3230    2.1090   31.7630 N.pl3 760  H4B760     -0.0220
      4  N3         8.9940    1.9680   31.5810 N.2   760  H4B760     -0.2474
      5  C4         7.7550    2.0610   32.1080 C.1   760  H4B760      0.2441
      6  O4         6.7780    1.7960   31.3750 O.2   760  H4B760     -0.2063
      7  C4A        7.5770    2.4240   33.4480 C.2   760  H4B760      0.2463
      8  C8A        8.7210    2.6840   34.2020 C.1   760  H4B760      0.1270
      9  N5         6.3400    2.5540   34.0300 N.2   760  H4B760     -0.2460
     10  N8         8.6220    3.0320   35.5170 N.2   760  H4B760     -0.2054
     11  C6         6.2350    3.4740   35.1690 C.3   760  H4B760      0.1627
     12  C7         7.3220    3.1830   36.1920 C.3   760  H4B760      0.1643
     13  C9         4.8430    3.4990   35.8010 C.3   760  H4B760      0.2063
     14  O9         4.4740    2.1560   36.2040 O.3   760  H4B760     -0.2183
     15  C10        4.7420    4.4280   37.0180 C.3   760  H4B760      0.1842
     16  C11        3.2990    4.5340   37.5080 C.3   760  H4B760      0.0383
     17  O10        5.2010    5.7490   36.6530 O.3   760  H4B760     -0.2204
@<TRIPOS>BOND
     1     6     5    2
     2     4     5    2
     3     4     2    2
     4     3     2    1
     5     5     7    1
     6     2     1    2
     7     7     9    2
     8     7     8    1
     9     1     8    2
    10     9    11    1
    11     8    10    2
    12    11    13    1
    13    11    12    1
    14    10    12    1
    15    13    14    1
    16    13    15    1
    17    17    15    1
    18    15    16    1
