@<TRIPOS>MOLECULE
3jt5_HEM_A_1.pdb
 43 50 0 0 0
SMALL
GASTEIGER

@<TRIPOS>ATOM
      1  CHA       12.9630    4.5770   26.3330 C.2   750  HEM750      0.0000
      2  CHB       16.8450    1.6990   25.9800 C.2   750  HEM750      0.0000
      3  CHC       17.7930    3.5080   21.6010 C.2   750  HEM750      0.0000
      4  CHD       14.7380    7.2100   22.6070 C.2   750  HEM750      0.0000
      5  C1A       13.8490    3.5660   26.5410 C.2   750  HEM750      0.0000
      6  C2A       13.7170    2.5160   27.5200 C.2   750  HEM750      0.0000
      7  C3A       14.7780    1.7040   27.4330 C.2   750  HEM750      0.0000
      8  C4A       15.6370    2.2150   26.3800 C.2   750  HEM750      0.0000
      9  CMA       15.0310    0.4540   28.3120 C.3   750  HEM750      0.0000
     10  CAA       12.5220    2.3430   28.4510 C.3   750  HEM750      0.0000
     11  CBA       11.5020    1.7060   27.5090 C.3   750  HEM750      0.0000
     12  CGA       10.2850    1.2320   28.2420 C.2   750  HEM750      0.0000
     13  O1A       10.3630    0.9580   29.4810 O.co2 750  HEM750      0.0000
     14  O2A        9.2320    1.1180   27.5610 O.co2 750  HEM750      0.0000
     15  C1B       17.4270    1.8930   24.7640 C.ar  750  HEM750      0.0000
     16  C2B       18.5300    1.1370   24.2280 C.ar  750  HEM750      0.0000
     17  C3B       18.7890    1.6260   23.0270 C.ar  750  HEM750      0.0000
     18  C4B       17.8820    2.7350   22.7520 C.ar  750  HEM750      0.0000
     19  CMB       19.2760   -0.0610   24.8910 C.3   750  HEM750      0.0000
     20  CAB       19.9000    1.0270   22.1280 C.2   750  HEM750      0.0000
     21  CBB       20.5110    1.6890   21.1630 C.2   750  HEM750      0.0000
     22  C1C       17.0240    4.6650   21.4770 C.2   750  HEM750      0.0000
     23  C2C       16.9820    5.5110   20.3120 C.2   750  HEM750      0.0000
     24  C3C       16.1440    6.5320   20.5940 C.2   750  HEM750      0.0000
     25  C4C       15.6330    6.3730   21.9420 C.2   750  HEM750      0.0000
     26  CMC       17.7820    5.1890   19.0140 C.3   750  HEM750      0.0000
     27  CAC       15.7340    7.7210   19.6950 C.2   750  HEM750      0.0000
     28  CBC       16.2770    7.8310   18.4770 C.2   750  HEM750      0.0000
     29  C1D       13.9070    6.8420   23.6680 C.ar  750  HEM750      0.0000
     30  C2D       12.7420    7.5470   24.1520 C.ar  750  HEM750      0.0000
     31  C3D       12.2310    6.7030   25.3040 C.ar  750  HEM750      0.0000
     32  C4D       13.1020    5.5740   25.3950 C.ar  750  HEM750      0.0000
     33  CMD       12.1180    8.8750   23.6240 C.3   750  HEM750      0.0000
     34  CAD       10.9850    6.9440   26.1660 C.3   750  HEM750      0.0000
     35  CBD        9.8650    6.3060   25.3260 C.3   750  HEM750      0.0000
     36  CGD        8.6150    6.3330   26.1540 C.2   750  HEM750      0.0000
     37  O1D        8.4620    7.2900   26.9830 O.co2 750  HEM750      0.0000
     38  O2D        7.8240    5.3710   25.9990 O.co2 750  HEM750      0.0000
     39  NA        15.0270    3.3440   25.8600 N.2   750  HEM750      0.0000
     40  NB        17.0560    2.8770   23.8460 N.ar  750  HEM750      0.0000
     41  NC        16.1660    5.2210   22.4320 N.2   750  HEM750      0.0000
     42  ND        14.0990    5.7070   24.4370 N.ar  750  HEM750      0.0000
     43 FE         15.7560    4.3730   24.2590 Fe    750  HEM750      0.0000
@<TRIPOS>BOND
     1    28    27    2
     2    26    23    1
     3    27    24    1
     4    23    24    2
     5    23    22    1
     6    24    25    1
     7    21    20    2
     8    22     3    2
     9    22    41    1
    10     3    18    1
    11    25    41    2
    12    25     4    1
    13    20    17    1
    14    41    43    1
    15     4    29    2
    16    18    17   ar
    17    18    40   ar
    18    17    16   ar
    19    33    30    1
    20    29    30   ar
    21    29    42   ar
    22    40    43    1
    23    40    15   ar
    24    30    31   ar
    25    16    15   ar
    26    16    19    1
    27    43    42    1
    28    43    39    1
    29    42    32   ar
    30    15     2    1
    31    31    32   ar
    32    31    34    1
    33    35    36    1
    34    35    34    1
    35    32     1    2
    36    39     8    1
    37    39     5    2
    38     2     8    2
    39    38    36   ar
    40    36    37   ar
    41     1     5    1
    42     8     7    1
    43     5     6    1
    44     7     6    2
    45     7     9    1
    46    11    12    1
    47    11    10    1
    48     6    10    1
    49    14    12   ar
    50    12    13   ar
