@<TRIPOS>MOLECULE
3jt5_JM7_A_1.pdb
 15 14 0 0 0
SMALL
GASTEIGER

@<TRIPOS>ATOM
      1  C          8.9530   -3.2000   24.6300 C.2   800  JM7800      0.3819
      2  N          9.6320   -1.5030   26.2080 N.3   800  JM7800     -0.1208
      3  C1        14.0660    0.1280   23.4880 C.2   800  JM7800      0.4004
      4  C2        14.5190    1.1070   22.3810 C.3   800  JM7800      0.1834
      5  S3        14.0340    2.7790   22.7510 S.3   800  JM7800     -0.1274
      6  C4        13.8820    3.4230   21.0950 C.3   800  JM7800      0.0582
      7  C5        12.8900    2.5800   20.2870 C.3   800  JM7800      0.0126
      8  CA         9.1380   -1.7060   24.8470 C.3   800  JM7800      0.1945
      9  CB        10.0780   -1.0880   23.7870 C.3   800  JM7800      0.0350
     10  CD        11.6630    0.8450   23.3590 C.3   800  JM7800      0.2511
     11  NE        12.7760    0.0900   23.9560 N.pl3 800  JM7800     -0.0308
     12  CG        10.3600    0.4000   24.0450 C.3   800  JM7800      0.0574
     13  NH        14.9640   -0.6550   23.9430 N.2   800  JM7800      0.1927
     14  OA1        8.4570   -3.6250   23.5620 O.co2 800  JM7800     -0.2441
     15  OA2        9.3070   -3.9740   25.5510 O.co2 800  JM7800     -0.2441
@<TRIPOS>BOND
     1     7     6    1
     2     6     5    1
     3     4     5    1
     4     4     3    1
     5    10    11    1
     6    10    12    1
     7     3    13    2
     8     3    11    1
     9    14     1   ar
    10     9    12    1
    11     9     8    1
    12     1     8    1
    13     1    15   ar
    14     8     2    1
