@<TRIPOS>MOLECULE
3jt5_H4B_A_1.pdb
 17 18 0 0 0
SMALL
GASTEIGER

@<TRIPOS>ATOM
      1  N1         9.9230    2.4420   33.7330 N.2   760  H4B760     -0.2683
      2  C2        10.0500    2.0730   32.4500 C.1   760  H4B760      0.2608
      3  N2        11.3000    1.9400   31.9420 N.pl3 760  H4B760     -0.0220
      4  N3         8.9480    1.8180   31.6940 N.2   760  H4B760     -0.2474
      5  C4         7.7130    1.9460   32.2220 C.1   760  H4B760      0.2441
      6  O4         6.7140    1.7040   31.4900 O.2   760  H4B760     -0.2063
      7  C4A        7.5820    2.3560   33.5530 C.2   760  H4B760      0.2463
      8  C8A        8.7320    2.6180   34.3020 C.1   760  H4B760      0.1270
      9  N5         6.3630    2.5160   34.1310 N.2   760  H4B760     -0.2460
     10  N8         8.6980    2.9940   35.6240 N.2   760  H4B760     -0.2054
     11  C6         6.3090    3.4490   35.2600 C.3   760  H4B760      0.1627
     12  C7         7.4010    3.1640   36.2940 C.3   760  H4B760      0.1643
     13  C9         4.9170    3.4530   35.9020 C.3   760  H4B760      0.2063
     14  O9         4.6200    2.0970   36.2810 O.3   760  H4B760     -0.2183
     15  C10        4.8240    4.4040   37.0970 C.3   760  H4B760      0.1842
     16  C11        3.3810    4.5880   37.5570 C.3   760  H4B760      0.0383
     17  O10        5.3240    5.6900   36.7210 O.3   760  H4B760     -0.2204
@<TRIPOS>BOND
     1     6     5    2
     2     4     5    2
     3     4     2    2
     4     3     2    1
     5     5     7    1
     6     2     1    2
     7     7     9    2
     8     7     8    1
     9     1     8    2
    10     9    11    1
    11     8    10    2
    12    11    13    1
    13    11    12    1
    14    10    12    1
    15    13    14    1
    16    13    15    1
    17    17    15    1
    18    15    16    1
