@<TRIPOS>MOLECULE
3jt6_H4B_A_1.pdb
 17 18 0 0 0
SMALL
GASTEIGER

@<TRIPOS>ATOM
      1  N1         9.8300    2.5240   33.8070 N.2   760  H4B760     -0.2683
      2  C2         9.9750    2.0910   32.5420 C.1   760  H4B760      0.2608
      3  N2        11.2310    1.9430   32.0310 N.pl3 760  H4B760     -0.0220
      4  N3         8.8790    1.8280   31.7950 N.2   760  H4B760     -0.2474
      5  C4         7.6340    1.9790   32.3100 C.1   760  H4B760      0.2441
      6  O4         6.6700    1.7130   31.5460 O.2   760  H4B760     -0.2063
      7  C4A        7.4780    2.4580   33.6160 C.2   760  H4B760      0.2463
      8  C8A        8.6250    2.7290   34.3670 C.1   760  H4B760      0.1270
      9  N5         6.2610    2.6520   34.2110 N.2   760  H4B760     -0.2460
     10  N8         8.5770    3.1510   35.6900 N.2   760  H4B760     -0.2054
     11  C6         6.2150    3.6300   35.3260 C.3   760  H4B760      0.1627
     12  C7         7.2910    3.3680   36.3690 C.3   760  H4B760      0.1643
     13  C9         4.8530    3.6610   35.9810 C.3   760  H4B760      0.2063
     14  O9         4.6060    2.3090   36.3590 O.3   760  H4B760     -0.2183
     15  C10        4.8210    4.5650   37.1870 C.3   760  H4B760      0.1842
     16  C11        3.4180    4.6590   37.7800 C.3   760  H4B760      0.0383
     17  O10        5.2660    5.8670   36.8090 O.3   760  H4B760     -0.2204
@<TRIPOS>BOND
     1     6     5    2
     2     4     5    2
     3     4     2    2
     4     3     2    1
     5     5     7    1
     6     2     1    2
     7     7     9    2
     8     7     8    1
     9     1     8    2
    10     9    11    1
    11     8    10    2
    12    11    13    1
    13    11    12    1
    14    10    12    1
    15    13    14    1
    16    13    15    1
    17    17    15    1
    18    15    16    1
