@<TRIPOS>MOLECULE
3jt6_JM6_A_1.pdb
 16 15 0 0 0
SMALL
GASTEIGER

@<TRIPOS>ATOM
      1  C          9.1930   -3.1260   24.6010 C.2   800  JM6800      0.3819
      2  N          9.7880   -1.3880   26.1690 N.3   800  JM6800     -0.1208
      3  C1        14.2700   -0.0080   23.2400 C.2   800  JM6800      0.3895
      4  C2        14.9640    0.3640   21.9600 C.3   800  JM6800      0.1268
      5  C3        14.7290    1.7560   21.4550 C.3   800  JM6800      0.0246
      6  C4        14.1080    2.6320   22.5070 C.3   800  JM6800      0.0582
      7  S5        12.4880    2.7550   21.8600 S.3   800  JM6800     -0.1393
      8  C6        12.5180    2.3780   20.1350 C.3   800  JM6800      0.0692
      9  CA         9.3000   -1.6310   24.8350 C.3   800  JM6800      0.1945
     10  CB        10.2340   -1.0180   23.7880 C.3   800  JM6800      0.0350
     11  CD        11.8830    0.5610   23.1510 C.3   800  JM6800      0.2510
     12  NE        13.2050    0.6270   23.7450 N.pl3 800  JM6800     -0.0316
     13  CG        10.7150    0.3970   24.1000 C.3   800  JM6800      0.0574
     14  OA1        8.7710   -3.5340   23.5010 O.co2 800  JM6800     -0.2441
     15  OA2        9.5080   -3.9050   25.5430 O.co2 800  JM6800     -0.2441
     16  NH1       14.7850   -0.9810   23.7990 N.2   800  JM6800      0.1917
@<TRIPOS>BOND
     1     8     7    1
     2     5     4    1
     3     5     6    1
     4     7     6    1
     5     4     3    1
     6    11    12    1
     7    11    13    1
     8     3    12    1
     9     3    16    2
    10    14     1   ar
    11    10    13    1
    12    10     9    1
    13     1     9    1
    14     1    15   ar
    15     9     2    1
