@<TRIPOS>MOLECULE
3jt6_HEM_A_1.pdb
 43 50 0 0 0
SMALL
GASTEIGER

@<TRIPOS>ATOM
      1  CHA       13.0060    4.7050   26.5200 C.2   750  HEM750      0.0000
      2  CHB       16.6590    1.6540   26.0720 C.2   750  HEM750      0.0000
      3  CHC       17.6720    3.5350   21.7440 C.2   750  HEM750      0.0000
      4  CHD       14.6740    7.2040   22.6600 C.2   750  HEM750      0.0000
      5  C1A       13.8110    3.6520   26.7200 C.2   750  HEM750      0.0000
      6  C2A       13.6290    2.6590   27.7290 C.2   750  HEM750      0.0000
      7  C3A       14.6330    1.8000   27.6370 C.2   750  HEM750      0.0000
      8  C4A       15.4860    2.2320   26.5180 C.2   750  HEM750      0.0000
      9  CMA       14.8340    0.5350   28.5160 C.3   750  HEM750      0.0000
     10  CAA       12.4140    2.6220   28.6790 C.3   750  HEM750      0.0000
     11  CBA       11.3460    2.1860   27.6600 C.3   750  HEM750      0.0000
     12  CGA       10.2670    1.3400   28.2540 C.2   750  HEM750      0.0000
     13  O1A       10.4060    0.8450   29.4170 O.co2 750  HEM750      0.0000
     14  O2A        9.2630    1.1850   27.5220 O.co2 750  HEM750      0.0000
     15  C1B       17.2600    1.8720   24.8670 C.ar  750  HEM750      0.0000
     16  C2B       18.3730    1.1290   24.3390 C.ar  750  HEM750      0.0000
     17  C3B       18.6550    1.6490   23.1470 C.ar  750  HEM750      0.0000
     18  C4B       17.7410    2.7490   22.8810 C.ar  750  HEM750      0.0000
     19  CMB       19.1160   -0.0750   24.9830 C.3   750  HEM750      0.0000
     20  CAB       19.7730    1.1010   22.2480 C.2   750  HEM750      0.0000
     21  CBB       20.2940    1.8180   21.2650 C.2   750  HEM750      0.0000
     22  C1C       16.9160    4.6770   21.5730 C.2   750  HEM750      0.0000
     23  C2C       16.8900    5.5270   20.3800 C.2   750  HEM750      0.0000
     24  C3C       16.0510    6.5510   20.6500 C.2   750  HEM750      0.0000
     25  C4C       15.5440    6.3770   21.9970 C.2   750  HEM750      0.0000
     26  CMC       17.6910    5.2000   19.0860 C.3   750  HEM750      0.0000
     27  CAC       15.6370    7.7270   19.7520 C.2   750  HEM750      0.0000
     28  CBC       16.3220    7.9340   18.6210 C.2   750  HEM750      0.0000
     29  C1D       13.9160    6.8420   23.7690 C.ar  750  HEM750      0.0000
     30  C2D       12.7490    7.5590   24.2470 C.ar  750  HEM750      0.0000
     31  C3D       12.2710    6.7580   25.4310 C.ar  750  HEM750      0.0000
     32  C4D       13.1620    5.6550   25.5560 C.ar  750  HEM750      0.0000
     33  CMD       12.0920    8.8590   23.7280 C.3   750  HEM750      0.0000
     34  CAD       11.0430    7.0580   26.2970 C.3   750  HEM750      0.0000
     35  CBD        9.8550    6.5770   25.4560 C.3   750  HEM750      0.0000
     36  CGD        8.6410    6.4220   26.3500 C.2   750  HEM750      0.0000
     37  O1D        8.4090    7.3580   27.1710 O.co2 750  HEM750      0.0000
     38  O2D        7.9480    5.3610   26.2260 O.co2 750  HEM750      0.0000
     39  NA        14.9440    3.3770   26.0030 N.2   750  HEM750      0.0000
     40  NB        16.9150    2.8720   23.9680 N.ar  750  HEM750      0.0000
     41  NC        16.0730    5.2190   22.5010 N.2   750  HEM750      0.0000
     42  ND        14.1380    5.7260   24.5800 N.ar  750  HEM750      0.0000
     43 FE         15.7760    4.5420   24.4800 Fe    750  HEM750      0.0000
@<TRIPOS>BOND
     1    28    27    2
     2    26    23    1
     3    27    24    1
     4    23    24    2
     5    23    22    1
     6    24    25    1
     7    21    20    2
     8    22     3    2
     9    22    41    1
    10     3    18    1
    11    25    41    2
    12    25     4    1
    13    20    17    1
    14    41    43    1
    15     4    29    2
    16    18    17   ar
    17    18    40   ar
    18    17    16   ar
    19    33    30    1
    20    29    30   ar
    21    29    42   ar
    22    40    43    1
    23    40    15   ar
    24    30    31   ar
    25    16    15   ar
    26    16    19    1
    27    43    42    1
    28    43    39    1
    29    42    32   ar
    30    15     2    1
    31    31    32   ar
    32    31    34    1
    33    35    34    1
    34    35    36    1
    35    32     1    2
    36    39     8    1
    37    39     5    2
    38     2     8    2
    39    38    36   ar
    40    36    37   ar
    41     8     7    1
    42     1     5    1
    43     5     6    1
    44    14    12   ar
    45     7     6    2
    46     7     9    1
    47    11    12    1
    48    11    10    1
    49     6    10    1
    50    12    13   ar
