@<TRIPOS>MOLECULE
3jt7_HEM_A_1.pdb
 43 50 0 0 0
SMALL
GASTEIGER

@<TRIPOS>ATOM
      1  CHA       13.0370    4.6460   26.3290 C.2   750  HEM750      0.0000
      2  CHB       16.8960    1.7770   26.0530 C.2   750  HEM750      0.0000
      3  CHC       17.7100    3.4980   21.6070 C.2   750  HEM750      0.0000
      4  CHD       14.8190    7.3050   22.6030 C.2   750  HEM750      0.0000
      5  C1A       13.8990    3.6110   26.5570 C.2   750  HEM750      0.0000
      6  C2A       13.7070    2.5270   27.4990 C.2   750  HEM750      0.0000
      7  C3A       14.7790    1.7310   27.4340 C.2   750  HEM750      0.0000
      8  C4A       15.6780    2.2830   26.4330 C.2   750  HEM750      0.0000
      9  CMA       15.0520    0.4360   28.2430 C.3   750  HEM750      0.0000
     10  CAA       12.4600    2.3510   28.3890 C.3   750  HEM750      0.0000
     11  CBA       11.4190    1.7290   27.4490 C.3   750  HEM750      0.0000
     12  CGA       10.1850    1.2850   28.1870 C.2   750  HEM750      0.0000
     13  O1A       10.2590    0.9760   29.4160 O.co2 750  HEM750      0.0000
     14  O2A        9.1070    1.2440   27.5350 O.co2 750  HEM750      0.0000
     15  C1B       17.4420    1.9290   24.8050 C.ar  750  HEM750      0.0000
     16  C2B       18.5100    1.1420   24.2340 C.ar  750  HEM750      0.0000
     17  C3B       18.7410    1.6050   22.9980 C.ar  750  HEM750      0.0000
     18  C4B       17.8380    2.7300   22.7530 C.ar  750  HEM750      0.0000
     19  CMB       19.2310   -0.0400   24.9260 C.3   750  HEM750      0.0000
     20  CAB       19.8110    0.9910   22.0640 C.2   750  HEM750      0.0000
     21  CBB       20.4680    1.6580   21.1190 C.2   750  HEM750      0.0000
     22  C1C       16.9820    4.6750   21.4680 C.2   750  HEM750      0.0000
     23  C2C       16.9680    5.5240   20.2860 C.2   750  HEM750      0.0000
     24  C3C       16.1750    6.5810   20.5600 C.2   750  HEM750      0.0000
     25  C4C       15.6650    6.4390   21.9210 C.2   750  HEM750      0.0000
     26  CMC       17.7240    5.2000   18.9590 C.3   750  HEM750      0.0000
     27  CAC       15.8070    7.7630   19.6270 C.2   750  HEM750      0.0000
     28  CBC       16.4900    8.0170   18.4880 C.2   750  HEM750      0.0000
     29  C1D       13.9920    6.9280   23.6660 C.ar  750  HEM750      0.0000
     30  C2D       12.8250    7.6280   24.1540 C.ar  750  HEM750      0.0000
     31  C3D       12.3120    6.7770   25.3060 C.ar  750  HEM750      0.0000
     32  C4D       13.1830    5.6530   25.4020 C.ar  750  HEM750      0.0000
     33  CMD       12.1900    8.9480   23.6690 C.3   750  HEM750      0.0000
     34  CAD       11.0600    7.0320   26.1550 C.3   750  HEM750      0.0000
     35  CBD        9.9660    6.3170   25.3370 C.3   750  HEM750      0.0000
     36  CGD        8.6650    6.4050   26.0860 C.2   750  HEM750      0.0000
     37  O1D        8.4730    7.4180   26.8240 O.co2 750  HEM750      0.0000
     38  O2D        7.8570    5.4500   25.9570 O.co2 750  HEM750      0.0000
     39  NA        15.1080    3.4270   25.9280 N.2   750  HEM750      0.0000
     40  NB        17.0670    2.9000   23.8860 N.ar  750  HEM750      0.0000
     41  NC        16.1760    5.2700   22.4300 N.2   750  HEM750      0.0000
     42  ND        14.1700    5.7850   24.4470 N.ar  750  HEM750      0.0000
     43 FE         15.8310    4.4620   24.3230 Fe    750  HEM750      0.0000
@<TRIPOS>BOND
     1    28    27    2
     2    26    23    1
     3    27    24    1
     4    23    24    2
     5    23    22    1
     6    24    25    1
     7    21    20    2
     8    22     3    2
     9    22    41    1
    10     3    18    1
    11    25    41    2
    12    25     4    1
    13    20    17    1
    14    41    43    1
    15     4    29    2
    16    18    17   ar
    17    18    40   ar
    18    17    16   ar
    19    29    30   ar
    20    29    42   ar
    21    33    30    1
    22    40    43    1
    23    40    15   ar
    24    30    31   ar
    25    16    15   ar
    26    16    19    1
    27    43    42    1
    28    43    39    1
    29    42    32   ar
    30    15     2    1
    31    31    32   ar
    32    31    34    1
    33    35    36    1
    34    35    34    1
    35    32     1    2
    36    39     8    1
    37    39     5    2
    38    38    36   ar
    39     2     8    2
    40    36    37   ar
    41     1     5    1
    42     8     7    1
    43     5     6    1
    44     7     6    2
    45     7     9    1
    46    11    12    1
    47    11    10    1
    48     6    10    1
    49    14    12   ar
    50    12    13   ar
