@<TRIPOS>MOLECULE
3jt7_H4B_A_1.pdb
 17 18 0 0 0
SMALL
GASTEIGER

@<TRIPOS>ATOM
      1  N1         9.8810    2.5020   33.6260 N.2   760  H4B760     -0.2683
      2  C2        10.0270    2.1490   32.3400 C.1   760  H4B760      0.2608
      3  N2        11.2840    2.0610   31.8310 N.pl3 760  H4B760     -0.0220
      4  N3         8.9380    1.8940   31.5740 N.2   760  H4B760     -0.2474
      5  C4         7.6980    1.9870   32.0920 C.1   760  H4B760      0.2441
      6  O4         6.7280    1.7110   31.3490 O.2   760  H4B760     -0.2063
      7  C4A        7.5320    2.3750   33.4300 C.2   760  H4B760      0.2463
      8  C8A        8.6710    2.6440   34.1860 C.1   760  H4B760      0.1270
      9  N5         6.3150    2.5020   34.0170 N.2   760  H4B760     -0.2460
     10  N8         8.6040    3.0230   35.4950 N.2   760  H4B760     -0.2054
     11  C6         6.2330    3.4360   35.1310 C.3   760  H4B760      0.1627
     12  C7         7.3100    3.1370   36.1690 C.3   760  H4B760      0.1643
     13  C9         4.8480    3.5130   35.7630 C.3   760  H4B760      0.2063
     14  O9         4.4710    2.2060   36.1940 O.3   760  H4B760     -0.2183
     15  C10        4.8150    4.4450   36.9650 C.3   760  H4B760      0.1842
     16  C11        3.4120    4.5530   37.5600 C.3   760  H4B760      0.0383
     17  O10        5.2930    5.7330   36.5770 O.3   760  H4B760     -0.2204
@<TRIPOS>BOND
     1     6     5    2
     2     4     5    2
     3     4     2    2
     4     3     2    1
     5     5     7    1
     6     2     1    2
     7     7     9    2
     8     7     8    1
     9     1     8    2
    10     9    11    1
    11     8    10    2
    12    11    13    1
    13    11    12    1
    14    10    12    1
    15    13    14    1
    16    13    15    1
    17    17    15    1
    18    15    16    1
