@<TRIPOS>MOLECULE
3jt7_JM5_A_1.pdb
 16 15 0 0 0
SMALL
GASTEIGER

@<TRIPOS>ATOM
      1  C          8.9430   -3.1880   24.5040 C.2   800  JM5800      0.3819
      2  N          9.5180   -1.3800   26.0160 N.3   800  JM5800     -0.1208
      3  C1        14.0100    0.0800   23.2340 C.2   800  JM5800      0.4141
      4  C2        14.3340    1.0580   22.3750 C.3   800  JM5800      0.1861
      5  S3        14.1740    2.7370   22.8940 S.3   800  JM5800     -0.1272
      6  C4        13.2890    3.6620   21.6890 C.3   800  JM5800      0.0581
      7  C5        13.4790    3.0170   20.3260 C.3   800  JM5800      0.0117
      8  C6        12.3340    2.0720   20.0540 C.3   800  JM5800      0.0009
      9  CA         9.0610   -1.6810   24.6740 C.3   800  JM5800      0.1948
     10  CB        10.0110   -1.0880   23.6130 C.3   800  JM5800      0.0394
     11  CD        11.7520    0.6540   23.3220 C.2   800  JM5800      0.2091
     12  NE        12.7460   -0.0790   23.6670 N.2   800  JM5800     -0.0349
     13  CG        10.3400    0.3910   23.8200 C.3   800  JM5800      0.0795
     14  NH        14.9500   -0.6710   23.6130 N.2   800  JM5800      0.1955
     15  OA1        9.3620   -3.9370   25.4040 O.co2 800  JM5800     -0.2441
     16  OA2        8.4410   -3.6690   23.4720 O.co2 800  JM5800     -0.2441
@<TRIPOS>BOND
     1     8     7    1
     2     7     6    1
     3     6     5    1
     4     4     5    1
     5     4     3    1
     6     3    14    2
     7     3    12    1
     8    11    12    2
     9    11    13    1
    10    16     1   ar
    11    10    13    1
    12    10     9    1
    13     1     9    1
    14     1    15   ar
    15     9     2    1
