@<TRIPOS>MOLECULE
3jt8_H4B_A_1.pdb
 17 18 0 0 0
SMALL
GASTEIGER

@<TRIPOS>ATOM
      1  N1         9.9810    2.4630   33.8680 N.2   760  H4B760     -0.2683
      2  C2        10.1500    2.1120   32.5690 C.1   760  H4B760      0.2608
      3  N2        11.4250    2.0040   32.0690 N.pl3 760  H4B760     -0.0220
      4  N3         9.0770    1.8580   31.8010 N.2   760  H4B760     -0.2474
      5  C4         7.8190    1.9590   32.2960 C.1   760  H4B760      0.2441
      6  O4         6.8340    1.7000   31.5540 O.2   760  H4B760     -0.2063
      7  C4A        7.6370    2.3440   33.6270 C.2   760  H4B760      0.2463
      8  C8A        8.7530    2.6030   34.4120 C.1   760  H4B760      0.1270
      9  N5         6.4010    2.4640   34.1830 N.2   760  H4B760     -0.2460
     10  N8         8.6510    2.9740   35.7300 N.2   760  H4B760     -0.2054
     11  C6         6.3050    3.3760   35.3250 C.3   760  H4B760      0.1627
     12  C7         7.3510    3.0920   36.3860 C.3   760  H4B760      0.1643
     13  C9         4.9060    3.4740   35.9270 C.3   760  H4B760      0.2063
     14  O9         4.4820    2.1560   36.3030 O.3   760  H4B760     -0.2183
     15  C10        4.8620    4.3830   37.1490 C.3   760  H4B760      0.1842
     16  C11        3.4340    4.4950   37.6750 C.3   760  H4B760      0.0383
     17  O10        5.3060    5.6900   36.7840 O.3   760  H4B760     -0.2204
@<TRIPOS>BOND
     1     6     5    2
     2     4     5    2
     3     4     2    2
     4     3     2    1
     5     5     7    1
     6     2     1    2
     7     7     9    2
     8     7     8    1
     9     1     8    2
    10     9    11    1
    11     8    10    2
    12    11    13    1
    13    11    12    1
    14    10    12    1
    15    13    14    1
    16    13    15    1
    17    17    15    1
    18    15    16    1
