@<TRIPOS>MOLECULE
3jt8_JM4_A_1.pdb
 17 16 0 0 0
SMALL
GASTEIGER

@<TRIPOS>ATOM
      1  C          8.9900   -3.4680   24.6500 C.2   800  JM4800      0.3819
      2  N          9.6090   -1.6560   26.1290 N.3   800  JM4800     -0.1208
      3  C1        14.1080   -0.3080   23.1770 C.2   800  JM4800      0.3904
      4  C2        14.4050    0.2800   22.0110 C.3   800  JM4800      0.1375
      5  C3        15.0770    1.6130   21.9890 C.3   800  JM4800      0.0705
      6  S4        14.2040    2.6660   23.0880 S.3   800  JM4800     -0.1405
      7  C5        13.0110    3.5120   22.1240 C.3   800  JM4800      0.0477
      8  C6        11.8120    3.8680   23.0060 C.3   800  JM4800      0.0117
      9  C7        12.6630    2.6020   20.9370 C.3   800  JM4800      0.0117
     10  CA         9.1380   -1.9590   24.7850 C.3   800  JM4800      0.1945
     11  CB        10.1060   -1.4310   23.7100 C.3   800  JM4800      0.0350
     12  CD        11.7060    0.4010   23.0330 C.3   800  JM4800      0.2510
     13  NE        12.8260   -0.3750   23.5600 N.pl3 800  JM4800     -0.0315
     14  CG        10.4870    0.0410   23.8850 C.3   800  JM4800      0.0574
     15  NH        15.1110   -0.8070   23.8850 N.2   800  JM4800      0.1918
     16  OA1        8.4570   -3.9700   23.6480 O.co2 800  JM4800     -0.2441
     17  OA2        9.4170   -4.2010   25.5660 O.co2 800  JM4800     -0.2441
@<TRIPOS>BOND
     1     9     7    1
     2     5     4    1
     3     5     6    1
     4     4     3    1
     5     7     8    1
     6     7     6    1
     7    12    13    1
     8    12    14    1
     9     3    13    1
    10     3    15    2
    11    16     1   ar
    12    11    14    1
    13    11    10    1
    14     1    10    1
    15     1    17   ar
    16    10     2    1
