@<TRIPOS>MOLECULE
3jt8_HEM_A_1.pdb
 43 50 0 0 0
SMALL
GASTEIGER

@<TRIPOS>ATOM
      1  CHA       13.0760    4.5650   26.5400 C.2   750  HEM750      0.0000
      2  CHB       16.9800    1.7390   26.1650 C.2   750  HEM750      0.0000
      3  CHC       17.8460    3.5630   21.7420 C.2   750  HEM750      0.0000
      4  CHD       14.8110    7.2260   22.8040 C.2   750  HEM750      0.0000
      5  C1A       13.9580    3.5340   26.7310 C.2   750  HEM750      0.0000
      6  C2A       13.7860    2.4440   27.6550 C.2   750  HEM750      0.0000
      7  C3A       14.8660    1.6620   27.5810 C.2   750  HEM750      0.0000
      8  C4A       15.7610    2.2240   26.5700 C.2   750  HEM750      0.0000
      9  CMA       15.1160    0.3680   28.3950 C.3   750  HEM750      0.0000
     10  CAA       12.5460    2.2350   28.5600 C.3   750  HEM750      0.0000
     11  CBA       11.4980    1.6670   27.5780 C.3   750  HEM750      0.0000
     12  CGA       10.2290    1.2330   28.2630 C.2   750  HEM750      0.0000
     13  O1A       10.2410    0.9040   29.4830 O.co2 750  HEM750      0.0000
     14  O2A        9.1740    1.2090   27.5790 O.co2 750  HEM750      0.0000
     15  C1B       17.5290    1.9470   24.9180 C.ar  750  HEM750      0.0000
     16  C2B       18.6490    1.2190   24.3550 C.ar  750  HEM750      0.0000
     17  C3B       18.9050    1.7160   23.1440 C.ar  750  HEM750      0.0000
     18  C4B       17.9570    2.8020   22.8920 C.ar  750  HEM750      0.0000
     19  CMB       19.4090    0.0490   25.0190 C.3   750  HEM750      0.0000
     20  CAB       20.0150    1.1450   22.2340 C.2   750  HEM750      0.0000
     21  CBB       20.4710    1.7020   21.1230 C.2   750  HEM750      0.0000
     22  C1C       17.0600    4.7050   21.6050 C.2   750  HEM750      0.0000
     23  C2C       16.9970    5.5460   20.4300 C.2   750  HEM750      0.0000
     24  C3C       16.1690    6.5770   20.7310 C.2   750  HEM750      0.0000
     25  C4C       15.6830    6.4070   22.0900 C.2   750  HEM750      0.0000
     26  CMC       17.7840    5.2340   19.1290 C.3   750  HEM750      0.0000
     27  CAC       15.7510    7.7520   19.8360 C.2   750  HEM750      0.0000
     28  CBC       16.4810    8.0400   18.7460 C.2   750  HEM750      0.0000
     29  C1D       14.0250    6.8380   23.8820 C.ar  750  HEM750      0.0000
     30  C2D       12.8770    7.5680   24.3700 C.ar  750  HEM750      0.0000
     31  C3D       12.3430    6.7420   25.5350 C.ar  750  HEM750      0.0000
     32  C4D       13.2030    5.5920   25.6270 C.ar  750  HEM750      0.0000
     33  CMD       12.3380    8.9190   23.8310 C.3   750  HEM750      0.0000
     34  CAD       11.1060    7.0500   26.3970 C.3   750  HEM750      0.0000
     35  CBD        9.9480    6.3900   25.6340 C.3   750  HEM750      0.0000
     36  CGD        8.6720    6.4510   26.4260 C.2   750  HEM750      0.0000
     37  O1D        8.4800    7.4130   27.2360 O.co2 750  HEM750      0.0000
     38  O2D        7.8610    5.5020   26.2450 O.co2 750  HEM750      0.0000
     39  NA        15.1720    3.3760   26.0850 N.2   750  HEM750      0.0000
     40  NB        17.1370    2.9270   24.0100 N.ar  750  HEM750      0.0000
     41  NC        16.2260    5.2560   22.5760 N.2   750  HEM750      0.0000
     42  ND        14.1760    5.6940   24.6480 N.ar  750  HEM750      0.0000
     43 FE         15.8400    4.4930   24.4550 Fe    750  HEM750      0.0000
@<TRIPOS>BOND
     1    28    27    2
     2    26    23    1
     3    27    24    1
     4    23    24    2
     5    23    22    1
     6    24    25    1
     7    21    20    2
     8    22     3    2
     9    22    41    1
    10     3    18    1
    11    25    41    2
    12    25     4    1
    13    20    17    1
    14    41    43    1
    15     4    29    2
    16    18    17   ar
    17    18    40   ar
    18    17    16   ar
    19    33    30    1
    20    29    30   ar
    21    29    42   ar
    22    40    43    1
    23    40    15   ar
    24    16    15   ar
    25    16    19    1
    26    30    31   ar
    27    43    42    1
    28    43    39    1
    29    42    32   ar
    30    15     2    1
    31    31    32   ar
    32    31    34    1
    33    32     1    2
    34    35    34    1
    35    35    36    1
    36    39     8    1
    37    39     5    2
    38     2     8    2
    39    38    36   ar
    40    36    37   ar
    41     1     5    1
    42     8     7    1
    43     5     6    1
    44    11    12    1
    45    11    10    1
    46    14    12   ar
    47     7     6    2
    48     7     9    1
    49     6    10    1
    50    12    13   ar
