@<TRIPOS>MOLECULE
3jt9_HEM_A_1.pdb
 43 50 0 0 0
SMALL
GASTEIGER

@<TRIPOS>ATOM
      1  CHA       12.9050    4.4260   26.3620 C.2   750  HEM750      0.0000
      2  CHB       16.8860    1.6380   25.8970 C.2   750  HEM750      0.0000
      3  CHC       17.7200    3.4890   21.4880 C.2   750  HEM750      0.0000
      4  CHD       14.6470    7.1180   22.6580 C.2   750  HEM750      0.0000
      5  C1A       13.8200    3.4140   26.5310 C.2   750  HEM750      0.0000
      6  C2A       13.6950    2.3300   27.4510 C.2   750  HEM750      0.0000
      7  C3A       14.7760    1.5590   27.3570 C.2   750  HEM750      0.0000
      8  C4A       15.6460    2.1150   26.3280 C.2   750  HEM750      0.0000
      9  CMA       14.9920    0.2610   28.1840 C.3   750  HEM750      0.0000
     10  CAA       12.4950    2.0980   28.3550 C.3   750  HEM750      0.0000
     11  CBA       11.3400    1.7410   27.4220 C.3   750  HEM750      0.0000
     12  CGA       10.1480    1.2200   28.1790 C.2   750  HEM750      0.0000
     13  O1A       10.2540    1.0070   29.4230 O.co2 750  HEM750      0.0000
     14  O2A        9.0920    0.9950   27.5500 O.co2 750  HEM750      0.0000
     15  C1B       17.4370    1.8430   24.6530 C.ar  750  HEM750      0.0000
     16  C2B       18.5680    1.1240   24.0610 C.ar  750  HEM750      0.0000
     17  C3B       18.7990    1.6250   22.8530 C.ar  750  HEM750      0.0000
     18  C4B       17.8540    2.7120   22.6260 C.ar  750  HEM750      0.0000
     19  CMB       19.3550   -0.0510   24.6730 C.3   750  HEM750      0.0000
     20  CAB       19.8930    1.0770   21.9080 C.2   750  HEM750      0.0000
     21  CBB       20.2780    1.7500   20.8320 C.2   750  HEM750      0.0000
     22  C1C       16.9230    4.6390   21.3930 C.2   750  HEM750      0.0000
     23  C2C       16.8600    5.5180   20.2520 C.2   750  HEM750      0.0000
     24  C3C       16.0290    6.5290   20.5780 C.2   750  HEM750      0.0000
     25  C4C       15.5250    6.3210   21.9280 C.2   750  HEM750      0.0000
     26  CMC       17.6620    5.2380   18.9360 C.3   750  HEM750      0.0000
     27  CAC       15.6250    7.7290   19.7120 C.2   750  HEM750      0.0000
     28  CBC       16.2610    7.9630   18.5500 C.2   750  HEM750      0.0000
     29  C1D       13.8440    6.7250   23.7280 C.ar  750  HEM750      0.0000
     30  C2D       12.6490    7.4060   24.2040 C.ar  750  HEM750      0.0000
     31  C3D       12.1450    6.5520   25.3510 C.ar  750  HEM750      0.0000
     32  C4D       13.0430    5.4390   25.4470 C.ar  750  HEM750      0.0000
     33  CMD       12.0100    8.7240   23.6940 C.3   750  HEM750      0.0000
     34  CAD       10.8980    6.7700   26.2140 C.3   750  HEM750      0.0000
     35  CBD        9.8140    6.1840   25.3080 C.3   750  HEM750      0.0000
     36  CGD        8.5230    6.2020   26.0580 C.2   750  HEM750      0.0000
     37  O1D        8.3150    7.1370   26.8990 O.co2 750  HEM750      0.0000
     38  O2D        7.7640    5.2340   25.8440 O.co2 750  HEM750      0.0000
     39  NA        15.0100    3.2410   25.8580 N.2   750  HEM750      0.0000
     40  NB        17.0620    2.8340   23.7550 N.ar  750  HEM750      0.0000
     41  NC        16.0650    5.1470   22.3570 N.2   750  HEM750      0.0000
     42  ND        14.0500    5.5890   24.5010 N.ar  750  HEM750      0.0000
     43 FE         15.6750    4.3390   24.2090 Fe    750  HEM750      0.0000
@<TRIPOS>BOND
     1    28    27    2
     2    26    23    1
     3    27    24    1
     4    23    24    2
     5    23    22    1
     6    24    25    1
     7    21    20    2
     8    22     3    2
     9    22    41    1
    10     3    18    1
    11    20    17    1
    12    25    41    2
    13    25     4    1
    14    41    43    1
    15    18    17   ar
    16    18    40   ar
    17     4    29    2
    18    17    16   ar
    19    33    30    1
    20    29    30   ar
    21    29    42   ar
    22    40    43    1
    23    40    15   ar
    24    16    15   ar
    25    16    19    1
    26    30    31   ar
    27    43    42    1
    28    43    39    1
    29    42    32   ar
    30    15     2    1
    31    35    36    1
    32    35    34    1
    33    31    32   ar
    34    31    34    1
    35    32     1    2
    36    38    36   ar
    37    39     8    1
    38    39     5    2
    39     2     8    2
    40    36    37   ar
    41     8     7    1
    42     1     5    1
    43     5     6    1
    44     7     6    2
    45     7     9    1
    46    11    12    1
    47    11    10    1
    48     6    10    1
    49    14    12   ar
    50    12    13   ar
