@<TRIPOS>MOLECULE
3jt9_JM7_A_1.pdb
 15 14 0 0 0
SMALL
GASTEIGER

@<TRIPOS>ATOM
      1  C          8.9350   -3.2170   24.5450 C.2   800  JM7800      0.3819
      2  N          9.5220   -1.4060   26.0940 N.3   800  JM7800     -0.1208
      3  C1        14.1770    0.1180   23.4530 C.2   800  JM7800      0.4004
      4  C2        14.5280    1.2050   22.4040 C.3   800  JM7800      0.1834
      5  S3        13.9570    2.8680   22.8150 S.3   800  JM7800     -0.1274
      6  C4        13.5450    3.5900   21.2230 C.3   800  JM7800      0.0582
      7  C5        12.9190    2.5960   20.2500 C.3   800  JM7800      0.0126
      8  CA         9.1440   -1.7270   24.7220 C.3   800  JM7800      0.1945
      9  CB        10.1950   -1.1800   23.7390 C.3   800  JM7800      0.0350
     10  CD        11.8000    0.7760   23.3910 C.3   800  JM7800      0.2511
     11  NE        12.8990   -0.0500   23.9050 N.pl3 800  JM7800     -0.0308
     12  CG        10.4400    0.3170   23.9480 C.3   800  JM7800      0.0574
     13  NH        15.1320   -0.6470   23.8740 N.2   800  JM7800      0.1927
     14  OA1        8.5190   -3.6080   23.4360 O.co2 800  JM7800     -0.2441
     15  OA2        9.1940   -4.0190   25.4870 O.co2 800  JM7800     -0.2441
@<TRIPOS>BOND
     1     7     6    1
     2     6     5    1
     3     4     5    1
     4     4     3    1
     5    10    11    1
     6    10    12    1
     7    14     1   ar
     8     3    13    2
     9     3    11    1
    10     9    12    1
    11     9     8    1
    12     1     8    1
    13     1    15   ar
    14     8     2    1
