@<TRIPOS>MOLECULE
3jt9_H4B_A_1.pdb
 17 18 0 0 0
SMALL
GASTEIGER

@<TRIPOS>ATOM
      1  N1         9.9390    2.3650   33.7450 N.2   760  H4B760     -0.2683
      2  C2        10.0350    2.0050   32.4590 C.1   760  H4B760      0.2608
      3  N2        11.2790    1.8860   31.9330 N.pl3 760  H4B760     -0.0220
      4  N3         8.9170    1.7560   31.7080 N.2   760  H4B760     -0.2474
      5  C4         7.6800    1.8720   32.2030 C.1   760  H4B760      0.2441
      6  O4         6.6700    1.5940   31.4460 O.2   760  H4B760     -0.2063
      7  C4A        7.5680    2.2690   33.5470 C.2   760  H4B760      0.2463
      8  C8A        8.7090    2.5250   34.2990 C.1   760  H4B760      0.1270
      9  N5         6.3480    2.4210   34.1220 N.2   760  H4B760     -0.2460
     10  N8         8.6560    2.8980   35.6340 N.2   760  H4B760     -0.2054
     11  C6         6.2550    3.3310   35.2880 C.3   760  H4B760      0.1627
     12  C7         7.3570    3.0580   36.3220 C.3   760  H4B760      0.1643
     13  C9         4.8620    3.3500   35.9440 C.3   760  H4B760      0.2063
     14  O9         4.5810    2.0180   36.3520 O.3   760  H4B760     -0.2183
     15  C10        4.8110    4.2770   37.1600 C.3   760  H4B760      0.1842
     16  C11        3.3790    4.5010   37.6820 C.3   760  H4B760      0.0383
     17  O10        5.3630    5.5350   36.7500 O.3   760  H4B760     -0.2204
@<TRIPOS>BOND
     1     6     5    2
     2     4     5    2
     3     4     2    2
     4     3     2    1
     5     5     7    1
     6     2     1    2
     7     7     9    2
     8     7     8    1
     9     1     8    2
    10     9    11    1
    11     8    10    2
    12    11    13    1
    13    11    12    1
    14    10    12    1
    15    13    14    1
    16    13    15    1
    17    17    15    1
    18    15    16    1
