@<TRIPOS>MOLECULE
3jta_H4B_A_1.pdb
 17 18 0 0 0
SMALL
GASTEIGER

@<TRIPOS>ATOM
      1  N1        10.0380    2.4010   33.8150 N.2   760  H4B760     -0.2683
      2  C2        10.1910    2.0020   32.5330 C.1   760  H4B760      0.2608
      3  N2        11.4570    1.8670   32.0100 N.pl3 760  H4B760     -0.0220
      4  N3         9.0840    1.7590   31.7880 N.2   760  H4B760     -0.2474
      5  C4         7.8300    1.8690   32.3090 C.1   760  H4B760      0.2441
      6  O4         6.8500    1.6410   31.5540 O.2   760  H4B760     -0.2063
      7  C4A        7.6620    2.3130   33.6150 C.2   760  H4B760      0.2463
      8  C8A        8.8210    2.5820   34.3790 C.1   760  H4B760      0.1270
      9  N5         6.4250    2.4690   34.1940 N.2   760  H4B760     -0.2460
     10  N8         8.7510    2.9510   35.7110 N.2   760  H4B760     -0.2054
     11  C6         6.3220    3.3800   35.3700 C.3   760  H4B760      0.1627
     12  C7         7.4420    3.0940   36.3690 C.3   760  H4B760      0.1643
     13  C9         4.9370    3.4120   36.0340 C.3   760  H4B760      0.2063
     14  O9         4.6860    2.0760   36.4340 O.3   760  H4B760     -0.2183
     15  C10        4.8380    4.3310   37.2590 C.3   760  H4B760      0.1842
     16  C11        3.4610    4.3630   37.9380 C.3   760  H4B760      0.0383
     17  O10        5.1800    5.6510   36.8610 O.3   760  H4B760     -0.2204
@<TRIPOS>BOND
     1     6     5    2
     2     4     5    2
     3     4     2    2
     4     3     2    1
     5     5     7    1
     6     2     1    2
     7     7     9    2
     8     7     8    1
     9     1     8    2
    10     9    11    1
    11     8    10    2
    12    11    13    1
    13    11    12    1
    14    10    12    1
    15    13    14    1
    16    13    15    1
    17    17    15    1
    18    15    16    1
