@<TRIPOS>MOLECULE
3jta_JM6_A_1.pdb
 16 15 0 0 0
SMALL
GASTEIGER

@<TRIPOS>ATOM
      1  C          9.0460   -3.1450   24.6640 C.2   800  JM6800      0.3819
      2  N          9.8280   -1.4470   26.2260 N.3   800  JM6800     -0.1208
      3  C1        13.8870   -0.2670   23.3310 C.2   800  JM6800      0.3895
      4  C2        14.1690    0.4610   22.0600 C.3   800  JM6800      0.1268
      5  C3        14.8070    1.7610   22.3840 C.3   800  JM6800      0.0246
      6  C4        13.6490    2.6450   22.7280 C.3   800  JM6800      0.0582
      7  S5        12.9480    2.8170   21.1260 S.3   800  JM6800     -0.1393
      8  C6        11.8580    1.5020   20.6940 C.3   800  JM6800      0.0692
      9  CA         9.2110   -1.6570   24.9290 C.3   800  JM6800      0.1945
     10  CB        10.0090   -1.0200   23.7810 C.3   800  JM6800      0.0350
     11  CD        11.7150    0.8580   23.8960 C.3   800  JM6800      0.2510
     12  NE        12.6670   -0.2620   23.8790 N.pl3 800  JM6800     -0.0316
     13  CG        10.2340    0.4820   23.9250 C.3   800  JM6800      0.0574
     14  OA1        8.6420   -3.4810   23.5330 O.co2 800  JM6800     -0.2441
     15  OA2        9.3040   -3.9690   25.6000 O.co2 800  JM6800     -0.2441
     16  NH1       14.8470   -0.9030   23.7950 N.2   800  JM6800      0.1917
@<TRIPOS>BOND
     1     8     7    1
     2     7     6    1
     3     4     5    1
     4     4     3    1
     5     5     6    1
     6     3    16    2
     7     3    12    1
     8    14     1   ar
     9    10    13    1
    10    10     9    1
    11    12    11    1
    12    11    13    1
    13     1     9    1
    14     1    15   ar
    15     9     2    1
