@<TRIPOS>MOLECULE
3jta_HEM_A_1.pdb
 43 50 0 0 0
SMALL
GASTEIGER

@<TRIPOS>ATOM
      1  CHA       12.9910    4.4680   26.6130 C.2   750  HEM750      0.0000
      2  CHB       16.7550    1.5070   26.0240 C.2   750  HEM750      0.0000
      3  CHC       17.7180    3.4490   21.7100 C.2   750  HEM750      0.0000
      4  CHD       14.5750    7.0220   22.7470 C.2   750  HEM750      0.0000
      5  C1A       13.8360    3.4220   26.7490 C.2   750  HEM750      0.0000
      6  C2A       13.7010    2.3790   27.7020 C.2   750  HEM750      0.0000
      7  C3A       14.7410    1.5440   27.5790 C.2   750  HEM750      0.0000
      8  C4A       15.5740    2.0640   26.4900 C.2   750  HEM750      0.0000
      9  CMA       14.9770    0.2230   28.4100 C.3   750  HEM750      0.0000
     10  CAA       12.4980    2.2260   28.6280 C.3   750  HEM750      0.0000
     11  CBA       11.4510    1.5930   27.6740 C.3   750  HEM750      0.0000
     12  CGA       10.2080    1.1030   28.3940 C.2   750  HEM750      0.0000
     13  O1A       10.2920    0.8590   29.6450 O.co2 750  HEM750      0.0000
     14  O2A        9.1240    0.9800   27.7340 O.co2 750  HEM750      0.0000
     15  C1B       17.3300    1.7140   24.8220 C.ar  750  HEM750      0.0000
     16  C2B       18.4500    0.9730   24.2500 C.ar  750  HEM750      0.0000
     17  C3B       18.7180    1.4930   23.0540 C.ar  750  HEM750      0.0000
     18  C4B       17.8130    2.6240   22.8380 C.ar  750  HEM750      0.0000
     19  CMB       19.1940   -0.2350   24.8600 C.3   750  HEM750      0.0000
     20  CAB       19.8480    0.9580   22.1370 C.2   750  HEM750      0.0000
     21  CBB       20.3650    1.7190   21.1720 C.2   750  HEM750      0.0000
     22  C1C       16.8990    4.5720   21.5760 C.2   750  HEM750      0.0000
     23  C2C       16.8100    5.4260   20.4190 C.2   750  HEM750      0.0000
     24  C3C       15.9400    6.4170   20.7320 C.2   750  HEM750      0.0000
     25  C4C       15.4560    6.2040   22.0590 C.2   750  HEM750      0.0000
     26  CMC       17.5950    5.1300   19.0780 C.3   750  HEM750      0.0000
     27  CAC       15.4500    7.5820   19.8610 C.3   750  HEM750      0.0000
     28  CBC       16.2320    7.8130   18.8200 C.3   750  HEM750      0.0000
     29  C1D       13.8400    6.6770   23.8680 C.ar  750  HEM750      0.0000
     30  C2D       12.6770    7.3850   24.3590 C.ar  750  HEM750      0.0000
     31  C3D       12.2320    6.5640   25.5410 C.ar  750  HEM750      0.0000
     32  C4D       13.1130    5.4480   25.6340 C.ar  750  HEM750      0.0000
     33  CMD       12.0150    8.6980   23.8480 C.3   750  HEM750      0.0000
     34  CAD       11.0240    6.8170   26.4530 C.3   750  HEM750      0.0000
     35  CBD        9.9250    6.1580   25.5990 C.3   750  HEM750      0.0000
     36  CGD        8.6080    6.2040   26.3200 C.2   750  HEM750      0.0000
     37  O1D        8.3190    7.1990   27.0960 O.co2 750  HEM750      0.0000
     38  O2D        7.8730    5.1930   26.1180 O.co2 750  HEM750      0.0000
     39  NA        14.9810    3.2180   26.0260 N.2   750  HEM750      0.0000
     40  NB        16.9910    2.7380   23.9560 N.ar  750  HEM750      0.0000
     41  NC        16.0360    5.0630   22.5190 N.2   750  HEM750      0.0000
     42  ND        14.0730    5.5570   24.6560 N.ar  750  HEM750      0.0000
     43 FE         15.8120    4.3860   24.4740 Fe    750  HEM750      0.0000
@<TRIPOS>BOND
     1    28    27    1
     2    26    23    1
     3    27    24    1
     4    23    24    2
     5    23    22    1
     6    24    25    1
     7    21    20    2
     8    22     3    2
     9    22    41    1
    10     3    18    1
    11    25    41    2
    12    25     4    1
    13    20    17    1
    14    41    43    1
    15     4    29    2
    16    18    17   ar
    17    18    40   ar
    18    17    16   ar
    19    33    30    1
    20    29    30   ar
    21    29    42   ar
    22    40    43    1
    23    40    15   ar
    24    16    15   ar
    25    16    19    1
    26    30    31   ar
    27    43    42    1
    28    43    39    1
    29    42    32   ar
    30    15     2    1
    31    31    32   ar
    32    31    34    1
    33    35    36    1
    34    35    34    1
    35    32     1    2
    36     2     8    2
    37    39     8    1
    38    39     5    2
    39    38    36   ar
    40    36    37   ar
    41     8     7    1
    42     1     5    1
    43     5     6    1
    44     7     6    2
    45     7     9    1
    46    11    12    1
    47    11    10    1
    48     6    10    1
    49    14    12   ar
    50    12    13   ar
