@<TRIPOS>MOLECULE
3jtf_AMP_A_1.pdb
 23 25 0 0 0
SMALL
GASTEIGER

@<TRIPOS>ATOM
      1  P         13.6760   34.6150   30.3270 P.3     1  AMP1        0.5327
      2  O1P       15.1050   34.3550   30.7420 O.3     1  AMP1       -0.1145
      3  O2P       12.6450   34.3780   31.4170 O.3     1  AMP1       -0.1145
      4  O3P       13.4070   35.8760   29.5390 O.2     1  AMP1       -0.2224
      5  O5'       13.3510   33.4120   29.3100 O.3     1  AMP1       -0.2675
      6  C5'       12.1230   33.3880   28.5670 C.3     1  AMP1        0.1860
      7  C4'       12.2950   32.6760   27.2310 C.3     1  AMP1        0.1823
      8  O4'       12.8850   33.5670   26.2560 O.3     1  AMP1       -0.3135
      9  C3'       13.2070   31.4520   27.3340 C.3     1  AMP1        0.2184
     10  O3'       12.5260   30.2410   27.6950 O.3     1  AMP1       -0.2174
     11  C2'       13.8080   31.4230   25.9450 C.3     1  AMP1        0.2570
     12  O2'       12.8540   30.8600   25.0420 O.3     1  AMP1       -0.2130
     13  C1'       13.9440   32.8860   25.5630 C.3     1  AMP1        0.3186
     14  N9        15.2210   33.5180   25.9630 N.pl3   1  AMP1       -0.1439
     15  C8        15.8790   33.4940   27.1590 C.3     1  AMP1        0.3377
     16  N7        17.0030   34.2650   27.1080 N.2     1  AMP1       -0.2095
     17  C5        17.0650   34.8170   25.8650 C.2     1  AMP1        0.2526
     18  C6        17.9790   35.7280   25.0900 C.2     1  AMP1        0.4393
     19  N6        19.0980   36.2570   25.6400 N.pl3   1  AMP1        0.2180
     20  N1        17.6500   36.0160   23.8060 N.2     1  AMP1        0.0021
     21  C2        16.5220   35.5240   23.2230 C.3     1  AMP1        0.5254
     22  N3        15.6440   34.7120   23.8490 N.2     1  AMP1       -0.0055
     23  C4        15.8740   34.3110   25.1280 C.2     1  AMP1        0.3518
@<TRIPOS>BOND
     1    21    20    1
     2    21    22    1
     3    20    18    2
     4    22    23    2
     5    12    11    1
     6    18    19    1
     7    18    17    1
     8    23    17    1
     9    23    14    1
    10    13    11    1
    11    13    14    1
    12    13     8    1
    13    17    16    2
    14    11     9    1
    15    14    15    1
    16     8     7    1
    17    16    15    1
    18     7     9    1
    19     7     6    1
    20     9    10    1
    21     6     5    1
    22     5     1    1
    23     4     1    2
    24     1     2    1
    25     1     3    1
