@<TRIPOS>MOLECULE
3jtk_X55_A_1.pdb
 23 25 0 0 0
SMALL
GASTEIGER

@<TRIPOS>ATOM
      1  CAA       -7.7530   23.0060    3.2650 C.3   1002  X551002     0.2526
      2  OAB       -8.8620   26.8180   -1.7430 O.2   1002  X551002    -0.2739
      3  OAC       -6.5550   19.5890    1.7110 O.3   1002  X551002    -0.2833
      4 BRAD       -7.5860   20.9460   -3.2370 Br    1002  X551002    -0.0491
      5  CAE       -4.1860   24.6150    0.9930 C.ar  1002  X551002    -0.0000
      6  CAF       -5.2740   25.4850    1.0750 C.ar  1002  X551002    -0.0003
      7  CAG       -4.0360   23.7840   -0.1160 C.ar  1002  X551002    -0.0003
      8  CAH       -6.2140   25.5330    0.0450 C.ar  1002  X551002    -0.0026
      9  CAI       -4.9750   23.8320   -1.1460 C.ar  1002  X551002    -0.0026
     10  CAJ       -7.0940   20.3030   -0.5000 C.ar  1002  X551002     0.0517
     11  CAK       -8.5170   22.4420    0.5700 C.ar  1002  X551002     0.0389
     12  CAL      -10.7520   25.4120   -1.3220 C.3   1002  X551002     0.1444
     13  CAM       -7.0660   24.7260   -2.2170 C.3   1002  X551002     0.1212
     14  OAN       -7.9400   21.6650    2.7870 O.3   1002  X551002    -0.4682
     15  SAO      -10.8100   23.6190   -1.1000 S.3   1002  X551002    -0.1069
     16  CAP       -9.2800   25.6690   -1.6580 C.2   1002  X551002     0.2377
     17  CAQ       -6.0660   24.6980   -1.0620 C.ar  1002  X551002    -0.0023
     18  CAR       -7.1710   20.4720    0.8830 C.ar  1002  X551002     0.2298
     19  CAS       -7.7220   21.2030   -1.3550 C.ar  1002  X551002     0.0363
     20  CAT       -7.8790   21.5390    1.4260 C.ar  1002  X551002     0.1772
     21  CAU       -8.4340   22.2780   -0.8150 C.ar  1002  X551002     0.0155
     22  CAV       -9.1460   23.2670   -1.7500 C.3   1002  X551002     0.1477
     23  NAW       -8.4790   24.5920   -1.8130 N.am  1002  X551002    -0.2635
@<TRIPOS>BOND
     1     4    19    1
     2    13    23    1
     3    13    17    1
     4    23    22    1
     5    23    16   am
     6    22    15    1
     7    22    21    1
     8     2    16    2
     9    16    12    1
    10    19    21   ar
    11    19    10   ar
    12    12    15    1
    13     9    17   ar
    14     9     7   ar
    15    17     8   ar
    16    21    11   ar
    17    10    18   ar
    18     7     5   ar
    19     8     6   ar
    20    11    20   ar
    21    18    20   ar
    22    18     3    1
    23     5     6   ar
    24    20    14    1
    25    14     1    1
