@<TRIPOS>MOLECULE
3jtu_ZIN_A_1.pdb
 18 20 0 0 0
SMALL
GASTEIGER

@<TRIPOS>ATOM
      1  CAA       26.3870    6.9950  -19.4890 C.ar  123  ZIN123      0.0242
      2  CAB       26.9840    8.1200  -18.9260 C.ar  123  ZIN123      0.2095
      3  CAC       25.2050    6.3200  -18.7880 C.3   123  ZIN123      0.0753
      4  CAD       28.0710    8.7180  -19.5570 C.ar  123  ZIN123      0.1198
      5  CAF       26.8760    6.4710  -20.6820 C.ar  123  ZIN123     -0.0006
      6  NAG       28.6530    9.8000  -19.0150 N.ar  123  ZIN123     -0.2406
      7  CAH       25.6980    4.9920  -18.2080 C.ar  123  ZIN123      0.0635
      8  NAI       25.5780    3.8670  -18.9300 N.ar  123  ZIN123     -0.2478
      9  CAJ       28.5590    8.1900  -20.7500 C.ar  123  ZIN123      0.0208
     10  CAK       27.9630    7.0660  -21.3150 C.ar  123  ZIN123      0.0014
     11  OAM       26.5150    8.6340  -17.7580 O.3   123  ZIN123     -0.2853
     12  CAT       29.6890   10.3980  -19.5780 C.ar  123  ZIN123      0.0989
     13  CAU       26.0150    2.6970  -18.4930 C.ar  123  ZIN123      0.0985
     14  CAV       26.2940    4.9550  -16.9510 C.ar  123  ZIN123      0.0151
     15  CAW       29.6480    8.8000  -21.3660 C.ar  123  ZIN123      0.0032
     16  CAY       30.2210    9.9200  -20.7710 C.ar  123  ZIN123      0.0207
     17  CAZ       26.6210    2.5930  -17.2450 C.ar  123  ZIN123      0.0207
     18  CBA       26.7610    3.7370  -16.4660 C.ar  123  ZIN123      0.0028
@<TRIPOS>BOND
     1    15    16   ar
     2    15     9   ar
     3    10     9   ar
     4    10     5   ar
     5    16    12   ar
     6     9     4   ar
     7     5     1   ar
     8    12     6   ar
     9     4     6   ar
    10     4     2   ar
    11     1     2   ar
    12     1     3    1
    13     8    13   ar
    14     8     7   ar
    15     2    11    1
    16     3     7    1
    17    13    17   ar
    18     7    14   ar
    19    17    18   ar
    20    14    18   ar
