@<TRIPOS>MOLECULE
3ju4_SLB_A_1.pdb
 21 21 0 0 0
SMALL
GASTEIGER

@<TRIPOS>ATOM
      1  C1        75.1560   39.0300  -50.9870 C.2     1  SLB1        0.4179
      2  C2        75.1190   39.1300  -49.4720 C.3     1  SLB1        0.3155
      3  C3        73.6460   39.1290  -49.0810 C.3     1  SLB1        0.1056
      4  C4        73.5270   39.3780  -47.5650 C.3     1  SLB1        0.1798
      5  C5        74.2030   40.6780  -47.2180 C.3     1  SLB1        0.1554
      6  C6        75.6820   40.6140  -47.6710 C.3     1  SLB1        0.1734
      7  C7        76.3660   41.9710  -47.4770 C.3     1  SLB1        0.2135
      8  C8        77.8050   41.9420  -48.0550 C.3     1  SLB1        0.2173
      9  C9        78.4950   43.2630  -47.7330 C.3     1  SLB1        0.2175
     10  C10       73.6010   41.9440  -45.1840 C.2     1  SLB1        0.2420
     11  C11       73.7420   42.0130  -43.6680 C.3     1  SLB1        0.0964
     12  N5        74.2110   40.9030  -45.7670 N.am    1  SLB1       -0.2020
     13  O1A       75.3350   40.0570  -51.6130 O.co2   1  SLB1       -0.2401
     14  O1B       75.0320   37.9380  -51.5440 O.co2   1  SLB1       -0.2401
     15  O2        75.7350   38.0030  -48.8650 O.3     1  SLB1       -0.1830
     16  O4        72.1430   39.4160  -47.2260 O.3     1  SLB1       -0.2210
     17  O6        75.7650   40.3330  -49.0750 O.3     1  SLB1       -0.3220
     18  O7        75.7070   42.9870  -48.2170 O.3     1  SLB1       -0.2176
     19  O8        78.4550   40.8610  -47.3680 O.3     1  SLB1       -0.2175
     20  O9        79.8770   43.2120  -48.0870 O.3     1  SLB1       -0.2175
     21  O10       72.9730   42.7960  -45.7890 O.2     1  SLB1       -0.2733
@<TRIPOS>BOND
     1    13     1   ar
     2    14     1   ar
     3     1     2    1
     4     2     3    1
     5     2    17    1
     6     2    15    1
     7     3     4    1
     8    17     6    1
     9    18     7    1
    10    20     9    1
    11     8     9    1
    12     8     7    1
    13     8    19    1
    14     6     7    1
    15     6     5    1
    16     4    16    1
    17     4     5    1
    18     5    12    1
    19    21    10    2
    20    12    10   am
    21    10    11    1
