@<TRIPOS>MOLECULE
3ju6_ARG_A_1.pdb
 12 11 0 0 0
SMALL
GASTEIGER

@<TRIPOS>ATOM
      1  N          0.6370   32.2130   11.4530 N.3   5001  ARG5001    -0.1208
      2  CA        -0.2640   32.9770   10.5440 C.3   5001  ARG5001     0.1944
      3  C          0.0390   34.4610   10.6650 C.2   5001  ARG5001     0.3819
      4  O          0.1190   35.1770    9.6650 O.co2 5001  ARG5001    -0.2441
      5  CB        -1.7330   32.6920   10.8790 C.3   5001  ARG5001     0.0343
      6  CG        -2.7650   33.4880   10.0630 C.3   5001  ARG5001     0.0490
      7  CD        -3.9730   32.6360    9.6680 C.3   5001  ARG5001     0.2205
      8  NE        -4.6660   32.0510   10.8180 N.pl3 5001  ARG5001    -0.0865
      9  CZ        -4.4370   30.8300   11.3040 C.cat 5001  ARG5001     0.5346
     10  NH1       -3.5160   30.0490   10.7520 N.pl3 5001  ARG5001     0.1354
     11  NH2       -5.1220   30.3900   12.3530 N.pl3 5001  ARG5001     0.1354
     12  OXT        0.2270   34.9600   11.7750 O.co2 5001  ARG5001    -0.2441
@<TRIPOS>BOND
     1     4     3   ar
     2     7     6    1
     3     7     8    1
     4     6     5    1
     5     2     3    1
     6     2     5    1
     7     2     1    1
     8     3    12   ar
     9    10     9    1
    10     8     9    2
    11     9    11    1
