@<TRIPOS>MOLECULE
3ju6_ANP_A_1.pdb
 31 33 0 0 0
SMALL
GASTEIGER

@<TRIPOS>ATOM
      1  PG        -7.9250   26.8560    9.5470 P.3   6001  ANP6001     0.4884
      2  O1G       -8.8240   27.7560    8.7290 O.2   6001  ANP6001    -0.2331
      3  O2G       -6.8030   26.2080    8.7640 O.3   6001  ANP6001    -0.1240
      4  O3G       -7.4940   27.5220   10.8290 O.3   6001  ANP6001    -0.1240
      5  PB       -10.2900   25.0980    9.3240 P.3   6001  ANP6001     0.4669
      6  O1B      -10.7260   23.7580    9.8620 O.3   6001  ANP6001    -0.1253
      7  O2B      -11.2380   26.2570    9.4830 O.2   6001  ANP6001    -0.2351
      8  N3B       -8.8350   25.5300   10.0370 N.3   6001  ANP6001    -0.0163
      9  PA        -8.7760   24.1150    7.1830 P.3   6001  ANP6001     0.2220
     10  O1A       -8.3400   24.7380    5.8690 O.2   6001  ANP6001    -0.5170
     11  O2A       -7.7960   23.9190    8.3240 O.3   6001  ANP6001    -0.4370
     12  O3A      -10.0560   24.9200    7.7410 O.3   6001  ANP6001    -0.2360
     13  O5'       -9.4780   22.6950    6.8740 O.3   6001  ANP6001    -0.3111
     14  C5'       -9.3490   21.5500    7.7220 C.3   6001  ANP6001     0.1813
     15  C4'       -9.9310   20.3310    7.0060 C.3   6001  ANP6001     0.1821
     16  O4'      -11.3200   20.5560    6.7280 O.3   6001  ANP6001    -0.3135
     17  C3'       -9.2510   20.0520    5.6720 C.3   6001  ANP6001     0.2184
     18  O3'       -8.8360   18.6810    5.6580 O.3   6001  ANP6001    -0.2174
     19  C2'      -10.3040   20.2950    4.6000 C.3   6001  ANP6001     0.2570
     20  O2'      -10.2840   19.2560    3.6130 O.3   6001  ANP6001    -0.2130
     21  C1'      -11.6200   20.2570    5.3600 C.3   6001  ANP6001     0.3186
     22  N9       -12.6930   21.1650    4.8580 N.pl3 6001  ANP6001    -0.1439
     23  C8       -12.7480   22.5100    4.9180 C.3   6001  ANP6001     0.3377
     24  N7       -13.9080   22.9420    4.3680 N.2   6001  ANP6001    -0.2095
     25  C5       -14.5920   21.8460    3.9650 C.2   6001  ANP6001     0.2526
     26  C6       -15.8320   21.6280    3.3480 C.2   6001  ANP6001     0.4393
     27  N6       -16.6440   22.6520    3.0100 N.pl3 6001  ANP6001     0.2180
     28  N1       -16.2320   20.3670    3.0740 N.2   6001  ANP6001     0.0021
     29  C2       -15.4600   19.3150    3.3970 C.3   6001  ANP6001     0.5254
     30  N3       -14.2680   19.4880    3.9930 N.2   6001  ANP6001    -0.0055
     31  C4       -13.8180   20.7360    4.2850 C.2   6001  ANP6001     0.3518
@<TRIPOS>BOND
     1    27    26    1
     2    28    26    2
     3    28    29    1
     4    26    25    1
     5    29    30    1
     6    20    19    1
     7    25    31    1
     8    25    24    2
     9    30    31    2
    10    31    22    1
    11    24    23    1
    12    19    21    1
    13    19    17    1
    14    22    23    1
    15    22    21    1
    16    21    16    1
    17    18    17    1
    18    17    15    1
    19    10     9    2
    20    16    15    1
    21    13     9    1
    22    13    14    1
    23    15    14    1
    24     9    12    1
    25     9    11    1
    26    12     5    1
    27     2     1    2
    28     3     1    1
    29     5     7    2
    30     5     6    1
    31     5     8    1
    32     1     8    1
    33     1     4    1
