@<TRIPOS>MOLECULE
3ju8_NAD_A_1.pdb
 44 48 0 0 0
SMALL
GASTEIGER

@<TRIPOS>ATOM
      1  PA        13.5070   30.5310   61.6140 P.3   501  NAD501      0.2189
      2  O1A       12.1360   30.7880   60.9940 O.2   501  NAD501     -0.5170
      3  O2A       13.7260   31.7090   62.5380 O.3   501  NAD501     -0.4371
      4  O5B       14.7260   30.4370   60.5590 O.3   501  NAD501     -0.3112
      5  C5B       14.9770   29.6480   59.3830 C.3   501  NAD501      0.1813
      6  C4B       15.4490   30.5690   58.2430 C.3   501  NAD501      0.1821
      7  O4B       14.5240   31.4540   57.5560 O.3   501  NAD501     -0.3135
      8  C3B       16.8140   31.2690   57.9010 C.3   501  NAD501      0.2184
      9  O3B       17.9080   30.9080   57.0900 O.3   501  NAD501     -0.2174
     10  C2B       16.4640   32.6930   58.2300 C.3   501  NAD501      0.2570
     11  O2B       17.3560   33.7050   58.4690 O.3   501  NAD501     -0.2130
     12  C1B       15.0210   32.8240   57.7480 C.3   501  NAD501      0.3186
     13  N9A       14.3630   34.0230   58.1880 N.pl3 501  NAD501     -0.1439
     14  C8A       14.2630   34.3690   59.4870 C.3   501  NAD501      0.3377
     15  N7A       13.4740   35.4980   59.5740 N.2   501  NAD501     -0.2095
     16  C5A       13.0930   35.8270   58.3120 C.2   501  NAD501      0.2526
     17  C6A       12.3020   36.8580   57.8670 C.2   501  NAD501      0.4393
     18  N6A       11.7400   37.7820   58.8580 N.pl3 501  NAD501      0.2180
     19  N1A       12.0410   36.9790   56.5550 N.2   501  NAD501      0.0021
     20  C2A       12.5790   36.0870   55.6440 C.3   501  NAD501      0.5254
     21  N3A       13.3690   35.0660   56.1000 N.2   501  NAD501     -0.0055
     22  C4A       13.6240   34.9300   57.4240 C.2   501  NAD501      0.3518
     23  O3        13.4800   29.2290   62.4790 O.3   501  NAD501     -0.2703
     24  PN        14.8480   28.8320   63.1680 P.3   501  NAD501      0.2189
     25  O1N       15.0410   29.7640   64.4290 O.3   501  NAD501     -0.4371
     26  O2N       16.0370   28.9520   62.2230 O.2   501  NAD501     -0.5170
     27  O5D       14.6830   27.3560   63.6260 O.3   501  NAD501     -0.3112
     28  C5D       13.5790   27.1540   64.4230 C.3   501  NAD501      0.1813
     29  C4D       12.5980   26.1970   63.8340 C.3   501  NAD501      0.1799
     30  O4D       12.9840   25.2040   62.8410 O.3   501  NAD501     -0.3327
     31  C3D       11.2220   25.8060   64.4260 C.3   501  NAD501      0.2158
     32  O3D       10.1670   26.6200   64.8350 O.3   501  NAD501     -0.2175
     33  C2D       11.1660   24.3370   64.1810 C.3   501  NAD501      0.2309
     34  O2D       10.3260   23.4090   64.7360 O.3   501  NAD501     -0.2158
     35  C1D       12.0140   24.1100   62.9420 C.3   501  NAD501      0.2263
     36  N1N       12.1190   22.8300   62.2840 N.pl3 501  NAD501     -0.2787
     37  C2N       11.3190   22.4250   61.2680 C.3   501  NAD501      0.1244
     38  C3N       11.6150   21.1470   60.7080 C.2   501  NAD501      0.0544
     39  C7N       10.8670   20.4950   59.6060 C.2   501  NAD501      0.2818
     40  O7N       11.5200   19.6600   59.0120 O.2   501  NAD501     -0.2670
     41  N7N        9.4410   20.4940   59.4990 N.am  501  NAD501     -0.0839
     42  C4N       12.6840   20.3830   61.1820 C.2   501  NAD501      0.0033
     43  C5N       13.4690   20.8110   62.2300 C.2   501  NAD501      0.0157
     44  C6N       13.1920   22.0240   62.7800 C.2   501  NAD501      0.0633
@<TRIPOS>BOND
     1    20    21    1
     2    20    19    1
     3    21    22    2
     4    19    17    2
     5     9     8    1
     6    22    13    1
     7    22    16    1
     8     7    12    1
     9     7     6    1
    10    12    13    1
    11    12    10    1
    12    17    16    1
    13    17    18    1
    14     8    10    1
    15     8     6    1
    16    13    14    1
    17    10    11    1
    18     6     5    1
    19    16    15    2
    20    40    39    2
    21     5     4    1
    22    14    15    1
    23    41    39   am
    24    39    38    1
    25     4     1    1
    26    38    42    2
    27    38    37    1
    28     2     1    2
    29    42    43    1
    30    37    36    1
    31     1    23    1
    32     1     3    1
    33    26    24    2
    34    43    44    2
    35    36    44    1
    36    36    35    1
    37    23    24    1
    38    30    35    1
    39    30    29    1
    40    35    33    1
    41    24    27    1
    42    24    25    1
    43    27    28    1
    44    29    28    1
    45    29    31    1
    46    33    31    1
    47    33    34    1
    48    31    32    1
