@<TRIPOS>MOLECULE
3juh_ANP_A_1.pdb
 31 33 0 0 0
SMALL
GASTEIGER

@<TRIPOS>ATOM
      1  PG       -34.1390   93.9270   11.6220 P.3   339  ANP339      0.4884
      2  O1G      -34.1990   93.6650   10.1290 O.2   339  ANP339     -0.2331
      3  O2G      -34.2670   95.4180   11.9370 O.3   339  ANP339     -0.1240
      4  O3G      -33.0000   93.2320   12.3760 O.3   339  ANP339     -0.1240
      5  PB       -36.4090   91.6540   11.5070 P.3   339  ANP339      0.4669
      6  O1B      -37.9070   91.9000   11.3260 O.3   339  ANP339     -0.1253
      7  O2B      -35.7610   91.0080   10.2760 O.2   339  ANP339     -0.2351
      8  N3B      -35.6530   93.1630   12.1110 N.3   339  ANP339     -0.0163
      9  PA       -35.6490   90.8830   14.1460 P.3   339  ANP339      0.2220
     10  O1A      -34.2710   90.2670   14.0070 O.2   339  ANP339     -0.5170
     11  O2A      -35.7760   92.3340   14.5790 O.3   339  ANP339     -0.4370
     12  O3A      -36.4310   90.6360   12.7540 O.3   339  ANP339     -0.2360
     13  O5'      -36.5220   90.0020   15.1770 O.3   339  ANP339     -0.3111
     14  C5'      -36.7320   90.5430   16.4800 C.3   339  ANP339      0.1813
     15  C4'      -38.0490   89.9420   16.8610 C.3   339  ANP339      0.1821
     16  O4'      -38.7740   90.1030   15.6330 O.3   339  ANP339     -0.3135
     17  C3'      -37.9130   88.4510   17.1960 C.3   339  ANP339      0.2184
     18  O3'      -38.6370   88.0360   18.3600 O.3   339  ANP339     -0.2174
     19  C2'      -38.5710   87.7540   16.0470 C.3   339  ANP339      0.2570
     20  O2'      -39.4380   86.7230   16.5350 O.3   339  ANP339     -0.2130
     21  C1'      -39.4090   88.8540   15.4230 C.3   339  ANP339      0.3186
     22  N9       -39.7080   88.4850   14.0260 N.pl3 339  ANP339     -0.1439
     23  C8       -39.1510   88.8190   12.8470 C.3   339  ANP339      0.3377
     24  N7       -39.8310   88.2060   11.8640 N.2   339  ANP339     -0.2095
     25  C5       -40.8120   87.4650   12.4220 C.2   339  ANP339      0.2526
     26  C6       -41.9040   86.5770   11.9720 C.2   339  ANP339      0.4393
     27  N6       -42.0040   86.3770   10.6370 N.pl3 339  ANP339      0.2180
     28  N1       -42.7330   85.9750   12.9200 N.2   339  ANP339      0.0021
     29  C2       -42.5730   86.2190   14.2390 C.3   339  ANP339      0.5254
     30  N3       -41.5980   87.0310   14.7160 N.2   339  ANP339     -0.0055
     31  C4       -40.7300   87.6550   13.8670 C.2   339  ANP339      0.3518
@<TRIPOS>BOND
     1     2     1    2
     2     7     5    2
     3    27    26    1
     4     6     5    1
     5     5     8    1
     6     5    12    1
     7     1     3    1
     8     1     8    1
     9     1     4    1
    10    24    25    2
    11    24    23    1
    12    26    25    1
    13    26    28    2
    14    25    31    1
    15    12     9    1
    16    23    22    1
    17    28    29    1
    18    31    22    1
    19    31    30    2
    20    10     9    2
    21    22    21    1
    22     9    11    1
    23     9    13    1
    24    29    30    1
    25    13    14    1
    26    21    16    1
    27    21    19    1
    28    16    15    1
    29    19    20    1
    30    19    17    1
    31    14    15    1
    32    15    17    1
    33    17    18    1
