@<TRIPOS>MOLECULE
3juk_UPG_A_1.pdb
 36 38 0 0 0
SMALL
GASTEIGER

@<TRIPOS>ATOM
      1  N1        59.8830   37.3130   55.8530 N.am  282  UPG282     -0.1766
      2  C2        60.0270   35.9090   55.8450 C.1   282  UPG282      0.2845
      3  N3        58.9470   35.1800   55.7630 N.2   282  UPG282     -0.2452
      4  C4        57.7510   35.7550   55.6910 C.1   282  UPG282      0.2182
      5  C5        57.5660   37.1390   55.6940 C.2   282  UPG282      0.1242
      6  C6        58.6930   37.9180   55.7790 C.2   282  UPG282      0.0929
      7  O2        61.1240   35.3810   55.9130 O.2   282  UPG282     -0.1918
      8  O4        56.8260   35.0180   55.6260 O.2   282  UPG282     -0.2085
      9  C1C       61.1090   38.0900   55.9560 C.3   282  UPG282      0.2401
     10  C2C       61.4600   38.9410   54.7670 C.3   282  UPG282      0.2319
     11  O2C       62.0420   38.2270   53.6990 O.3   282  UPG282     -0.2157
     12  C3C       62.2830   40.0280   55.4130 C.3   282  UPG282      0.2158
     13  C4C       61.6470   40.1290   56.7700 C.3   282  UPG282      0.1799
     14  O4C       60.9720   38.9540   57.0280 O.3   282  UPG282     -0.3320
     15  O3C       63.6250   39.7020   55.7030 O.3   282  UPG282     -0.2175
     16  C5C       60.7940   41.3470   56.9160 C.3   282  UPG282      0.1813
     17  O5C       59.7890   41.2690   55.9860 O.3   282  UPG282     -0.3112
     18  PA        59.1270   42.4940   55.4580 P.3   282  UPG282      0.2189
     19  O1A       58.1110   42.1740   54.6250 O.2   282  UPG282     -0.5170
     20  O2A       60.0190   43.2530   54.7040 O.3   282  UPG282     -0.4371
     21  O3A       58.5840   43.2500   56.7260 O.3   282  UPG282     -0.2703
     22  PB        58.3510   44.7670   56.9630 P.3   282  UPG282      0.2208
     23  O1B       59.4360   45.4950   56.4440 O.3   282  UPG282     -0.4371
     24  O2B       57.1150   45.1620   56.4230 O.2   282  UPG282     -0.5170
     25  O3B       58.4190   44.9440   58.5010 O.3   282  UPG282     -0.2857
     26  C1'       59.4460   44.5490   59.3830 C.3   282  UPG282      0.2742
     27  C2'       58.9140   44.5760   60.8140 C.3   282  UPG282      0.2409
     28  C3'       58.5940   46.0040   61.2670 C.3   282  UPG282      0.2198
     29  C4'       59.8270   46.8920   61.0280 C.3   282  UPG282      0.2144
     30  C5'       60.3030   46.7340   59.5660 C.3   282  UPG282      0.1835
     31  C6'       61.5400   47.5690   59.3110 C.3   282  UPG282      0.2142
     32  O2'       57.7850   43.7550   60.8160 O.3   282  UPG282     -0.2149
     33  O3'       58.1260   46.0440   62.5680 O.3   282  UPG282     -0.2174
     34  O4'       59.6920   48.2650   61.3650 O.3   282  UPG282     -0.2176
     35  O5'       60.5830   45.3810   59.3070 O.3   282  UPG282     -0.3254
     36  O6'       62.3290   47.0600   58.3380 O.3   282  UPG282     -0.2176
@<TRIPOS>BOND
     1    11    10    1
     2    19    18    2
     3    20    18    1
     4    10    12    1
     5    10     9    1
     6    12    15    1
     7    12    13    1
     8    18    17    1
     9    18    21    1
    10     8     4    2
    11     4     5    1
    12     4     3    2
    13     5     6    2
    14     3     2    2
    15     6     1    1
    16     2     1   am
    17     2     7    2
    18     1     9    1
    19     9    14    1
    20    17    16    1
    21    24    22    2
    22    23    22    1
    23    21    22    1
    24    13    16    1
    25    13    14    1
    26    22    25    1
    27    36    31    1
    28    25    26    1
    29    35    26    1
    30    35    30    1
    31    31    30    1
    32    26    27    1
    33    30    29    1
    34    27    32    1
    35    27    28    1
    36    29    28    1
    37    29    34    1
    38    28    33    1
