@<TRIPOS>MOLECULE
3jul_TA6_A_1.pdb
 16 16 0 0 0
SMALL
GASTEIGER

@<TRIPOS>ATOM
      1  O1        10.1440    4.2920   12.3940 O.3   501  TA6501     -0.2148
      2  C1         9.4090    4.1390   11.1660 C.3   501  TA6501      0.2434
      3  C2         9.0180    2.6710   11.0300 C.3   501  TA6501      0.2807
      4  O2        10.2360    1.8910   11.0390 O.3   501  TA6501     -0.1896
      5  C3         8.2310    2.4160    9.7270 C.3   501  TA6501      0.2409
      6  O3         9.1530    2.0200    8.7020 O.3   501  TA6501     -0.2149
      7  C4         7.1770    1.3370   10.1120 C.3   501  TA6501      0.2167
      8  O4         7.6900   -0.0320   10.0190 O.3   501  TA6501     -0.2175
      9  C5         6.8570    1.7710   11.5330 C.3   501  TA6501      0.1808
     10  O5         8.1230    2.2590   12.1220 O.3   501  TA6501     -0.3254
     11  C6         6.3330    0.6780   12.4790 C.3   501  TA6501      0.1859
     12  O6         6.1600    1.3220   13.7690 O.3   501  TA6501     -0.2675
     13  P          5.6180    0.6030   15.0960 P.3   501  TA6501      0.5327
     14  O1P        4.0770    0.1100   14.7860 O.2   501  TA6501     -0.2224
     15  O2P        6.4500   -0.7890   15.4500 O.3   501  TA6501     -0.1145
     16  O3P        5.6320    1.5840   16.2490 O.3   501  TA6501     -0.1145
@<TRIPOS>BOND
     1     6     5    1
     2     5     7    1
     3     5     3    1
     4     8     7    1
     5     7     9    1
     6     3     4    1
     7     3     2    1
     8     3    10    1
     9     2     1    1
    10     9    10    1
    11     9    11    1
    12    11    12    1
    13    12    13    1
    14    14    13    2
    15    13    15    1
    16    13    16    1
