@<TRIPOS>MOLECULE
3jum_AOD_A_1.pdb
 20 21 0 0 0
SMALL
GASTEIGER

@<TRIPOS>ATOM
      1  OAA       38.9000    3.6740   95.0680 O.co2 500  AOD500     -0.2405
      2  OAB       43.6170   -2.6750   90.5650 O.co2 500  AOD500     -0.2457
      3  OAC       38.4650    2.6030   93.2190 O.co2 500  AOD500     -0.2405
      4  OAD       44.5040   -1.8780   92.4320 O.co2 500  AOD500     -0.2457
      5 BRAE       43.7530    5.9230   94.4230 Br    500  AOD500     -0.0490
      6  CAF       43.2920    3.8570   92.6360 C.ar  500  AOD500      0.0080
      7  CAG       42.5120    2.8870   91.9780 C.ar  500  AOD500      0.0168
      8  CAH       41.4930    4.3330   94.1210 C.ar  500  AOD500      0.0146
      9  CAI       39.6890   -2.0370   92.1270 C.3   500  AOD500      0.0023
     10  CAJ       39.5040   -0.5980   91.6840 C.3   500  AOD500      0.0216
     11  CAK       41.0100   -2.6240   91.6940 C.3   500  AOD500      0.0114
     12  CAL       41.9380   -0.2400   91.8350 C.3   500  AOD500      0.0328
     13  NAM       40.4540    1.7160   91.7390 N.pl3 500  AOD500     -0.2391
     14  CAN       39.2450    3.1970   93.9660 C.2   500  AOD500      0.3890
     15  CAO       43.5370   -2.0930   91.7020 C.2   500  AOD500      0.3644
     16  CAP       42.7770    4.5760   93.6730 C.ar  500  AOD500      0.0349
     17  CAQ       41.2150    2.6340   92.4200 C.ar  500  AOD500      0.0716
     18  CAR       40.6550    3.3510   93.4780 C.ar  500  AOD500      0.0950
     19  CAS       40.5910    0.3030   92.1100 C.3   500  AOD500      0.0930
     20  CAT       42.1680   -1.6950   92.0980 C.3   500  AOD500      0.1051
@<TRIPOS>BOND
     1     2    15   ar
     2    10    19    1
     3    10     9    1
     4    11    20    1
     5    11     9    1
     6    15    20    1
     7    15     4   ar
     8    13    19    1
     9    13    17    1
    10    12    20    1
    11    12    19    1
    12     7    17   ar
    13     7     6   ar
    14    17    18   ar
    15     6    16   ar
    16     3    14   ar
    17    18    14    1
    18    18     8   ar
    19    16     8   ar
    20    16     5    1
    21    14     1   ar
