@<TRIPOS>MOLECULE
3jun_AKD_A_1.pdb
 17 18 0 0 0
SMALL
GASTEIGER

@<TRIPOS>ATOM
      1  OAA       38.6770    1.8520   93.4920 O.co2 600  AKD600     -0.2405
      2  OAB       38.3830    3.0430   95.2920 O.co2 600  AKD600     -0.2405
      3 BRAC       43.7130    3.2550   92.0820 Br    600  AKD600     -0.0490
      4  CAD       43.2860    3.4580   94.9550 C.ar  600  AKD600      0.0080
      5  CAE       42.5020    3.3800   96.0730 C.ar  600  AKD600      0.0168
      6  CAF       41.4300    2.9370   93.5270 C.ar  600  AKD600      0.0146
      7  CAG       40.1880    4.0860  100.8250 C.3   600  AKD600      0.0206
      8  CAH       40.5550    2.6640  101.3660 C.3   600  AKD600      0.0888
      9  CAI       39.8880    4.0790   99.2910 C.3   600  AKD600      0.0245
     10  CAJ       41.0260    1.9370   99.1800 C.3   600  AKD600      0.1101
     11  NAK       41.6310    2.0350  100.5380 N.3   600  AKD600     -0.2162
     12  NAL       40.3720    3.0330   97.0380 N.pl3 600  AKD600     -0.2377
     13  CAM       39.1200    2.5800   94.4130 C.2   600  AKD600      0.3890
     14  CAN       42.7790    3.2550   93.7060 C.ar  600  AKD600      0.0349
     15  CAO       41.1370    3.0630   95.9240 C.ar  600  AKD600      0.0717
     16  CAP       40.5950    2.8740   94.6150 C.ar  600  AKD600      0.0950
     17  CAQ       40.9180    3.2710   98.4400 C.3   600  AKD600      0.1098
@<TRIPOS>BOND
     1     3    14    1
     2     1    13   ar
     3     6    14   ar
     4     6    16   ar
     5    14     4   ar
     6    13    16    1
     7    13     2   ar
     8    16    15   ar
     9     4     5   ar
    10    15     5   ar
    11    15    12    1
    12    12    17    1
    13    17    10    1
    14    17     9    1
    15    10    11    1
    16     9     7    1
    17    11     8    1
    18     7     8    1
