@<TRIPOS>MOLECULE
3jun_AJD_A_1.pdb
 17 18 0 0 0
SMALL
GASTEIGER

@<TRIPOS>ATOM
      1  OAA       46.0290   -4.4840   93.4950 O.co2 500  AJD500     -0.2405
      2  OAB       44.1250   -4.1530   92.4290 O.co2 500  AJD500     -0.2405
      3 BRAC       48.0330    0.4770   94.4030 Br    500  AJD500     -0.0490
      4  CAD       45.1850    0.4250   94.1670 C.ar  500  AJD500      0.0080
      5  CAE       43.9260   -0.1690   93.9280 C.ar  500  AJD500      0.0168
      6  CAF       46.2760   -1.6510   93.7870 C.ar  500  AJD500      0.0146
      7  CAG       38.8700   -1.6750   92.6750 C.3   500  AJD500      0.0206
      8  CAH       38.9590   -0.8130   91.4330 C.3   500  AJD500      0.0888
      9  CAI       40.1930   -2.2940   93.0130 C.3   500  AJD500      0.0245
     10  CAJ       41.3480   -0.5570   91.8010 C.3   500  AJD500      0.1101
     11  NAK       40.0760    0.0860   91.5450 N.3   500  AJD500     -0.2162
     12  NAL       42.5960   -2.0610   93.2900 N.pl3 500  AJD500     -0.2377
     13  CAM       45.0520   -3.7230   93.1400 C.2   500  AJD500      0.3890
     14  CAN       46.3290   -0.3460   94.1150 C.ar  500  AJD500      0.0349
     15  CAO       43.8140   -1.4780   93.5550 C.ar  500  AJD500      0.0717
     16  CAP       45.0210   -2.2600   93.5030 C.ar  500  AJD500      0.0950
     17  CAQ       41.3710   -1.2630   93.1300 C.3   500  AJD500      0.1098
@<TRIPOS>BOND
     1     8    11    1
     2     8     7    1
     3    11    10    1
     4    10    17    1
     5     2    13   ar
     6     7     9    1
     7     9    17    1
     8    17    12    1
     9    13     1   ar
    10    13    16    1
    11    12    15    1
    12    16    15   ar
    13    16     6   ar
    14    15     5   ar
    15     6    14   ar
    16     5     4   ar
    17    14     4   ar
    18    14     3    1
