@<TRIPOS>MOLECULE
3juo_AJD_A_1.pdb
 17 18 0 0 0
SMALL
GASTEIGER

@<TRIPOS>ATOM
      1  OAA       46.0170   -4.4040   93.0130 O.co2 500  AJD500     -0.2405
      2  OAB       44.0180   -4.2730   92.3020 O.co2 500  AJD500     -0.2405
      3 BRAC       48.3370    0.3930   93.7750 Br    500  AJD500     -0.0490
      4  CAD       45.3940    0.4840   93.4910 C.ar  500  AJD500      0.0080
      5  CAE       44.1290   -0.0540   93.2690 C.ar  500  AJD500      0.0168
      6  CAF       46.4280   -1.7090   93.2330 C.ar  500  AJD500      0.0146
      7  CAG       39.1160   -1.6360   92.4640 C.3   500  AJD500      0.0206
      8  CAH       39.0140   -0.8880   91.1380 C.3   500  AJD500      0.0888
      9  CAI       40.4580   -2.3450   92.5620 C.3   500  AJD500      0.0245
     10  CAJ       41.4870   -0.4080   91.3180 C.3   500  AJD500      0.1101
     11  NAK       40.1170    0.0840   91.0420 N.3   500  AJD500     -0.2162
     12  NAL       42.8190   -2.0130   92.7670 N.pl3 500  AJD500     -0.2377
     13  CAM       45.0580   -3.7380   92.7210 C.2   500  AJD500      0.3890
     14  CAN       46.5510   -0.3440   93.4730 C.ar  500  AJD500      0.0349
     15  CAO       44.0050   -1.4420   93.0160 C.ar  500  AJD500      0.0717
     16  CAP       45.1560   -2.2510   92.9810 C.ar  500  AJD500      0.0950
     17  CAQ       41.5260   -1.2890   92.6450 C.3   500  AJD500      0.1098
@<TRIPOS>BOND
     1    11     8    1
     2    11    10    1
     3     8     7    1
     4    10    17    1
     5     2    13   ar
     6     7     9    1
     7     9    17    1
     8    17    12    1
     9    13    16    1
    10    13     1   ar
    11    12    15    1
    12    16    15   ar
    13    16     6   ar
    14    15     5   ar
    15     6    14   ar
    16     5     4   ar
    17    14     4   ar
    18    14     3    1
