@<TRIPOS>MOLECULE
3jup_AKD_A_1.pdb
 17 18 0 0 0
SMALL
GASTEIGER

@<TRIPOS>ATOM
      1  OAA       38.9860    3.7530   94.8320 O.co2 500  AKD500     -0.2405
      2  OAB       38.9490    2.1830   93.3370 O.co2 500  AKD500     -0.2405
      3 BRAC       43.9450    5.9970   93.9400 Br    500  AKD500     -0.0490
      4  CAD       43.8240    3.2200   93.3410 C.ar  500  AKD500      0.0080
      5  CAE       43.1630    2.0130   93.2110 C.ar  500  AKD500      0.0168
      6  CAF       41.7270    4.2420   93.9670 C.ar  500  AKD500      0.0146
      7  CAG       39.4830   -1.3520   92.1670 C.3   500  AKD500      0.0206
      8  CAH       39.4770   -0.8550   90.7090 C.3   500  AKD500      0.0888
      9  CAI       40.8550   -1.5510   92.6620 C.3   500  AKD500      0.0245
     10  CAJ       41.7850    0.1140   91.0450 C.3   500  AKD500      0.1101
     11  NAK       40.3970    0.2650   90.5780 N.3   500  AKD500     -0.2162
     12  NAL       41.2230    0.7380   93.2920 N.pl3 500  AKD500     -0.2377
     13  CAM       39.5230    2.9870   94.0350 C.2   500  AKD500      0.3890
     14  CAN       43.0970    4.3160   93.7140 C.ar  500  AKD500      0.0349
     15  CAO       41.7930    1.9460   93.4070 C.ar  500  AKD500      0.0717
     16  CAP       41.0550    3.0490   93.7970 C.ar  500  AKD500      0.0950
     17  CAQ       41.7940   -0.3620   92.5130 C.3   500  AKD500      0.1098
@<TRIPOS>BOND
     1    11     8    1
     2    11    10    1
     3     8     7    1
     4    10    17    1
     5     7     9    1
     6    17     9    1
     7    17    12    1
     8     5     4   ar
     9     5    15   ar
    10    12    15    1
    11     2    13   ar
    12     4    14   ar
    13    15    16   ar
    14    14     3    1
    15    14     6   ar
    16    16     6   ar
    17    16    13    1
    18    13     1   ar
