@<TRIPOS>MOLECULE
3juq_AJD_A_1.pdb
 17 18 0 0 0
SMALL
GASTEIGER

@<TRIPOS>ATOM
      1  OAA       45.9040   -4.2940   93.0270 O.co2 500  AJD500     -0.2405
      2  OAB       43.9650   -4.1030   91.9600 O.co2 500  AJD500     -0.2405
      3 BRAC       47.9650    0.5310   93.7850 Br    500  AJD500     -0.0490
      4  CAD       45.0680    0.4840   93.5450 C.ar  500  AJD500      0.0080
      5  CAE       43.8470   -0.1200   93.3260 C.ar  500  AJD500      0.0168
      6  CAF       46.1610   -1.5770   93.1810 C.ar  500  AJD500      0.0146
      7  CAG       38.7380   -1.6830   92.0470 C.3   500  AJD500      0.0206
      8  CAH       38.8590   -0.7320   90.8700 C.3   500  AJD500      0.0888
      9  CAI       40.0970   -2.2580   92.4420 C.3   500  AJD500      0.0245
     10  CAJ       41.2900   -0.4540   91.2570 C.3   500  AJD500      0.1101
     11  NAK       39.9780    0.1590   91.1160 N.3   500  AJD500     -0.2162
     12  NAL       42.5360   -2.0140   92.7670 N.pl3 500  AJD500     -0.2377
     13  CAM       44.9330   -3.6270   92.6050 C.2   500  AJD500      0.3890
     14  CAN       46.2350   -0.2560   93.4970 C.ar  500  AJD500      0.0349
     15  CAO       43.7470   -1.4550   92.9830 C.ar  500  AJD500      0.0717
     16  CAP       44.9280   -2.1820   92.9270 C.ar  500  AJD500      0.0950
     17  CAQ       41.2850   -1.2470   92.5690 C.3   500  AJD500      0.1098
@<TRIPOS>BOND
     1     8    11    1
     2     8     7    1
     3    11    10    1
     4    10    17    1
     5     2    13   ar
     6     7     9    1
     7     9    17    1
     8    17    12    1
     9    13    16    1
    10    13     1   ar
    11    12    15    1
    12    16    15   ar
    13    16     6   ar
    14    15     5   ar
    15     6    14   ar
    16     5     4   ar
    17    14     4   ar
    18    14     3    1
