@<TRIPOS>MOLECULE
3juq_AKD_A_1.pdb
 17 18 0 0 0
SMALL
GASTEIGER

@<TRIPOS>ATOM
      1  OAA       38.6930    1.7810   93.1240 O.co2 600  AKD600     -0.2405
      2  OAB       38.2270    3.0530   94.7580 O.co2 600  AKD600     -0.2405
      3 BRAC       43.6050    3.2670   91.4310 Br    600  AKD600     -0.0490
      4  CAD       43.1920    3.4740   94.2540 C.ar  600  AKD600      0.0080
      5  CAE       42.4980    3.4270   95.4280 C.ar  600  AKD600      0.0168
      6  CAF       41.2540    2.9020   92.9630 C.ar  600  AKD600      0.0146
      7  CAG       40.0460    4.1330  100.1460 C.3   600  AKD600      0.0206
      8  CAH       40.3810    2.7460  100.7200 C.3   600  AKD600      0.0888
      9  CAI       39.7840    4.0900   98.6380 C.3   600  AKD600      0.0245
     10  CAJ       40.9650    2.0090   98.5500 C.3   600  AKD600      0.1101
     11  NAK       41.4760    2.1800   99.9090 N.3   600  AKD600     -0.2162
     12  NAL       40.4020    3.1140   96.5170 N.pl3 600  AKD600     -0.2377
     13  CAM       39.0110    2.5570   93.9900 C.2   600  AKD600      0.3890
     14  CAN       42.6150    3.2290   93.0420 C.ar  600  AKD600      0.0349
     15  CAO       41.1260    3.1260   95.3890 C.ar  600  AKD600      0.0717
     16  CAP       40.5270    2.8770   94.1490 C.ar  600  AKD600      0.0950
     17  CAQ       40.8690    3.3370   97.8600 C.3   600  AKD600      0.1098
@<TRIPOS>BOND
     1     3    14    1
     2     6    14   ar
     3     6    16   ar
     4    14     4   ar
     5     1    13   ar
     6    13    16    1
     7    13     2   ar
     8    16    15   ar
     9     4     5   ar
    10    15     5   ar
    11    15    12    1
    12    12    17    1
    13    17    10    1
    14    17     9    1
    15    10    11    1
    16     9     7    1
    17    11     8    1
    18     7     8    1
