@<TRIPOS>MOLECULE
3jus_ECL_A_1.pdb
 24 26 0 0 0
SMALL
GASTEIGER

@<TRIPOS>ATOM
      1  C1        41.7840    7.2860   50.0630 C.ar  600  ECL600      0.0073
      2  N1        40.7180    3.3880   51.7740 N.ar  600  ECL600     -0.3050
      3  C2        42.3300    8.4800   49.6040 C.ar  600  ECL600     -0.0010
      4 CL2        43.0980    7.6050   45.6860 Cl    600  ECL600     -0.0822
      5  C3        39.5850    3.9760   51.3630 C.ar  600  ECL600      0.1787
      6 CL4        45.6200    7.1620   57.0840 Cl    600  ECL600     -0.0822
      7  C5        44.7020    6.5330   54.5450 C.ar  600  ECL600      0.0112
      8  C6        40.0120    2.3640   49.9330 C.ar  600  ECL600      0.1193
      9  C7        40.9990    2.3930   50.9060 C.ar  600  ECL600      0.0981
     10  C8        41.3340    7.1020   51.4910 C.3   600  ECL600      0.1690
     11 CL8        40.5790    5.3720   56.1370 Cl    600  ECL600     -0.0825
     12  C9        42.0480    6.3140   47.8770 C.ar  600  ECL600      0.0111
     13  C10       41.6480    6.2060   49.2010 C.ar  600  ECL600     -0.0010
     14  C11       42.5890    7.5010   47.4100 C.ar  600  ECL600      0.0577
     15  C13       42.7300    8.5850   48.2720 C.ar  600  ECL600      0.0111
     16  C14       44.3950    6.6070   55.8980 C.ar  600  ECL600      0.0585
     17  C15       43.1350    6.2490   56.3490 C.ar  600  ECL600      0.0225
     18  C16       42.1750    5.8160   55.4540 C.ar  600  ECL600      0.0568
     19  C17       42.4710    5.7360   54.0970 C.ar  600  ECL600      0.0171
     20  C19       41.5080    3.7680   52.9660 C.3   600  ECL600      0.1416
     21  N19       39.1460    3.3480   50.2370 N.ar  600  ECL600     -0.2223
     22  C20       41.4820    5.2830   53.0930 C.3   600  ECL600      0.1612
     23  O20       41.8630    5.7740   51.8150 O.3   600  ECL600     -0.3451
     24  C21       43.7380    6.0970   53.6490 C.ar  600  ECL600     -0.0002
@<TRIPOS>BOND
     1     4    14    1
     2    14    12   ar
     3    14    15   ar
     4    12    13   ar
     5    15     3   ar
     6    13     1   ar
     7     3     1   ar
     8     8    21   ar
     9     8     9   ar
    10     1    10    1
    11    21     5   ar
    12     9     2   ar
    13     5     2   ar
    14    10    23    1
    15     2    20    1
    16    23    22    1
    17    20    22    1
    18    22    19    1
    19    24    19   ar
    20    24     7   ar
    21    19    18   ar
    22     7    16   ar
    23    18    11    1
    24    18    17   ar
    25    16    17   ar
    26    16     6    1
