@<TRIPOS>MOLECULE
3jus_HEM_A_1.pdb
 43 50 0 0 0
SMALL
GASTEIGER

@<TRIPOS>ATOM
      1  CHA       36.7030    6.3860   51.3570 C.2   601  HEM601      0.0000
      2  CHB       35.6840    1.7380   52.3840 C.2   601  HEM601      0.0000
      3  CHC       37.1130    0.5490   47.9100 C.2   601  HEM601      0.0000
      4  CHD       38.6060    5.0730   47.0810 C.2   601  HEM601      0.0000
      5  C1A       36.2950    5.2460   52.0230 C.2   601  HEM601      0.0000
      6  C2A       35.7680    5.2010   53.3810 C.2   601  HEM601      0.0000
      7  C3A       35.4770    3.9220   53.6720 C.2   601  HEM601      0.0000
      8  C4A       35.8090    3.1130   52.5070 C.2   601  HEM601      0.0000
      9  CMA       34.8950    3.4080   55.0010 C.3   601  HEM601      0.0000
     10  CAA       35.5610    6.4390   54.2960 C.3   601  HEM601      0.0000
     11  CBA       36.8130    6.7550   55.1190 C.3   601  HEM601      0.0000
     12  CGA       36.5140    7.8240   56.1540 C.2   601  HEM601      0.0000
     13  O1A       37.3960    8.0960   57.0110 O.co2 601  HEM601      0.0000
     14  O2A       35.3950    8.4060   56.1360 O.co2 601  HEM601      0.0000
     15  C1B       35.9290    1.0070   51.2340 C.ar  601  HEM601      0.0000
     16  C2B       35.5950   -0.3900   51.0050 C.ar  601  HEM601      0.0000
     17  C3B       35.9990   -0.7170   49.7560 C.ar  601  HEM601      0.0000
     18  C4B       36.5860    0.4720   49.1750 C.ar  601  HEM601      0.0000
     19  CMB       34.8900   -1.2930   52.0460 C.3   601  HEM601      0.0000
     20  CAB       35.8980   -2.0540   48.9580 C.2   601  HEM601      0.0000
     21  CBB       35.7160   -3.2680   49.4780 C.2   601  HEM601      0.0000
     22  C1C       37.6200    1.6640   47.2890 C.2   601  HEM601      0.0000
     23  C2C       38.0950    1.7190   45.9240 C.2   601  HEM601      0.0000
     24  C3C       38.5080    2.9780   45.7050 C.2   601  HEM601      0.0000
     25  C4C       38.3010    3.7430   46.9100 C.2   601  HEM601      0.0000
     26  CMC       38.0920    0.5240   44.9320 C.3   601  HEM601      0.0000
     27  CAC       39.0870    3.5520   44.4010 C.2   601  HEM601      0.0000
     28  CBC       38.3790    3.3810   43.2850 C.2   601  HEM601      0.0000
     29  C1D       38.2050    5.8820   48.1120 C.ar  601  HEM601      0.0000
     30  C2D       38.3250    7.3190   48.1610 C.ar  601  HEM601      0.0000
     31  C3D       37.7290    7.7150   49.5030 C.ar  601  HEM601      0.0000
     32  C4D       37.3060    6.4850   50.1230 C.ar  601  HEM601      0.0000
     33  CMD       38.8990    8.2900   47.1090 C.3   601  HEM601      0.0000
     34  CAD       37.5870    9.1530   50.0280 C.3   601  HEM601      0.0000
     35  CBD       38.6250    9.5480   51.0680 C.3   601  HEM601      0.0000
     36  CGD       38.1140   10.7880   51.7650 C.2   601  HEM601      0.0000
     37  O1D       37.2800   11.5370   51.1720 O.co2 601  HEM601      0.0000
     38  O2D       38.5530   11.0250   52.9240 O.co2 601  HEM601      0.0000
     39  NA        36.3040    3.9580   51.5200 N.2   601  HEM601      0.0000
     40  NB        36.5280    1.5000   50.0860 N.ar  601  HEM601      0.0000
     41  NC        37.7530    2.9130   47.8560 N.2   601  HEM601      0.0000
     42  ND        37.5960    5.4370   49.2660 N.ar  601  HEM601      0.0000
     43 FE         37.0590    3.4270   49.6600 Fe    601  HEM601      0.0000
@<TRIPOS>BOND
     1    28    27    2
     2    27    24    1
     3    26    23    1
     4    24    23    2
     5    24    25    1
     6    23    22    1
     7    25     4    1
     8    25    41    2
     9     4    29    2
    10    33    30    1
    11    22    41    1
    12    22     3    2
    13    41    43    1
    14     3    18    1
    15    29    30   ar
    16    29    42   ar
    17    30    31   ar
    18    20    21    2
    19    20    17    1
    20    18    17   ar
    21    18    40   ar
    22    42    43    1
    23    42    32   ar
    24    31    34    1
    25    31    32   ar
    26    43    40    1
    27    43    39    1
    28    17    16   ar
    29    34    35    1
    30    40    15   ar
    31    32     1    2
    32    16    15   ar
    33    16    19    1
    34    35    36    1
    35    37    36   ar
    36    15     2    1
    37     1     5    1
    38    39     5    2
    39    39     8    1
    40    36    38   ar
    41     5     6    1
    42     2     8    2
    43     8     7    1
    44     6     7    2
    45     6    10    1
    46     7     9    1
    47    10    11    1
    48    11    12    1
    49    14    12   ar
    50    12    13   ar
