@<TRIPOS>MOLECULE
3jus_ECN_A_1.pdb
 24 26 0 0 0
SMALL
GASTEIGER

@<TRIPOS>ATOM
      1  C1        41.3160    6.6840   50.1960 C.ar  602  ECN602      0.0073
      2  C2        41.8010    7.9870   50.1340 C.ar  602  ECN602     -0.0010
      3 CL4        40.8620    6.5660   55.0730 Cl    602  ECN602     -0.0825
      4  C6        40.1740    2.5230   50.0380 C.ar  602  ECN602      0.1193
      5  C7        41.1320    2.6040   51.0000 C.ar  602  ECN602      0.0981
      6  C9        41.8900    6.3310   47.8940 C.ar  602  ECN602      0.0111
      7  C10       41.3620    5.8570   49.0830 C.ar  602  ECN602     -0.0010
      8  C11       42.3730    7.6290   47.8250 C.ar  602  ECN602      0.0577
      9 CL2        43.0470    8.2080   46.2710 Cl    602  ECN602     -0.0822
     10  C14       42.6010    6.1960   55.0790 C.ar  602  ECN602      0.0568
     11  C15       43.3100    6.5760   56.1960 C.ar  602  ECN602      0.0225
     12  C16       44.6600    6.3120   56.2640 C.ar  602  ECN602      0.0585
     13  C17       45.2940    5.6640   55.2100 C.ar  602  ECN602      0.0112
     14 CL8        45.5550    6.8240   57.7330 Cl    602  ECN602     -0.0822
     15  N19       39.2390    3.4190   50.3620 N.ar  602  ECN602     -0.2223
     16  C19       41.4600    4.0250   53.1350 C.3   602  ECN602      0.1416
     17  C20       42.4280    5.1640   52.8260 C.3   602  ECN602      0.1612
     18  O20       41.7130    6.3510   52.4770 O.3   602  ECN602     -0.3451
     19  C5        43.2130    5.5410   54.0230 C.ar  602  ECN602      0.0171
     20  N1        40.7390    3.5980   51.9210 N.ar  602  ECN602     -0.3050
     21  C3        39.5740    4.0620   51.4790 C.ar  602  ECN602      0.1787
     22  C8        40.7400    6.1480   51.4740 C.3   602  ECN602      0.1690
     23  C13       42.3310    8.4630   48.9390 C.ar  602  ECN602      0.0111
     24  C21       44.5770    5.2810   54.0820 C.ar  602  ECN602     -0.0002
@<TRIPOS>BOND
     1     9     8    1
     2     8     6   ar
     3     8    23   ar
     4     6     7   ar
     5    23     2   ar
     6     7     1   ar
     7     4    15   ar
     8     4     5   ar
     9     2     1   ar
    10     1    22    1
    11    15    21   ar
    12     5    20   ar
    13    22    18    1
    14    21    20   ar
    15    20    16    1
    16    18    17    1
    17    17    16    1
    18    17    19    1
    19    19    24   ar
    20    19    10   ar
    21    24    13   ar
    22     3    10    1
    23    10    11   ar
    24    13    12   ar
    25    11    12   ar
    26    12    14    1
