@<TRIPOS>MOLECULE
3jut_GTQ_A_1.pdb
 11 11 0 0 0
SMALL
GASTEIGER

@<TRIPOS>ATOM
      1  OAA       56.2770  -31.6280   10.2920 O.co2 131  GTQ131     -0.2404
      2  OAB       55.7880  -31.0060    8.2280 O.co2 131  GTQ131     -0.2404
      3  OAC       55.0240  -25.9780   10.1330 O.3   131  GTQ131     -0.2866
      4  OAD       53.0110  -31.0550   10.7820 O.3   131  GTQ131     -0.2863
      5  CAE       53.3300  -27.4370   10.8580 C.ar  131  GTQ131      0.0453
      6  CAF       52.8510  -28.7260   11.0060 C.ar  131  GTQ131      0.0455
      7  CAG       55.3020  -28.3430    9.8310 C.ar  131  GTQ131      0.0518
      8  CAH       55.6950  -30.8640    9.4740 C.2   131  GTQ131      0.3910
      9  CAI       54.5640  -27.2420   10.2760 C.ar  131  GTQ131      0.1962
     10  CAJ       53.5700  -29.8360   10.5840 C.ar  131  GTQ131      0.2022
     11  CAK       54.8220  -29.6590    9.9850 C.ar  131  GTQ131      0.1217
@<TRIPOS>BOND
     1     2     8   ar
     2     8    11    1
     3     8     1   ar
     4     7    11   ar
     5     7     9   ar
     6    11    10   ar
     7     3     9    1
     8     9     5   ar
     9    10     4    1
    10    10     6   ar
    11     5     6   ar
