@<TRIPOS>MOLECULE
3juv_HEM_A_1.pdb
 43 50 0 0 0
SMALL
GASTEIGER

@<TRIPOS>ATOM
      1  CHA      -75.6640   26.1600   -6.6920 C.2   601  HEM601      0.0000
      2  CHB      -79.7340   23.9590   -7.9240 C.2   601  HEM601      0.0000
      3  CHC      -80.7480   23.4150   -3.1980 C.2   601  HEM601      0.0000
      4  CHD      -76.5650   25.4810   -1.9560 C.2   601  HEM601      0.0000
      5  C1A      -76.6470   25.5930   -7.4480 C.ar  601  HEM601      0.0000
      6  C2A      -76.6550   25.5020   -8.8840 C.ar  601  HEM601      0.0000
      7  C3A      -77.7880   24.8940   -9.2560 C.ar  601  HEM601      0.0000
      8  C4A      -78.5210   24.5870   -8.0350 C.ar  601  HEM601      0.0000
      9  CMA      -78.2310   24.5730  -10.7090 C.3   601  HEM601      0.0000
     10  CAA      -75.5370   26.0480   -9.7850 C.3   601  HEM601      0.0000
     11  CBA      -74.4230   25.0400   -9.9790 C.3   601  HEM601      0.0000
     12  CGA      -73.2370   25.7620  -10.5600 C.2   601  HEM601      0.0000
     13  O1A      -73.4030   26.4660  -11.6000 O.co2 601  HEM601      0.0000
     14  O2A      -72.1230   25.6350   -9.9720 O.co2 601  HEM601      0.0000
     15  C1B      -80.3490   23.6040   -6.7430 C.2   601  HEM601      0.0000
     16  C2B      -81.5780   22.8460   -6.6400 C.2   601  HEM601      0.0000
     17  C3B      -81.8680   22.6960   -5.3490 C.2   601  HEM601      0.0000
     18  C4B      -80.8310   23.3520   -4.5700 C.2   601  HEM601      0.0000
     19  CMB      -82.4090   22.3030   -7.8250 C.3   601  HEM601      0.0000
     20  CAB      -83.0970   21.9280   -4.8220 C.2   601  HEM601      0.0000
     21  CBB      -83.9750   22.5300   -4.0250 C.2   601  HEM601      0.0000
     22  C1C      -79.6890   23.8860   -2.4400 C.ar  601  HEM601      0.0000
     23  C2C      -79.5460   23.8280   -0.9870 C.ar  601  HEM601      0.0000
     24  C3C      -78.3840   24.4050   -0.6580 C.ar  601  HEM601      0.0000
     25  C4C      -77.7680   24.8420   -1.8790 C.ar  601  HEM601      0.0000
     26  CMC      -80.5650   23.2110   -0.0040 C.3   601  HEM601      0.0000
     27  CAC      -77.7520   24.6320    0.7370 C.2   601  HEM601      0.0000
     28  CBC      -77.4500   23.6280    1.5640 C.2   601  HEM601      0.0000
     29  C1D      -75.9980   25.9520   -3.1100 C.2   601  HEM601      0.0000
     30  C2D      -74.8890   26.8730   -3.1520 C.2   601  HEM601      0.0000
     31  C3D      -74.6260   27.0570   -4.6310 C.2   601  HEM601      0.0000
     32  C4D      -75.5930   26.2510   -5.3240 C.2   601  HEM601      0.0000
     33  CMD      -74.1150   27.5310   -1.9810 C.3   601  HEM601      0.0000
     34  CAD      -73.5670   27.9680   -5.2490 C.3   601  HEM601      0.0000
     35  CBD      -74.3130   29.2880   -5.4030 C.3   601  HEM601      0.0000
     36  CGD      -73.7820   30.0710   -6.5680 C.2   601  HEM601      0.0000
     37  O1D      -72.7350   29.6710   -7.1740 O.co2 601  HEM601      0.0000
     38  O2D      -74.4250   31.1160   -6.8690 O.co2 601  HEM601      0.0000
     39  NA       -77.7870   25.0240   -6.9540 N.ar  601  HEM601      0.0000
     40  NB       -79.9230   23.8940   -5.4550 N.2   601  HEM601      0.0000
     41  NC       -78.5700   24.5080   -2.9470 N.ar  601  HEM601      0.0000
     42  ND       -76.3830   25.6070   -4.3990 N.2   601  HEM601      0.0000
     43 FE        -78.1540   24.7750   -4.9120 Fe    601  HEM601      0.0000
@<TRIPOS>BOND
     1    13    12   ar
     2     9     7    1
     3    12    11    1
     4    12    14   ar
     5    11    10    1
     6    10     6    1
     7     7     6   ar
     8     7     8   ar
     9     6     5   ar
    10     8     2    2
    11     8    39   ar
    12     2    15    1
    13    19    16    1
    14     5    39   ar
    15     5     1    2
    16    37    36   ar
    17    39    43    1
    18    38    36   ar
    19    15    16    1
    20    15    40    2
    21     1    32    1
    22    16    17    2
    23    36    35    1
    24    40    43    1
    25    40    18    1
    26    35    34    1
    27    17    20    1
    28    17    18    1
    29    32    31    1
    30    32    42    2
    31    34    31    1
    32    43    42    1
    33    43    41    1
    34    20    21    2
    35    31    30    2
    36    18     3    2
    37    42    29    1
    38     3    22    1
    39    30    29    1
    40    30    33    1
    41    29     4    2
    42    41    22   ar
    43    41    25   ar
    44    22    23   ar
    45     4    25    1
    46    25    24   ar
    47    23    24   ar
    48    23    26    1
    49    24    27    1
    50    27    28    2
