@<TRIPOS>MOLECULE
3jux_ADP_A_1.pdb
 27 29 0 0 0
SMALL
GASTEIGER

@<TRIPOS>ATOM
      1  PB        19.3050   -1.8640   -3.0340 P.3   873  ADP873      0.5373
      2  O1B       20.1820   -1.2200   -1.9990 O.3   873  ADP873     -0.1143
      3  O2B       19.4160   -1.2540   -4.4040 O.2   873  ADP873     -0.2221
      4  O3B       17.8950   -2.1000   -2.5470 O.3   873  ADP873     -0.1143
      5  PA        20.6680   -4.1670   -1.9680 P.3   873  ADP873      0.2231
      6  O1A       21.9590   -3.5400   -1.5000 O.2   873  ADP873     -0.5169
      7  O2A       19.6460   -4.5480   -0.9180 O.3   873  ADP873     -0.4370
      8  O3A       19.9980   -3.3180   -3.1800 O.3   873  ADP873     -0.2261
      9  O5'       21.0310   -5.5040   -2.7680 O.3   873  ADP873     -0.3111
     10  C5'       21.5510   -6.5400   -1.9570 C.3   873  ADP873      0.1813
     11  C4'       21.7540   -7.8340   -2.7050 C.3   873  ADP873      0.1821
     12  O4'       22.6920   -7.5990   -3.7410 O.3   873  ADP873     -0.3135
     13  C3'       22.3570   -8.8110   -1.7110 C.3   873  ADP873      0.2184
     14  O3'       21.6620  -10.0700   -1.7620 O.3   873  ADP873     -0.2174
     15  C2'       23.8190   -8.9350   -2.1010 C.3   873  ADP873      0.2570
     16  O2'       24.2160  -10.3280   -2.1350 O.3   873  ADP873     -0.2130
     17  C1'       23.9160   -8.2830   -3.4800 C.3   873  ADP873      0.3186
     18  N9        25.0400   -7.3190   -3.5420 N.pl3 873  ADP873     -0.1439
     19  C8        24.9480   -5.9940   -3.3220 C.3   873  ADP873      0.3377
     20  N7        26.1570   -5.3740   -3.4550 N.2   873  ADP873     -0.2095
     21  C5        27.0560   -6.3230   -3.7730 C.2   873  ADP873      0.2526
     22  C6        28.5120   -6.3580   -4.0650 C.2   873  ADP873      0.4393
     23  N6        29.2490   -5.2300   -4.0450 N.pl3 873  ADP873      0.2180
     24  N1        29.0750   -7.5580   -4.3690 N.2   873  ADP873      0.0021
     25  C2        28.3370   -8.6940   -4.4050 C.3   873  ADP873      0.5254
     26  N3        27.0080   -8.7400   -4.1510 N.2   873  ADP873     -0.0055
     27  C4        26.3180   -7.6070   -3.8370 C.2   873  ADP873      0.3518
@<TRIPOS>BOND
     1    25    24    1
     2    25    26    1
     3     3     1    2
     4    24    22    2
     5    26    27    2
     6    22    23    1
     7    22    21    1
     8    27    21    1
     9    27    18    1
    10    21    20    2
    11    12    17    1
    12    12    11    1
    13    18    17    1
    14    18    19    1
    15    17    15    1
    16    20    19    1
    17     8     1    1
    18     8     5    1
    19     1     4    1
    20     1     2    1
    21     9     5    1
    22     9    10    1
    23    11    10    1
    24    11    13    1
    25    16    15    1
    26    15    13    1
    27     5     6    2
    28     5     7    1
    29    14    13    1
