@<TRIPOS>MOLECULE
3jv2_III_C_1.pdb
 15 14 0 0 0
SMALL
GASTEIGER

@<TRIPOS>ATOM
      1  N         19.2290    8.8460  -21.7160 N.3     1  UNK1       -0.1231
      2  CA        19.6940    8.7520  -20.3450 C.3     1  UNK1        0.1694
      3  C         21.1970    8.7910  -20.2340 C.2     1  UNK1        0.2592
      4  O         21.9060    8.8410  -21.2130 O.2     1  UNK1       -0.2718
      5  CB        19.1480    7.5250  -19.6700 C.3     1  UNK1        0.0304
      6  N         21.6550    8.7730  -18.9950 N.am    2  UNK2       -0.1966
      7  CA        23.0590    8.7300  -18.6460 C.3     2  UNK2        0.1728
      8  C         23.1930    7.4580  -17.8110 C.2     2  UNK2        0.2616
      9  O         22.3440    7.1550  -16.9790 O.2     2  UNK2       -0.2715
     10  CB        23.4490    9.9380  -17.8390 C.3     2  UNK2        0.0334
     11  N         24.2350    6.6880  -18.0570 N.am    3  UNK3       -0.1977
     12  CA        24.5000    5.5210  -17.2480 C.3     3  UNK3        0.1597
     13  C         26.0190    5.4160  -17.1530 C.2     3  UNK3        0.2287
     14  O         26.7280    6.4250  -17.0420 O.2     3  UNK3       -0.2864
     15  CB        23.8760    4.2640  -17.8120 C.3     3  UNK3        0.0319
@<TRIPOS>BOND
     1     1     2    1
     2     4     3    2
     3     2     3    1
     4     2     5    1
     5     3     6   am
     6     6     7    1
     7     7    10    1
     8     7     8    1
     9    11     8   am
    10    11    12    1
    11    15    12    1
    12     8     9    2
    13    12    13    1
    14    13    14    2
