@<TRIPOS>MOLECULE
3jv2_ADP_A_1.pdb
 27 29 0 0 0
SMALL
GASTEIGER

@<TRIPOS>ATOM
      1  PB        -3.1340   -2.2610  -28.2920 P.3   873  ADP873      0.5373
      2  O1B       -1.7620   -2.3460  -27.6620 O.3   873  ADP873     -0.1143
      3  O2B       -3.1940   -2.7100  -29.7340 O.2   873  ADP873     -0.2221
      4  O3B       -3.8360   -0.9560  -28.0090 O.3   873  ADP873     -0.1143
      5  PA        -3.4320   -4.5020  -26.5660 P.3   873  ADP873      0.2231
      6  O1A       -2.5480   -5.4540  -27.3390 O.2   873  ADP873     -0.5169
      7  O2A       -2.8870   -3.8130  -25.3380 O.3   873  ADP873     -0.4370
      8  O3A       -4.0360   -3.3810  -27.5610 O.3   873  ADP873     -0.2261
      9  O5'       -4.7510   -5.3110  -26.1450 O.3   873  ADP873     -0.3111
     10  C5'       -6.0760   -4.8100  -26.3370 C.3   873  ADP873      0.1813
     11  C4'       -7.0040   -5.7180  -25.5400 C.3   873  ADP873      0.1821
     12  O4'       -7.6750   -6.6370  -26.4100 O.3   873  ADP873     -0.3135
     13  C3'       -6.1960   -6.5670  -24.5710 C.3   873  ADP873      0.2184
     14  O3'       -6.9450   -6.7470  -23.3640 O.3   873  ADP873     -0.2174
     15  C2'       -6.0370   -7.8940  -25.2810 C.3   873  ADP873      0.2570
     16  O2'       -5.9140   -8.9530  -24.3360 O.3   873  ADP873     -0.2130
     17  C1'       -7.3180   -7.9870  -26.0900 C.3   873  ADP873      0.3186
     18  N9        -7.1510   -8.7520  -27.3450 N.pl3 873  ADP873     -0.1439
     19  C8        -6.1530   -8.6310  -28.2410 C.3   873  ADP873      0.3377
     20  N7        -6.3280   -9.4890  -29.2820 N.2   873  ADP873     -0.2095
     21  C5        -7.4680  -10.1710  -29.0570 C.2   873  ADP873      0.2526
     22  C6        -8.2420  -11.2250  -29.7500 C.2   873  ADP873      0.4393
     23  N6        -7.8290  -11.7400  -30.9300 N.pl3 873  ADP873      0.2180
     24  N1        -9.3800  -11.6540  -29.1640 N.2   873  ADP873      0.0021
     25  C2        -9.8150  -11.1560  -27.9910 C.3   873  ADP873      0.5254
     26  N3        -9.1650  -10.1990  -27.3060 N.2   873  ADP873     -0.0055
     27  C4        -8.0080   -9.6770  -27.7810 C.2   873  ADP873      0.3518
@<TRIPOS>BOND
     1    23    22    1
     2    22    24    2
     3    22    21    1
     4     3     1    2
     5    20    21    2
     6    20    19    1
     7    24    25    1
     8    21    27    1
     9     1     4    1
    10     1     2    1
    11     1     8    1
    12    19    18    1
    13    25    26    1
    14    27    18    1
    15    27    26    2
    16     8     5    1
    17    18    17    1
    18     6     5    2
    19     5     9    1
    20     5     7    1
    21    12    17    1
    22    12    11    1
    23    10     9    1
    24    10    11    1
    25    17    15    1
    26    11    13    1
    27    15    13    1
    28    15    16    1
    29    13    14    1
