@<TRIPOS>MOLECULE
3jv7_NAD_A_1.pdb
 44 48 0 0 0
SMALL
GASTEIGER

@<TRIPOS>ATOM
      1  PA        68.2490   17.5670   80.3530 P.3   503  NAD503      0.2189
      2  O1A       68.5890   18.9960   80.1510 O.2   503  NAD503     -0.5170
      3  O2A       68.8770   16.8880   81.4960 O.3   503  NAD503     -0.4371
      4  O5B       68.6760   16.7370   79.0570 O.3   503  NAD503     -0.3112
      5  C5B       68.4010   17.1780   77.7470 C.3   503  NAD503      0.1813
      6  C4B       69.0630   16.1910   76.7860 C.3   503  NAD503      0.1821
      7  O4B       68.3440   16.2530   75.5830 O.3   503  NAD503     -0.3135
      8  C3B       70.5090   16.5620   76.4570 C.3   503  NAD503      0.2184
      9  O3B       71.2960   15.3890   76.3700 O.3   503  NAD503     -0.2174
     10  C2B       70.3980   17.1740   75.0730 C.3   503  NAD503      0.2570
     11  O2B       71.5230   16.9260   74.2820 O.3   503  NAD503     -0.2130
     12  C1B       69.2270   16.4020   74.5060 C.3   503  NAD503      0.3186
     13  N9A       68.5690   17.0700   73.3770 N.pl3 503  NAD503     -0.1439
     14  C8A       68.1500   18.3790   73.3190 C.3   503  NAD503      0.3377
     15  N7A       67.5990   18.5760   72.1070 N.2   503  NAD503     -0.2095
     16  C5A       67.6480   17.4230   71.4050 C.2   503  NAD503      0.2526
     17  C6A       67.2170   17.0980   70.1340 C.2   503  NAD503      0.4393
     18  N6A       66.7710   18.0590   69.3330 N.pl3 503  NAD503      0.2180
     19  N1A       67.3890   15.8130   69.6690 N.2   503  NAD503      0.0021
     20  C2A       67.9980   14.8710   70.4700 C.3   503  NAD503      0.5254
     21  N3A       68.4340   15.2030   71.7330 N.2   503  NAD503     -0.0055
     22  C4A       68.2600   16.4660   72.1890 C.2   503  NAD503      0.3518
     23  O3        66.6330   17.4880   80.4290 O.3   503  NAD503     -0.2703
     24  PN        65.8050   16.5840   81.4730 P.3   503  NAD503      0.2189
     25  O1N       65.9210   17.1810   82.8240 O.3   503  NAD503     -0.4371
     26  O2N       66.1470   15.1600   81.2640 O.2   503  NAD503     -0.5170
     27  O5D       64.3390   16.8630   80.8940 O.3   503  NAD503     -0.3112
     28  C5D       64.0350   16.4980   79.5580 C.3   503  NAD503      0.1813
     29  C4D       62.6380   16.9980   79.2050 C.3   503  NAD503      0.1799
     30  O4D       61.6810   16.2680   79.9470 O.3   503  NAD503     -0.3327
     31  C3D       62.4120   18.4670   79.5480 C.3   503  NAD503      0.2158
     32  O3D       61.6680   19.0650   78.4980 O.3   503  NAD503     -0.2175
     33  C2D       61.5380   18.4170   80.7800 C.3   503  NAD503      0.2309
     34  O2D       60.6920   19.5330   80.8280 O.3   503  NAD503     -0.2158
     35  C1D       60.7250   17.1740   80.4710 C.3   503  NAD503      0.2263
     36  N1N       60.0760   16.5300   81.6220 N.pl3 503  NAD503     -0.2787
     37  C2N       58.7720   16.1410   81.4940 C.3   503  NAD503      0.1244
     38  C3N       58.1450   15.4910   82.5410 C.2   503  NAD503      0.0544
     39  C7N       56.7240   15.0210   82.3910 C.2   503  NAD503      0.2818
     40  O7N       56.0360   14.5700   83.5240 O.2   503  NAD503     -0.2670
     41  N7N       56.1550   15.0100   81.1940 N.am  503  NAD503     -0.0839
     42  C4N       58.8500   15.2300   83.7230 C.2   503  NAD503      0.0033
     43  C5N       60.1800   15.6230   83.8410 C.2   503  NAD503      0.0157
     44  C6N       60.7900   16.2670   82.7660 C.2   503  NAD503      0.0633
@<TRIPOS>BOND
     1    18    17    1
     2    19    17    2
     3    19    20    1
     4    17    16    1
     5    20    21    1
     6    16    15    2
     7    16    22    1
     8    21    22    2
     9    15    14    1
    10    22    13    1
    11    14    13    1
    12    13    12    1
    13    11    10    1
    14    12    10    1
    15    12     7    1
    16    10     8    1
    17     7     6    1
    18     9     8    1
    19     8     6    1
    20     6     5    1
    21     5     4    1
    22    32    31    1
    23     4     1    1
    24    29    31    1
    25    29    28    1
    26    29    30    1
    27    31    33    1
    28    28    27    1
    29    30    35    1
    30     2     1    2
    31     1    23    1
    32     1     3    1
    33    23    24    1
    34    35    33    1
    35    35    36    1
    36    33    34    1
    37    27    24    1
    38    41    39   am
    39    26    24    2
    40    24    25    1
    41    37    36    1
    42    37    38    1
    43    36    44    1
    44    39    38    1
    45    39    40    2
    46    38    42    2
    47    44    43    2
    48    42    43    1
