@<TRIPOS>MOLECULE
3jvg_UNL_A_1.pdb
 45 44 0 0 0
SMALL
GASTEIGER

@<TRIPOS>ATOM
      1  C6       -24.2080   52.9800   75.8280 C.3     1  UNL1        0.0000
      2  C7       -23.4950   52.9880   74.4680 C.3     1  UNL1        0.0000
      3  C8       -24.5320   53.1170   73.3380 C.3     1  UNL1        0.0000
      4  C9       -24.1460   54.2160   72.3300 C.3     1  UNL1        0.0000
      5  C10      -24.1150   55.5890   73.0200 C.3     1  UNL1        0.0000
      6  C11      -23.8450   56.7220   72.0620 C.3     1  UNL1        0.0000
      7  C12      -23.2870   57.8630   72.8640 C.3     1  UNL1        0.0000
      8  C13      -22.7680   59.0220   72.0410 C.3     1  UNL1        0.0000
      9  C14      -21.2550   58.9320   71.9970 C.3     1  UNL1        0.0000
     10  C15      -20.5550   59.7240   73.1180 C.3     1  UNL1        0.0000
     11  C16      -19.3300   60.3860   72.4820 C.3     1  UNL1        0.0000
     12  C17      -18.3750   60.9280   73.5430 C.3     1  UNL1        0.0000
     13  C18      -16.9490   60.3390   73.4310 C.3     1  UNL1        0.0000
     14  C19      -16.1060   61.0170   72.3610 C.3     1  UNL1        0.0000
     15  C20      -14.8010   60.2300   72.3420 C.3     1  UNL1        0.0000
     16  C21      -13.7470   60.8520   71.4560 C.3     1  UNL1        0.0000
     17  C22      -12.5410   59.8950   71.3720 C.3     1  UNL1        0.0000
     18  C23      -11.6320   60.0650   70.1390 C.3     1  UNL1        0.0000
     19  C24      -10.8560   58.7560   69.8230 C.3     1  UNL1        0.0000
     20  C25      -11.5890   57.9460   68.7180 C.3     1  UNL1        0.0000
     21  C26      -11.3660   56.4120   68.7640 C.3     1  UNL1        0.0000
     22  C27      -12.0720   55.6960   67.6060 C.3     1  UNL1        0.0000
     23  C28      -13.4970   55.3450   67.9980 C.3     1  UNL1        0.0000
     24  C29      -14.1010   54.2780   67.1010 C.3     1  UNL1        0.0000
     25  C30      -15.1190   53.3950   67.8180 C.3     1  UNL1        0.0000
     26  C31      -16.5640   53.7180   67.4690 C.3     1  UNL1        0.0000
     27  C32      -17.5110   52.9390   68.3490 C.3     1  UNL1        0.0000
     28  C33      -18.7240   53.8400   68.6990 C.3     1  UNL1        0.0000
     29  C34      -18.9810   53.7300   70.2100 C.3     1  UNL1        0.0000
     30  C35      -19.9720   54.7390   70.7910 C.3     1  UNL1        0.0000
     31  C36      -19.8510   54.7650   72.3330 C.3     1  UNL1        0.0000
     32  C37      -19.0970   55.9680   72.9270 C.3     1  UNL1        0.0000
     33  C38      -19.1700   55.8290   74.4320 C.3     1  UNL1        0.0000
     34  C39      -19.5230   57.1120   75.2020 C.3     1  UNL1        0.0000
     35  C40      -18.5460   57.2690   76.3400 C.3     1  UNL1        0.0000
     36  C41      -18.8950   58.4900   77.1790 C.3     1  UNL1        0.0000
     37  C42      -18.3240   58.4060   78.5880 C.3     1  UNL1        0.0000
     38  C43      -18.1010   59.8510   79.0510 C.3     1  UNL1        0.0000
     39  C44      -17.1080   60.0740   80.2060 C.3     1  UNL1        0.0000
     40  C45      -16.4060   61.4360   79.9760 C.3     1  UNL1        0.0000
     41  C46      -17.4090   62.6320   79.9740 C.3     1  UNL1        0.0000
     42  C47      -16.6890   63.9680   80.0100 C.3     1  UNL1        0.0000
     43  C48      -17.6230   65.1720   79.9150 C.3     1  UNL1        0.0000
     44  C49      -16.7820   66.4680   79.8160 C.3     1  UNL1        0.0000
     45  C50      -17.3730   67.6220   80.6350 C.3     1  UNL1        0.0000
@<TRIPOS>BOND
     1    24    25    1
     2    24    23    1
     3    26    25    1
     4    26    27    1
     5    22    23    1
     6    22    21    1
     7    27    28    1
     8    28    29    1
     9    20    21    1
    10    20    19    1
    11    19    18    1
    12    18    17    1
    13    29    30    1
    14    30    31    1
    15    17    16    1
    16    16    15    1
    17     9     8    1
    18     9    10    1
    19     8     7    1
    20     6     7    1
    21     6     5    1
    22     4     5    1
    23     4     3    1
    24    31    32    1
    25    15    14    1
    26    14    13    1
    27    11    10    1
    28    11    12    1
    29    32    33    1
    30     3     2    1
    31    13    12    1
    32    33    34    1
    33     2     1    1
    34    34    35    1
    35    35    36    1
    36    36    37    1
    37    37    38    1
    38    38    39    1
    39    44    43    1
    40    44    45    1
    41    43    42    1
    42    41    40    1
    43    41    42    1
    44    40    39    1
