@<TRIPOS>MOLECULE
3jvh_HHV_A_1.pdb
 16 17 0 0 0
SMALL
GASTEIGER

@<TRIPOS>ATOM
      1  C01        8.8370  -29.9230  -20.7440 C.3   164  HHV164      0.2357
      2  C02        8.4810  -29.5210  -19.4700 C.2   164  HHV164      0.3785
      3  N03        8.8900  -30.3930  -18.5300 N.2   164  HHV164      0.0797
      4  N04        9.5430  -31.4120  -19.2680 N.2   164  HHV164     -0.0364
      5  C05        9.5090  -31.1290  -20.5980 C.2   164  HHV164      0.1440
      6  N06        7.7820  -28.3870  -19.2050 N.pl3 164  HHV164     -0.0274
      7  C07        7.0280  -28.2080  -17.9760 C.3   164  HHV164      0.2790
      8  C08        7.9800  -27.6730  -16.9270 C.ar  164  HHV164      0.0477
      9  C09        8.2410  -28.4130  -15.7740 C.ar  164  HHV164      0.0987
     10  N10        9.0900  -27.9570  -14.8530 N.ar  164  HHV164     -0.2425
     11  C11        9.7080  -26.7680  -15.0160 C.ar  164  HHV164      0.0989
     12  C12        9.4940  -25.9810  -16.1500 C.ar  164  HHV164      0.0205
     13  C13        8.6170  -26.4470  -17.1230 C.ar  164  HHV164      0.0030
     14  C14        8.5210  -29.1240  -21.9610 C.2   164  HHV164      0.2782
     15  O15        8.0040  -28.0260  -21.8170 O.2   164  HHV164     -0.2706
     16  N16        8.8120  -29.6250  -23.1600 N.am  164  HHV164     -0.0869
@<TRIPOS>BOND
     1    16    14   am
     2    14    15    2
     3    14     1    1
     4     1     5    1
     5     1     2    1
     6     5     4    2
     7     2     6    1
     8     2     3    2
     9     4     3    1
    10     6     7    1
    11     7     8    1
    12    13     8   ar
    13    13    12   ar
    14     8     9   ar
    15    12    11   ar
    16     9    10   ar
    17    11    10   ar
