@<TRIPOS>MOLECULE
3jvk_III_C_1.pdb
 25 24 0 0 0
SMALL
GASTEIGER

@<TRIPOS>ATOM
      1  N         10.2550  -12.2020  -11.9700 N.3     1  GLY1       -0.1209
      2  CA        11.2130  -11.0930  -11.7670 C.3     1  GLY1        0.1959
      3  C         12.0010  -11.5490  -10.5610 C.2     1  GLY1        0.2652
      4  O         12.1440  -12.7630  -10.3530 O.2     1  GLY1       -0.2714
      5  N         12.5010  -10.6080   -9.7530 N.am    2  GLY2       -0.1718
      6  CA        13.1760  -10.9650   -8.5050 C.2     2  GLY2        0.1480
      7  C         14.0390   -9.9030   -7.8430 C.2     2  GLY2        0.2820
      8  O         14.9050   -9.3060   -8.4980 O.2     2  GLY2       -0.2669
      9  OH        14.6650   -4.4940    0.2770 O.2     3  LYS3       -0.2733
     10  CH        13.4390   -5.1340    0.4100 C.2     3  LYS3        0.2419
     11  CH3       12.4130   -4.1890    0.9300 C.3     3  LYS3        0.0964
     12  NZ        13.3230   -6.5030    0.0320 N.am    3  LYS3       -0.2054
     13  CE        13.2510   -6.5630   -1.4350 C.3     3  LYS3        0.1151
     14  CD        13.7640   -7.8360   -2.0470 C.3     3  LYS3        0.0235
     15  CG        14.0270   -7.7260   -3.5450 C.3     3  LYS3        0.0041
     16  CB        13.8900   -9.1090   -4.1660 C.3     3  LYS3        0.0312
     17  CA        14.6760   -9.3860   -5.4410 C.3     3  LYS3        0.1731
     18  N         13.7050   -9.6250   -6.5710 N.am    3  LYS3       -0.1929
     19  C         15.5160  -10.6040   -5.0890 C.2     3  LYS3        0.2616
     20  O         14.9830  -11.7160   -4.9020 O.2     3  LYS3       -0.2715
     21  N         16.8240  -10.4430   -4.9570 N.am    4  ALA4       -0.1977
     22  CA        17.7120  -11.5990   -5.1760 C.3     4  ALA4        0.1597
     23  C         17.5920  -12.6870   -4.1300 C.2     4  ALA4        0.2287
     24  O         17.4950  -13.8750   -4.4970 O.2     4  ALA4       -0.2864
     25  CB        19.1850  -11.1630   -5.3550 C.3     4  ALA4        0.0319
@<TRIPOS>BOND
     1     1     2    1
     2     2     3    1
     3     3     4    2
     4     3     5    1
     5     5     6    2
     6     6     7    1
     7     8     7    2
     8     7    18   am
     9    18    17    1
    10    17    19    1
    11    17    16    1
    12    25    22    1
    13    22    21    1
    14    22    23    1
    15    19    21   am
    16    19    20    2
    17    24    23    2
    18    16    15    1
    19    15    14    1
    20    14    13    1
    21    13    12    1
    22    12    10   am
    23     9    10    2
    24    10    11    1
