@<TRIPOS>MOLECULE
3jvr_AGX_A_1.pdb
 23 25 0 0 0
SMALL
GASTEIGER

@<TRIPOS>ATOM
      1  C         33.5020   -0.4570   17.2450 C.ar  901  AGX901      0.0357
      2  N         31.6960   -2.2630   17.2440 N.2   901  AGX901     -0.3380
      3  O         29.6340   -4.3190   18.3490 O.3   901  AGX901     -0.4195
      4 CL         25.4300   -3.1040   24.0080 Cl    901  AGX901     -0.0813
      5  C1        34.9240   -0.2480   17.3680 C.ar  901  AGX901      0.0028
      6  N1        33.0950   -4.0190   17.5650 N.2   901  AGX901     -0.3380
      7  O1        30.8780   -5.0370   20.0350 O.2   901  AGX901     -0.2241
      8 CL1        27.8890   -3.3520   26.1570 Cl    901  AGX901     -0.0814
      9  C2        35.8100   -1.3650   17.5700 C.ar  901  AGX901      0.0028
     10  N2        28.6940   -4.2190   20.2800 N.am  901  AGX901     -0.1424
     11  C3        35.2680   -2.6930   17.6520 C.ar  901  AGX901      0.0357
     12  C4        32.9910   -1.7930   17.3300 C.ar  901  AGX901      0.1739
     13  C5        33.8510   -2.8760   17.5260 C.ar  901  AGX901      0.1739
     14  C6        31.8170   -3.6120   17.3910 C.1   901  AGX901      0.1545
     15  C7        30.6800   -4.6180   17.3710 C.3   901  AGX901      0.2769
     16  C8        29.8180   -4.5620   19.6690 C.2   901  AGX901      0.4264
     17  C9        28.6060   -4.0250   21.6600 C.ar  901  AGX901      0.0776
     18  C10       29.6810   -4.1380   22.6140 C.ar  901  AGX901      0.0176
     19  C11       29.4400   -3.9230   23.9980 C.ar  901  AGX901      0.0136
     20  C12       28.1270   -3.5960   24.4610 C.ar  901  AGX901      0.0683
     21  C13       27.0460   -3.4840   23.5100 C.ar  901  AGX901      0.0695
     22  C14       27.3000   -3.6970   22.1180 C.ar  901  AGX901      0.0289
     23  C15       29.7870   -4.6020   16.2040 C.3   901  AGX901      0.0666
@<TRIPOS>BOND
     1    23    15    1
     2     2    12    2
     3     2    14    2
     4     1    12   ar
     5     1     5   ar
     6    12    13   ar
     7     5     9   ar
     8    15    14    1
     9    15     3    1
    10    14     6    2
    11    13     6    2
    12    13    11   ar
    13     9    11   ar
    14     3    16    1
    15    16     7    2
    16    16    10   am
    17    10    17    1
    18    17    22   ar
    19    17    18   ar
    20    22    21   ar
    21    18    19   ar
    22    21     4    1
    23    21    20   ar
    24    19    20   ar
    25    20     8    1
