@<TRIPOS>MOLECULE
3jvs_AGY_A_1.pdb
 30 32 0 0 0
SMALL
GASTEIGER

@<TRIPOS>ATOM
      1  C1        33.9930   -2.1240   17.6380 C.ar  900  AGY900      0.0154
      2  N1        31.4940   -2.4220   17.7810 N.am  900  AGY900     -0.1596
      3  O1        31.3890   -3.6210   15.8520 O.2   900  AGY900     -0.2471
      4  C2        32.6240   -1.6310   17.5880 C.ar  900  AGY900      0.0750
      5  N2        29.7930   -4.0180   17.3470 N.am  900  AGY900     -0.0687
      6  O2        30.4340   -5.4590   19.4010 O.2   900  AGY900     -0.2667
      7  C3        35.1360   -1.1870   17.4150 C.ar  900  AGY900      0.0013
      8  N3        29.1370   -3.8040   18.6060 N.am  900  AGY900     -0.0826
      9  O3        24.8190   -4.7610   22.6990 O.2   900  AGY900     -0.1261
     10  C4        34.2740   -3.5170   17.9020 C.ar  900  AGY900      0.0013
     11  N4        25.6450   -3.8090   22.3680 N.pl3 900  AGY900      0.0574
     12  O4        25.1680   -2.5480   22.0310 O.2   900  AGY900     -0.1261
     13  C5        32.4120   -0.2110   17.3180 C.ar  900  AGY900      0.0167
     14  C6        34.8990    0.2110   17.1500 C.ar  900  AGY900      0.0001
     15  C7        36.4760   -1.6760   17.4650 C.ar  900  AGY900      0.0000
     16  C8        35.6370   -3.9930   17.9490 C.ar  900  AGY900      0.0000
     17  C9        33.5260    0.7020   17.1010 C.ar  900  AGY900      0.0013
     18  C10       30.9160   -3.3510   16.9640 C.2   900  AGY900      0.3632
     19  C11       36.7350   -3.0780   17.7320 C.ar  900  AGY900      0.0000
     20  C12       29.5470   -4.6110   19.6220 C.2   900  AGY900      0.2843
     21  C13       28.9510   -4.4900   20.9510 C.ar  900  AGY900      0.0583
     22  C14       27.5800   -4.1810   21.0710 C.ar  900  AGY900      0.0284
     23  C15       29.7350   -4.6820   22.1300 C.ar  900  AGY900      0.0044
     24  C16       26.9430   -4.0570   22.3480 C.ar  900  AGY900      0.1390
     25  C17       29.1390   -4.5650   23.4400 C.ar  900  AGY900     -0.0025
     26  C18       27.7090   -4.2430   23.5950 C.ar  900  AGY900     -0.0003
     27  C19       27.1220   -4.1330   25.0240 C.3   900  AGY900      0.0205
     28  C20       28.0260   -3.3630   26.0170 C.3   900  AGY900      0.0044
     29  C21       25.7950   -3.3270   25.2910 C.3   900  AGY900      0.0044
     30  C22       26.8120   -5.5700   25.4860 C.3   900  AGY900      0.0044
@<TRIPOS>BOND
     1     3    18    2
     2    18     5   am
     3    18     2   am
     4    17    14   ar
     5    17    13   ar
     6    14     7   ar
     7    13     4   ar
     8     5     8    1
     9     7    15   ar
    10     7     1   ar
    11    15    19   ar
    12     4     1   ar
    13     4     2    1
    14     1    10   ar
    15    19    16   ar
    16    10    16   ar
    17     8    20   am
    18     6    20    2
    19    20    21    1
    20    21    22   ar
    21    21    23   ar
    22    22    24   ar
    23    12    11    2
    24    23    25   ar
    25    24    11    1
    26    24    26   ar
    27    11     9    2
    28    25    26   ar
    29    26    27    1
    30    27    29    1
    31    27    30    1
    32    27    28    1
