@<TRIPOS>MOLECULE
3jvv_ACP_A_1.pdb
 31 33 0 0 0
SMALL
GASTEIGER

@<TRIPOS>ATOM
      1  PG       -20.9080   24.1080   32.2220 P.3   400  ACP400      0.1295
      2  O1G      -21.0820   22.7700   32.9010 O.3   400  ACP400     -0.3567
      3  O2G      -22.0200   24.4710   31.2510 O.2   400  ACP400     -0.4595
      4  O3G      -20.5220   25.2720   33.1150 O.3   400  ACP400     -0.3567
      5  PB       -19.6920   22.4170   30.0630 P.3   400  ACP400      0.3815
      6  O1B      -20.5310   22.8040   28.8500 O.2   400  ACP400     -0.2547
      7  O2B      -20.1060   21.2440   30.9160 O.3   400  ACP400     -0.1391
      8  C3B      -19.4790   23.8750   31.1170 C.3   400  ACP400      0.1768
      9  PA       -17.7130   23.1170   28.3290 P.3   400  ACP400      0.2209
     10  O1A      -17.9250   24.4850   28.8960 O.3   400  ACP400     -0.4371
     11  O2A      -18.5180   22.7460   27.1130 O.2   400  ACP400     -0.5170
     12  O3A      -18.2230   22.1020   29.4790 O.3   400  ACP400     -0.2483
     13  O5'      -16.1430   22.7880   28.1670 O.3   400  ACP400     -0.3111
     14  C5'      -15.3110   22.9690   29.3170 C.3   400  ACP400      0.1813
     15  C4'      -13.8210   22.8050   29.0370 C.3   400  ACP400      0.1821
     16  O4'      -13.5170   21.4530   28.6680 O.3   400  ACP400     -0.3135
     17  C3'      -13.3650   23.7630   27.9380 C.3   400  ACP400      0.2184
     18  O3'      -12.0820   24.2900   28.2850 O.3   400  ACP400     -0.2174
     19  C2'      -13.2630   22.8260   26.7390 C.3   400  ACP400      0.2570
     20  O2'      -12.1870   23.1690   25.8600 O.3   400  ACP400     -0.2130
     21  C1'      -12.8990   21.4960   27.3840 C.3   400  ACP400      0.3186
     22  N9       -13.4590   20.4140   26.5390 N.pl3 400  ACP400     -0.1439
     23  C8       -14.7580   20.2870   26.2030 C.3   400  ACP400      0.3377
     24  N7       -14.9710   19.2030   25.4190 N.2   400  ACP400     -0.2095
     25  C5       -13.7730   18.6150   25.2420 C.2   400  ACP400      0.2526
     26  C6       -13.2770   17.4200   24.5230 C.2   400  ACP400      0.4393
     27  N6       -14.1230   16.6280   23.8250 N.pl3 400  ACP400      0.2180
     28  N1       -11.9540   17.1560   24.5890 N.2   400  ACP400      0.0021
     29  C2       -11.1090   17.9390   25.2830 C.3   400  ACP400      0.5254
     30  N3       -11.4860   19.0380   25.9640 N.2   400  ACP400     -0.0055
     31  C4       -12.7820   19.4170   25.9800 C.2   400  ACP400      0.3518
@<TRIPOS>BOND
     1    27    26    1
     2    26    28    2
     3    26    25    1
     4    28    29    1
     5    25    24    2
     6    25    31    1
     7    29    30    1
     8    24    23    1
     9    20    19    1
    10    30    31    2
    11    31    22    1
    12    23    22    1
    13    22    21    1
    14    19    21    1
    15    19    17    1
    16    11     9    2
    17    21    16    1
    18    17    18    1
    19    17    15    1
    20    13     9    1
    21    13    14    1
    22     9    10    1
    23     9    12    1
    24    16    15    1
    25     6     5    2
    26    15    14    1
    27    12     5    1
    28     5     7    1
    29     5     8    1
    30     8     1    1
    31     3     1    2
    32     1     2    1
    33     1     4    1
