@<TRIPOS>MOLECULE
3jvw_DMP_A_1.pdb
 42 46 0 0 0
SMALL
GASTEIGER

@<TRIPOS>ATOM
      1  C1        17.3440   21.9530   17.2490 C.2   323  DMP323      0.3077
      2  C3        15.1670   22.9840   17.7020 C.3   323  DMP323      0.1144
      3  C4        15.4320   23.9090   18.8460 C.3   323  DMP323      0.2021
      4  C5        16.6650   24.7710   18.7090 C.3   323  DMP323      0.2021
      5  C6        17.9360   23.9220   18.6770 C.3   323  DMP323      0.1144
      6  C20       15.5050   20.4750   17.5320 C.3   323  DMP323      0.1217
      7  C21       14.6180   19.9760   18.6120 C.ar  323  DMP323     -0.0023
      8  C22       14.9650   20.0750   19.9720 C.ar  323  DMP323     -0.0029
      9  C23       14.1820   19.4920   20.9810 C.ar  323  DMP323     -0.0020
     10  C24       13.0630   18.7400   20.5830 C.ar  323  DMP323      0.0106
     11  C25       12.6830   18.6680   19.2330 C.ar  323  DMP323     -0.0020
     12  C26       13.4340   19.3470   18.2460 C.ar  323  DMP323     -0.0029
     13  C27       12.1920   18.1600   21.6380 C.3   323  DMP323      0.2086
     14  C30       14.9490   23.6070   16.3330 C.3   323  DMP323      0.0489
     15  C31       14.3590   22.6320   15.3290 C.ar  323  DMP323     -0.0204
     16  C32       15.2120   21.9470   14.4330 C.ar  323  DMP323     -0.0042
     17  C33       14.6870   21.0330   13.5030 C.ar  323  DMP323     -0.0003
     18  C34       13.3000   20.8090   13.4570 C.ar  323  DMP323     -0.0000
     19  C35       12.4370   21.4880   14.3470 C.ar  323  DMP323     -0.0003
     20  C36       12.9730   22.4060   15.2780 C.ar  323  DMP323     -0.0042
     21  C60       18.0900   23.0520   19.9470 C.3   323  DMP323      0.0489
     22  C61       19.4660   22.4600   20.1230 C.ar  323  DMP323     -0.0204
     23  C62       20.5180   23.3420   20.5370 C.ar  323  DMP323     -0.0042
     24  C63       21.8250   22.8140   20.4990 C.ar  323  DMP323     -0.0003
     25  C64       22.0250   21.4200   20.3760 C.ar  323  DMP323     -0.0000
     26  C65       20.9390   20.5300   20.2550 C.ar  323  DMP323     -0.0003
     27  C66       19.6270   21.0760   20.3310 C.ar  323  DMP323     -0.0042
     28  C70       19.3540   23.2030   16.7400 C.3   323  DMP323      0.1217
     29  C71       19.7180   24.5240   16.0930 C.ar  323  DMP323     -0.0023
     30  C72       21.0440   25.0020   16.2270 C.ar  323  DMP323     -0.0029
     31  C73       21.3880   26.2290   15.6510 C.ar  323  DMP323     -0.0020
     32  C74       20.4050   26.9790   14.9760 C.ar  323  DMP323      0.0106
     33  C75       19.0960   26.4800   14.7840 C.ar  323  DMP323     -0.0020
     34  C76       18.7670   25.2430   15.3480 C.ar  323  DMP323     -0.0029
     35  C77       20.7610   28.3130   14.3550 C.3   323  DMP323      0.2086
     36  N2        16.0640   21.8210   17.5830 N.am  323  DMP323     -0.2586
     37  N7        18.0650   23.0840   17.4600 N.am  323  DMP323     -0.2586
     38  O1        17.8760   20.9930   16.7300 O.2   323  DMP323     -0.2523
     39  O4        14.2700   24.6610   18.9550 O.3   323  DMP323     -0.2186
     40  O5        16.8590   25.4900   19.9090 O.3   323  DMP323     -0.2186
     41  O27       10.8740   18.0720   21.0940 O.3   323  DMP323     -0.2152
     42  O77       21.1330   29.1700   15.4300 O.3   323  DMP323     -0.2152
@<TRIPOS>BOND
     1    18    17   ar
     2    18    19   ar
     3    17    16   ar
     4    19    20   ar
     5    35    32    1
     6    35    42    1
     7    16    15   ar
     8    33    32   ar
     9    33    34   ar
    10    32    31   ar
    11    20    15   ar
    12    15    14    1
    13    34    29   ar
    14    31    30   ar
    15    29    30   ar
    16    29    28    1
    17    14     2    1
    18    38     1    2
    19    28    37    1
    20     1    37   am
    21     1    36   am
    22    37     5    1
    23     6    36    1
    24     6     7    1
    25    36     2    1
    26     2     3    1
    27    12     7   ar
    28    12    11   ar
    29     7     8   ar
    30     5     4    1
    31     5    21    1
    32     4     3    1
    33     4    40    1
    34     3    39    1
    35    11    10   ar
    36    21    22    1
    37     8     9   ar
    38    22    27   ar
    39    22    23   ar
    40    26    27   ar
    41    26    25   ar
    42    25    24   ar
    43    24    23   ar
    44    10     9   ar
    45    10    13    1
    46    41    13    1
