@<TRIPOS>MOLECULE
3jvx_NAP_A_1.pdb
 48 52 0 0 0
SMALL
GASTEIGER

@<TRIPOS>ATOM
      1  PA        43.1310  -34.4280    3.3510 P.3   207  NAP207      0.2189
      2  O1A       42.4580  -33.8100    4.5050 O.3   207  NAP207     -0.4371
      3  O2A       43.9330  -33.4810    2.5530 O.2   207  NAP207     -0.5170
      4  O5B       44.1050  -35.6040    3.8280 O.3   207  NAP207     -0.3112
      5  C5B       43.5880  -36.6860    4.5570 C.3   207  NAP207      0.1813
      6  C4B       44.8010  -37.3860    5.1270 C.3   207  NAP207      0.1820
      7  O4B       45.3370  -36.5820    6.1590 O.3   207  NAP207     -0.3136
      8  C3B       44.5100  -38.7380    5.7560 C.3   207  NAP207      0.2157
      9  O3B       44.4580  -39.7580    4.7860 O.3   207  NAP207     -0.2175
     10  C2B       45.6950  -38.8530    6.6980 C.3   207  NAP207      0.2314
     11  O2B       46.8780  -39.2350    6.0190 O.3   207  NAP207     -0.2630
     12  C1B       45.8840  -37.4090    7.1620 C.3   207  NAP207      0.3158
     13  N9A       45.1820  -37.2420    8.4440 N.pl3 207  NAP207     -0.1439
     14  C8A       43.8320  -37.0770    8.6510 C.3   207  NAP207      0.3377
     15  N7A       43.6270  -36.9740    9.9840 N.2   207  NAP207     -0.2095
     16  C5A       44.8160  -37.0780   10.6290 C.2   207  NAP207      0.2526
     17  C6A       45.1770  -37.0470   11.9740 C.2   207  NAP207      0.4393
     18  N6A       44.2540  -36.8930   12.9220 N.pl3 207  NAP207      0.2180
     19  N1A       46.5120  -37.1670   12.3230 N.2   207  NAP207      0.0021
     20  C2A       47.4780  -37.3190   11.3580 C.3   207  NAP207      0.5254
     21  N3A       47.1070  -37.3620   10.0300 N.2   207  NAP207     -0.0055
     22  C4A       45.8030  -37.2430    9.6720 C.2   207  NAP207      0.3518
     23  O3        42.0810  -35.3020    2.4860 O.3   207  NAP207     -0.2703
     24  PN        40.5650  -35.0580    2.0510 P.3   207  NAP207      0.2189
     25  O1N       40.1430  -36.2450    1.2590 O.2   207  NAP207     -0.5170
     26  O2N       39.8110  -34.6230    3.2540 O.3   207  NAP207     -0.4371
     27  O5D       40.6690  -33.7630    1.0890 O.3   207  NAP207     -0.3112
     28  C5D       41.1480  -33.9090   -0.2320 C.3   207  NAP207      0.1813
     29  C4D       40.1980  -33.2030   -1.1950 C.3   207  NAP207      0.1799
     30  O4D       40.0410  -31.8290   -0.8770 O.3   207  NAP207     -0.3327
     31  C3D       40.7290  -33.2430   -2.6170 C.3   207  NAP207      0.2158
     32  O3D       39.5980  -33.3530   -3.4560 O.3   207  NAP207     -0.2175
     33  C2D       41.3850  -31.8850   -2.7800 C.3   207  NAP207      0.2309
     34  O2D       41.4890  -31.5190   -4.1380 O.3   207  NAP207     -0.2158
     35  C1D       40.4080  -31.0220   -1.9910 C.3   207  NAP207      0.2263
     36  N1N       40.9460  -29.7410   -1.5070 N.pl3 207  NAP207     -0.2787
     37  C2N       40.3230  -28.6030   -1.9170 C.3   207  NAP207      0.1244
     38  C3N       40.7680  -27.3670   -1.4670 C.2   207  NAP207      0.0544
     39  C7N       39.9540  -26.1450   -1.7550 C.2   207  NAP207      0.2818
     40  O7N       40.2200  -25.0110   -0.9970 O.2   207  NAP207     -0.2670
     41  N7N       39.0130  -26.1520   -2.6930 N.am  207  NAP207     -0.0839
     42  C4N       41.8530  -27.2940   -0.5930 C.2   207  NAP207      0.0033
     43  C5N       42.4870  -28.4590   -0.1740 C.2   207  NAP207      0.0157
     44  C6N       42.0150  -29.6830   -0.6400 C.2   207  NAP207      0.0633
     45  P2B       47.4110  -40.7430    5.9750 P.3   207  NAP207      0.5328
     46  O1X       46.3880  -41.5460    5.2260 O.3   207  NAP207     -0.1145
     47  O2X       48.7100  -40.7980    5.2200 O.2   207  NAP207     -0.2224
     48  O3X       47.5500  -41.2700    7.3910 O.3   207  NAP207     -0.1145
@<TRIPOS>BOND
     1    34    33    1
     2    32    31    1
     3    33    31    1
     4    33    35    1
     5    41    39   am
     6    31    29    1
     7    35    36    1
     8    35    30    1
     9    37    36    1
    10    37    38    1
    11    39    38    1
    12    39    40    2
    13    36    44    1
    14    38    42    2
    15    29    30    1
    16    29    28    1
    17    44    43    2
    18    42    43    1
    19    28    27    1
    20    27    24    1
    21    25    24    2
    22    24    23    1
    23    24    26    1
    24    23     1    1
    25     3     1    2
    26     1     4    1
    27     1     2    1
    28     4     5    1
    29     5     6    1
    30     9     8    1
    31     6     8    1
    32     6     7    1
    33    47    45    2
    34    46    45    1
    35     8    10    1
    36    45    11    1
    37    45    48    1
    38    11    10    1
    39     7    12    1
    40    10    12    1
    41    12    13    1
    42    13    14    1
    43    13    22    1
    44    14    15    1
    45    22    21    2
    46    22    16    1
    47    15    16    2
    48    21    20    1
    49    16    17    1
    50    20    19    1
    51    17    19    2
    52    17    18    1
