@<TRIPOS>MOLECULE
3jvx_EKB_A_1.pdb
 25 26 0 0 0
SMALL
GASTEIGER

@<TRIPOS>ATOM
      1  N1        42.4270  -22.1940   -0.9060 N.2   208  EKB208     -0.3105
      2  C2        41.9660  -21.4690   -1.9430 C.1   208  EKB208      0.2419
      3  N3        42.0430  -21.9350   -3.1960 N.2   208  EKB208     -0.3332
      4  C4        42.5710  -23.1330   -3.4750 C.2   208  EKB208      0.1203
      5  C5        43.0540  -23.9030   -2.4170 C.3   208  EKB208      0.1831
      6  C6        42.9760  -23.4060   -1.1180 C.2   208  EKB208      0.2282
      7  C1A       41.2780  -24.2310   -5.2720 C.3   208  EKB208      0.0076
      8  C1B       45.1300  -30.7900   -7.0970 C.3   208  EKB208      0.2526
      9  C1C       48.3910  -24.6690   -5.3350 C.3   208  EKB208      0.2526
     10  C1D       46.6930  -26.8970   -9.2260 C.3   208  EKB208      0.2528
     11  N1E       41.4190  -20.2760   -1.7620 N.pl3 208  EKB208     -0.0232
     12  N1F       43.4380  -24.1400   -0.1040 N.pl3 208  EKB208     -0.0955
     13  C1G       44.1190  -26.2860   -2.8980 C.1   208  EKB208     -0.0854
     14  C1H       43.6320  -25.1890   -2.6690 C.1   208  EKB208     -0.0760
     15  C1I       45.3400  -28.6420   -5.4250 C.ar  208  EKB208      0.0370
     16  C1J       46.2570  -26.4800   -4.8680 C.ar  208  EKB208      0.0370
     17  C1K       42.6040  -23.5580   -4.9440 C.3   208  EKB208      0.0569
     18  C1L       44.7010  -27.5960   -3.2010 C.3   208  EKB208      0.1025
     19  O1O       45.9500  -29.6670   -7.5280 O.3   208  EKB208     -0.4683
     20  O1P       47.7520  -25.3820   -6.4230 O.3   208  EKB208     -0.4683
     21  O1Q       47.5310  -27.4600   -8.1520 O.3   208  EKB208     -0.4654
     22  C1S       45.4520  -27.5720   -4.5400 C.ar  208  EKB208     -0.0030
     23  C1V       46.0390  -28.6220   -6.6410 C.ar  208  EKB208      0.1752
     24  C1W       46.9590  -26.4460   -6.0750 C.ar  208  EKB208      0.1752
     25  C1Y       46.8420  -27.5140   -6.9640 C.ar  208  EKB208      0.2060
@<TRIPOS>BOND
     1    10    21    1
     2    21    25    1
     3    19     8    1
     4    19    23    1
     5    25    23   ar
     6    25    24   ar
     7    23    15   ar
     8    20    24    1
     9    20     9    1
    10    24    16   ar
    11    15    22   ar
    12     7    17    1
    13    17     4    1
    14    16    22   ar
    15    22    18    1
    16     4     3    2
    17     4     5    1
    18    18    13    1
    19     3     2    2
    20    13    14    3
    21    14     5    1
    22     5     6    1
    23     2    11    1
    24     2     1    2
    25     6     1    2
    26     6    12    1
