@<TRIPOS>MOLECULE
3jvy_017_B_1.pdb
 39 41 0 0 0
SMALL
GASTEIGER

@<TRIPOS>ATOM
      1  N1        21.2010   28.9530   14.1230 N.pl3 401  017401     -0.1281
      2  N1        11.1850   16.6660   20.9390 N.3   401  017401      0.0000
      3  C2        20.5970   27.7860   14.5240 C.ar  401  017401      0.0892
      4  C3        19.2500   27.5630   14.1650 C.ar  401  017401      0.0194
      5  C4        18.5930   26.3920   14.5880 C.ar  401  017401      0.0213
      6  C5        19.3220   25.4360   15.3150 C.ar  401  017401      0.1223
      7  C6        20.6400   25.6740   15.7230 C.ar  401  017401      0.0213
      8  C7        21.3080   26.8430   15.2900 C.ar  401  017401      0.0194
      9  S8        18.3980   23.9800   15.9650 S.O2  401  017401      0.0634
     10  O9        17.2180   23.7360   14.9400 O.2   401  017401     -0.1528
     11  O10       19.3730   22.7360   16.0000 O.2   401  017401     -0.1528
     12  N11       17.7300   24.3110   17.5990 N.3   401  017401     -0.1529
     13  C12       18.7100   24.6070   18.6860 C.3   401  017401      0.0958
     14  C13       18.4320   23.9470   20.0580 C.3   401  017401      0.0178
     15  C14       18.5190   22.4380   19.9410 C.3   401  017401      0.0015
     16  C15       19.5170   24.4010   21.0330 C.3   401  017401      0.0015
     17  C16       16.4270   25.0970   17.5920 C.3   401  017401      0.1304
     18  C17       15.2120   24.2500   18.1120 C.3   401  017401      0.1898
     19  O18       14.0640   25.0490   18.4080 O.3   401  017401     -0.2197
     20  C19       14.7840   23.1000   17.1370 C.3   401  017401      0.1347
     21  N20       13.9450   22.1690   17.8550 N.am  401  017401     -0.1675
     22  C21       14.3020   20.8920   18.1650 C.2   401  017401      0.4211
     23  O22       15.4420   20.3960   17.8580 O.2   401  017401     -0.2246
     24  O23       13.2820   20.1860   18.8890 O.3   401  017401     -0.4345
     25  C24       13.4240   18.7320   18.9710 C.3   401  017401      0.2048
     26  C25       12.7800   18.3380   20.3350 C.3   401  017401      0.1884
     27  O26       11.3510   18.4930   20.1710 O.3   401  017401     -0.3265
     28  C27       11.1200   18.1790   18.8000 C.3   401  017401      0.2388
     29  O28       10.1930   19.0540   18.1260 O.3   401  017401     -0.3304
     30  C29       11.0350   19.6380   17.1010 C.3   401  017401      0.1451
     31  C30       12.0650   18.5510   16.6980 C.3   401  017401      0.0409
     32  C31       12.3840   18.0560   18.0820 C.3   401  017401      0.1016
     33  C32       13.9880   23.5510   15.8500 C.3   401  017401      0.0508
     34  C33       12.3390   21.9030   14.7790 C.ar  401  017401     -0.0042
     35  C34       12.0290   20.7890   13.9710 C.ar  401  017401     -0.0003
     36  C35       13.0790   20.0730   13.3680 C.ar  401  017401     -0.0000
     37  C36       14.4040   20.5050   13.5090 C.ar  401  017401     -0.0003
     38  C37       14.7040   21.6420   14.3020 C.ar  401  017401     -0.0042
     39  C38       13.6620   22.3560   14.9310 C.ar  401  017401     -0.0204
@<TRIPOS>BOND
     1    36    37   ar
     2    36    35   ar
     3    37    38   ar
     4    35    34   ar
     5     1     3    1
     6     4     3   ar
     7     4     5   ar
     8    38    39   ar
     9     3     8   ar
    10     5     6   ar
    11    34    39   ar
    12    39    33    1
    13    10     9    2
    14     8     7   ar
    15     6     7   ar
    16     6     9    1
    17    33    20    1
    18     9    11    2
    19     9    12    1
    20    31    30    1
    21    31    32    1
    22    30    29    1
    23    20    21    1
    24    20    18    1
    25    17    12    1
    26    17    18    1
    27    12    13    1
    28    21    22   am
    29    23    22    2
    30    32    28    1
    31    32    25    1
    32    18    19    1
    33    29    28    1
    34    22    24    1
    35    13    14    1
    36    28    27    1
    37    24    25    1
    38    25    26    1
    39    15    14    1
    40    14    16    1
    41    27    26    1
