@<TRIPOS>MOLECULE
3jw1_U5P_A_1.pdb
 32 33 0 0 0
SMALL
GASTEIGER

@<TRIPOS>ATOM
      1  N1       -23.5380  -34.6590   16.7060 N.ar  201  U5P201     -0.2715
      2  C2       -22.7290  -34.6860   17.8510 C.ar  201  U5P201      0.3314
      3  N3       -21.4010  -34.7220   17.7240 N.ar  201  U5P201     -0.2749
      4  C4       -20.8060  -34.6740   16.5280 C.ar  201  U5P201      0.2539
      5  C5       -21.5870  -34.6500   15.3730 C.ar  201  U5P201      0.0192
      6  C6       -22.9730  -34.6390   15.4910 C.ar  201  U5P201      0.0171
      7  O2       -23.2950  -34.7120   18.9790 O.2   201  U5P201     -0.2464
      8  O4       -19.5530  -34.6650   16.4460 O.2   201  U5P201     -0.2677
      9  C1'      -24.9790  -34.7230   16.8600 C.3   201  U5P201      0.1679
     10  C2'      -25.5880  -33.3390   17.0210 C.3   201  U5P201      0.1286
     11  O2'      -26.7260  -33.4040   17.8810 O.3   201  U5P201     -0.3847
     12  C3'      -26.0380  -33.0070   15.6130 C.3   201  U5P201      0.1135
     13  C4'      -26.3500  -34.3710   15.0230 C.3   201  U5P201      0.1134
     14  O3'      -27.1810  -32.1630   15.5490 O.3   201  U5P201     -0.3864
     15  O4'      -25.4980  -35.3330   15.6630 O.3   201  U5P201     -0.3456
     16  C5'      -26.1480  -34.3030   13.5170 C.3   201  U5P201      0.0880
     17  O5'      -24.9840  -35.0160   13.1390 O.3   201  U5P201     -0.2809
     18  P        -24.5760  -35.0150   11.5790 P.3   201  U5P201      0.5320
     19  O1P      -25.7980  -34.4490   10.9020 O.2   201  U5P201     -0.2224
     20  O2P      -24.3110  -36.4790   11.2870 O.3   201  U5P201     -0.1145
     21  O3P      -23.3520  -34.1300   11.5230 O.3   201  U5P201     -0.1145
     22  HN3      -20.8460  -34.7110   18.5310 H     201  U5P201      0.1734
     23  H5       -21.1200  -34.6270   14.3960 H     201  U5P201      0.0686
     24  H6       -23.5880  -34.6370   14.6010 H     201  U5P201      0.0813
     25  H1'      -25.2400  -35.3320   17.7360 H     201  U5P201      0.0867
     26  H2'      -24.8380  -32.6190   17.3760 H     201  U5P201      0.0665
     27 HO2'      -26.5440  -33.0010   18.7550 H     201  U5P201      0.2101
     28  H3'      -25.2000  -32.5600   15.0640 H     201  U5P201      0.0647
     29  H4'      -27.4030  -34.6120   15.2270 H     201  U5P201      0.0647
     30 HO3'      -27.2170  -31.5360   16.3010 H     201  U5P201      0.2100
     31 H5'1      -27.0160  -34.7350   13.0190 H     201  U5P201      0.0592
     32 H5'2      -26.0610  -33.2600   13.2030 H     201  U5P201      0.0592
@<TRIPOS>BOND
     1    19    18    2
     2    20    18    1
     3    21    18    1
     4    18    17    1
     5    31    16    1
     6    17    16    1
     7    32    16    1
     8    16    13    1
     9    23     5    1
    10    24     6    1
    11    13    29    1
    12    13    12    1
    13    13    15    1
    14    28    12    1
    15     5     6   ar
    16     5     4   ar
    17     6     1   ar
    18    14    12    1
    19    14    30    1
    20    12    10    1
    21    15     9    1
    22     8     4    2
    23     4     3   ar
    24     1     9    1
    25     1     2   ar
    26     9    10    1
    27     9    25    1
    28    10    26    1
    29    10    11    1
    30     3     2   ar
    31     3    22    1
    32     2     7    2
    33    11    27    1
