@<TRIPOS>MOLECULE
3jw2_017_A_1.pdb
 38 41 0 0 0
SMALL
GASTEIGER

@<TRIPOS>ATOM
      1  N1        21.1530   28.5480   14.0340 N.pl3 401  017401     -0.1281
      2  C2        20.5490   27.4450   14.5480 C.ar  401  017401      0.0892
      3  C3        19.1560   27.2370   14.3080 C.ar  401  017401      0.0194
      4  C4        18.5150   26.0810   14.8470 C.ar  401  017401      0.0213
      5  C5        19.2600   25.1440   15.6180 C.ar  401  017401      0.1223
      6  C6        20.6540   25.3480   15.8620 C.ar  401  017401      0.0213
      7  C7        21.2990   26.5060   15.3220 C.ar  401  017401      0.0194
      8  S8        18.4250   23.6620   16.3050 S.O2  401  017401      0.0634
      9  O9        17.3130   23.1520   15.2910 O.2   401  017401     -0.1528
     10  O10       19.4910   22.5330   16.4690 O.2   401  017401     -0.1528
     11  N11       17.6700   23.9540   17.9090 N.3   401  017401     -0.1529
     12  C12       18.5740   24.4900   18.9750 C.3   401  017401      0.0958
     13  C13       18.4540   23.7660   20.3400 C.3   401  017401      0.0178
     14  C14       18.5300   22.2600   20.1000 C.3   401  017401      0.0015
     15  C15       19.6020   24.2200   21.2250 C.3   401  017401      0.0015
     16  C16       16.3980   24.7710   17.8300 C.3   401  017401      0.1304
     17  C17       15.1520   23.9580   18.2780 C.3   401  017401      0.1898
     18  O18       14.0190   24.7850   18.4930 O.3   401  017401     -0.2197
     19  C19       14.7730   22.7930   17.3010 C.3   401  017401      0.1347
     20  N20       14.0030   21.7840   17.9550 N.am  401  017401     -0.1675
     21  C21       14.3260   20.5080   18.3210 C.2   401  017401      0.4211
     22  O22       15.4460   19.9440   18.0380 O.2   401  017401     -0.2246
     23  O23       13.2950   19.8450   19.0510 O.3   401  017401     -0.4345
     24  C24       13.2250   18.3920   19.1820 C.3   401  017401      0.2048
     25  C25       12.6840   18.0950   20.6110 C.3   401  017401      0.1884
     26  O26       11.2350   18.1840   20.5490 O.3   401  017401     -0.3265
     27  C27       10.9070   17.9060   19.1850 C.3   401  017401      0.2388
     28  O28       10.0560   18.8400   18.5210 O.3   401  017401     -0.3304
     29  C29       10.7590   19.1890   17.3230 C.3   401  017401      0.1451
     30  C30       11.7200   18.0240   17.0200 C.3   401  017401      0.0409
     31  C31       12.1370   17.6680   18.4230 C.3   401  017401      0.1016
     32  C32       13.9740   23.2210   16.0050 C.3   401  017401      0.0508
     33  C33       12.2630   21.6360   14.8650 C.ar  401  017401     -0.0042
     34  C34       11.9380   20.5220   14.0140 C.ar  401  017401     -0.0003
     35  C35       12.9870   19.8000   13.3650 C.ar  401  017401     -0.0000
     36  C36       14.3520   20.1800   13.5690 C.ar  401  017401     -0.0003
     37  C37       14.6680   21.2910   14.4180 C.ar  401  017401     -0.0042
     38  C38       13.6220   22.0260   15.0790 C.ar  401  017401     -0.0204
@<TRIPOS>BOND
     1    35    36   ar
     2    35    34   ar
     3    36    37   ar
     4    34    33   ar
     5     1     2    1
     6     3     2   ar
     7     3     4   ar
     8    37    38   ar
     9     2     7   ar
    10     4     5   ar
    11    33    38   ar
    12    38    32    1
    13     9     8    2
    14     7     6   ar
    15     5     6   ar
    16     5     8    1
    17    32    19    1
    18     8    10    2
    19     8    11    1
    20    30    29    1
    21    30    31    1
    22    19    20    1
    23    19    17    1
    24    29    28    1
    25    16    11    1
    26    16    17    1
    27    11    12    1
    28    20    21   am
    29    22    21    2
    30    17    18    1
    31    21    23    1
    32    31    24    1
    33    31    27    1
    34    28    27    1
    35    12    13    1
    36    23    24    1
    37    24    25    1
    38    27    26    1
    39    14    13    1
    40    13    15    1
    41    26    25    1
