@<TRIPOS>MOLECULE
3jw3_NAP_A_1.pdb
 48 52 0 0 0
SMALL
GASTEIGER

@<TRIPOS>ATOM
      1  PA        42.2080  -33.8660    1.9910 P.3   207  NAP207      0.2189
      2  O1A       41.6110  -33.2950    3.2240 O.3   207  NAP207     -0.4371
      3  O2A       42.9870  -32.8850    1.2240 O.2   207  NAP207     -0.5170
      4  O5B       43.1310  -35.1250    2.3140 O.3   207  NAP207     -0.3112
      5  C5B       42.5810  -36.2020    3.0300 C.3   207  NAP207      0.1813
      6  C4B       43.7530  -36.9530    3.6330 C.3   207  NAP207      0.1820
      7  O4B       44.3030  -36.2510    4.7330 O.3   207  NAP207     -0.3136
      8  C3B       43.3640  -38.3120    4.1770 C.3   207  NAP207      0.2157
      9  O3B       43.3020  -39.2810    3.1580 O.3   207  NAP207     -0.2175
     10  C2B       44.5020  -38.5600    5.1350 C.3   207  NAP207      0.2314
     11  O2B       45.6300  -38.9150    4.3820 O.3   207  NAP207     -0.2630
     12  C1B       44.7960  -37.1760    5.6790 C.3   207  NAP207      0.3158
     13  N9A       44.0980  -36.9890    6.9570 N.pl3 207  NAP207     -0.1439
     14  C8A       42.7680  -36.6880    7.1300 C.3   207  NAP207      0.3377
     15  N7A       42.5110  -36.5860    8.4430 N.2   207  NAP207     -0.2095
     16  C5A       43.6560  -36.8200    9.1180 C.2   207  NAP207      0.2526
     17  C6A       43.9480  -36.8500   10.4760 C.2   207  NAP207      0.4393
     18  N6A       42.9790  -36.6030   11.3480 N.pl3 207  NAP207      0.2180
     19  N1A       45.2280  -37.1270   10.9150 N.2   207  NAP207      0.0021
     20  C2A       46.2200  -37.3730    9.9790 C.3   207  NAP207      0.5254
     21  N3A       45.9220  -37.3480    8.6200 N.2   207  NAP207     -0.0055
     22  C4A       44.6630  -37.0780    8.1980 C.2   207  NAP207      0.3518
     23  O3        41.0940  -34.6030    1.0930 O.3   207  NAP207     -0.2703
     24  PN        39.6360  -34.2250    0.5120 P.3   207  NAP207      0.2189
     25  O1N       39.3390  -35.2110   -0.5570 O.2   207  NAP207     -0.5170
     26  O2N       38.7250  -34.0500    1.6650 O.3   207  NAP207     -0.4371
     27  O5D       39.9060  -32.7910   -0.1660 O.3   207  NAP207     -0.3112
     28  C5D       40.6430  -32.7090   -1.3700 C.3   207  NAP207      0.1813
     29  C4D       39.7170  -32.2900   -2.5130 C.3   207  NAP207      0.1799
     30  O4D       39.3280  -30.9310   -2.3810 O.3   207  NAP207     -0.3327
     31  C3D       40.3780  -32.4170   -3.8750 C.3   207  NAP207      0.2158
     32  O3D       39.3950  -32.8420   -4.7930 O.3   207  NAP207     -0.2175
     33  C2D       40.8200  -31.0060   -4.2230 C.3   207  NAP207      0.2309
     34  O2D       40.7480  -30.7980   -5.6190 O.3   207  NAP207     -0.2158
     35  C1D       39.8400  -30.1290   -3.4410 C.3   207  NAP207      0.2263
     36  N1N       40.4310  -28.8910   -2.8650 N.pl3 207  NAP207     -0.2787
     37  C2N       39.9930  -27.6480   -3.2820 C.3   207  NAP207      0.1244
     38  C3N       40.5060  -26.4530   -2.7540 C.2   207  NAP207      0.0544
     39  C7N       39.7540  -25.1400   -2.8890 C.2   207  NAP207      0.2818
     40  O7N       39.7210  -24.2360   -1.7940 O.2   207  NAP207     -0.2670
     41  N7N       39.1270  -24.8490   -4.0350 N.am  207  NAP207     -0.0839
     42  C4N       41.4840  -26.5620   -1.7710 C.2   207  NAP207      0.0033
     43  C5N       41.9210  -27.8120   -1.3470 C.2   207  NAP207      0.0157
     44  C6N       41.3880  -28.9790   -1.8910 C.2   207  NAP207      0.0633
     45  P2B       46.0410  -40.4470    4.1390 P.3   207  NAP207      0.5328
     46  O1X       46.3050  -41.0420    5.4980 O.3   207  NAP207     -0.1145
     47  O2X       44.9040  -41.1980    3.5040 O.3   207  NAP207     -0.1145
     48  O3X       47.2630  -40.4870    3.2540 O.2   207  NAP207     -0.2224
@<TRIPOS>BOND
     1    34    33    1
     2    32    31    1
     3    33    31    1
     4    33    35    1
     5    41    39   am
     6    31    29    1
     7    35    36    1
     8    35    30    1
     9    37    36    1
    10    37    38    1
    11    39    38    1
    12    39    40    2
    13    36    44    1
    14    38    42    2
    15    29    30    1
    16    29    28    1
    17    44    43    2
    18    42    43    1
    19    28    27    1
    20    25    24    2
    21    27    24    1
    22    24    23    1
    23    24    26    1
    24    23     1    1
    25     3     1    2
    26     1     4    1
    27     1     2    1
    28     4     5    1
    29     5     6    1
    30     9     8    1
    31    48    45    2
    32    47    45    1
    33     6     8    1
    34     6     7    1
    35    45    11    1
    36    45    46    1
    37     8    10    1
    38    11    10    1
    39     7    12    1
    40    10    12    1
    41    12    13    1
    42    13    14    1
    43    13    22    1
    44    14    15    1
    45    22    21    2
    46    22    16    1
    47    15    16    2
    48    21    20    1
    49    16    17    1
    50    20    19    1
    51    17    19    2
    52    17    18    1
