@<TRIPOS>MOLECULE
3jw3_TOP_A_1.pdb
 21 22 0 0 0
SMALL
GASTEIGER

@<TRIPOS>ATOM
      1  C1        43.1630  -22.7390   -4.5670 C.2   208  TOP208      0.1118
      2  N2        42.7080  -21.4840   -4.3800 N.2   208  TOP208     -0.1675
      3  C3        42.4180  -21.0020   -3.1480 C.1   208  TOP208      0.1877
      4  N4        41.9560  -19.7350   -3.0170 N.pl3 208  TOP208     -0.0345
      5  N5        42.5850  -21.7710   -2.0400 N.2   208  TOP208     -0.3170
      6  C6        43.0370  -23.0450   -2.1400 C.2   208  TOP208      0.2297
      7  N7        43.2030  -23.8140   -1.0440 N.pl3 208  TOP208     -0.0924
      8  C8        43.3600  -23.5960   -3.4780 C.2   208  TOP208      0.0500
      9  C9        43.8810  -25.0260   -3.6090 C.3   208  TOP208      0.0585
     10  C10       44.9330  -25.1250   -4.6870 C.ar  208  TOP208     -0.0114
     11  C11       45.9890  -24.2160   -4.6590 C.ar  208  TOP208      0.0363
     12  C12       46.9860  -24.2240   -5.6330 C.ar  208  TOP208      0.1751
     13  O13       48.0020  -23.2960   -5.5400 O.3   208  TOP208     -0.4683
     14  C14       48.9500  -23.3500   -4.4680 C.3   208  TOP208      0.2526
     15  C15       46.9250  -25.2340   -6.7460 C.ar  208  TOP208      0.2060
     16  O16       47.9370  -25.2450   -7.6920 O.3   208  TOP208     -0.4654
     17  C17       47.7890  -25.5370   -9.0880 C.3   208  TOP208      0.2528
     18  C18       45.7720  -26.2060   -6.7410 C.ar  208  TOP208      0.1751
     19  O19       45.6350  -27.1780   -7.7270 O.3   208  TOP208     -0.4683
     20  C20       44.7540  -28.3150   -7.5890 C.3   208  TOP208      0.2526
     21  C21       44.8230  -26.0960   -5.7010 C.ar  208  TOP208      0.0363
@<TRIPOS>BOND
     1    17    16    1
     2    19    20    1
     3    19    18    1
     4    16    15    1
     5    15    18   ar
     6    15    12   ar
     7    18    21   ar
     8    21    10   ar
     9    12    13    1
    10    12    11   ar
    11    13    14    1
    12    10    11   ar
    13    10     9    1
    14     1     2    1
    15     1     8    2
    16     2     3    2
    17     9     8    1
    18     8     6    1
    19     3     4    1
    20     3     5    2
    21     6     5    2
    22     6     7    1
