@<TRIPOS>MOLECULE
3jw5_NAP_A_1.pdb
 48 52 0 0 0
SMALL
GASTEIGER

@<TRIPOS>ATOM
      1  PA        33.7200  -42.0470   -0.2920 P.3   207  NAP207      0.2189
      2  O1A       33.0960  -41.4230   -1.4790 O.2   207  NAP207     -0.5170
      3  O2A       32.8030  -42.9720    0.4000 O.3   207  NAP207     -0.4371
      4  O5B       35.0350  -42.8370   -0.7110 O.3   207  NAP207     -0.3112
      5  C5B       35.7740  -42.4060   -1.8220 C.3   207  NAP207      0.1813
      6  C4B       36.6880  -43.5590   -2.1820 C.3   207  NAP207      0.1820
      7  O4B       36.1520  -44.3120   -3.2530 O.3   207  NAP207     -0.3136
      8  C3B       38.0590  -43.0830   -2.6140 C.3   207  NAP207      0.2157
      9  O3B       38.9050  -42.9530   -1.5010 O.3   207  NAP207     -0.2175
     10  C2B       38.4700  -44.2080   -3.5270 C.3   207  NAP207      0.2314
     11  O2B       38.8260  -45.3080   -2.7390 O.3   207  NAP207     -0.2630
     12  C1B       37.1730  -44.6240   -4.1820 C.3   207  NAP207      0.3158
     13  N9A       36.9710  -43.8880   -5.4540 N.pl3 207  NAP207     -0.1439
     14  C8A       36.6570  -42.5550   -5.6250 C.3   207  NAP207      0.3377
     15  N7A       36.5550  -42.2810   -6.9430 N.2   207  NAP207     -0.2095
     16  C5A       36.7990  -43.4250   -7.6130 C.2   207  NAP207      0.2526
     17  C6A       36.8280  -43.7170   -8.9670 C.2   207  NAP207      0.4393
     18  N6A       36.5850  -42.7510   -9.8370 N.pl3 207  NAP207      0.2180
     19  N1A       37.1100  -45.0020   -9.3960 N.2   207  NAP207      0.0021
     20  C2A       37.3660  -45.9980   -8.4680 C.3   207  NAP207      0.5254
     21  N3A       37.3380  -45.7000   -7.1160 N.2   207  NAP207     -0.0055
     22  C4A       37.0600  -44.4400   -6.6990 C.2   207  NAP207      0.3518
     23  O3        34.3100  -40.9500    0.7280 O.3   207  NAP207     -0.2703
     24  PN        34.0240  -39.3750    0.9440 P.3   207  NAP207      0.2189
     25  O1N       35.1440  -38.7940    1.7460 O.3   207  NAP207     -0.4371
     26  O2N       33.6750  -38.8220   -0.3860 O.2   207  NAP207     -0.5170
     27  O5D       32.7000  -39.4060    1.8760 O.3   207  NAP207     -0.3112
     28  C5D       32.7330  -39.9940    3.1650 C.3   207  NAP207      0.1813
     29  C4D       32.0280  -39.1300    4.2190 C.3   207  NAP207      0.1799
     30  O4D       30.6390  -39.0400    3.9610 O.3   207  NAP207     -0.3327
     31  C3D       32.1310  -39.7290    5.6140 C.3   207  NAP207      0.2158
     32  O3D       32.1570  -38.6790    6.5660 O.3   207  NAP207     -0.2175
     33  C2D       30.8540  -40.5430    5.7410 C.3   207  NAP207      0.2309
     34  O2D       30.5150  -40.7720    7.0900 O.3   207  NAP207     -0.2158
     35  C1D       29.8730  -39.6350    5.0050 C.3   207  NAP207      0.2263
     36  N1N       28.6580  -40.2720    4.4370 N.pl3 207  NAP207     -0.2787
     37  C2N       27.4350  -39.7250    4.7410 C.3   207  NAP207      0.1244
     38  C3N       26.2470  -40.2500    4.2330 C.2   207  NAP207      0.0544
     39  C7N       24.9230  -39.6020    4.5510 C.2   207  NAP207      0.2818
     40  O7N       23.7610  -40.0160    3.8770 O.2   207  NAP207     -0.2670
     41  N7N       24.8520  -38.6430    5.4720 N.am  207  NAP207     -0.0839
     42  C4N       26.3210  -41.3540    3.3910 C.2   207  NAP207      0.0033
     43  C5N       27.5610  -41.9090    3.0790 C.2   207  NAP207      0.0157
     44  C6N       28.7320  -41.3580    3.5990 C.2   207  NAP207      0.0633
     45  P2B       40.3480  -45.7790   -2.6440 P.3   207  NAP207      0.5328
     46  O1X       40.7610  -46.2580   -4.0130 O.2   207  NAP207     -0.2224
     47  O2X       41.1980  -44.6270   -2.1900 O.3   207  NAP207     -0.1145
     48  O3X       40.4760  -46.8830   -1.6360 O.3   207  NAP207     -0.1145
@<TRIPOS>BOND
     1    18    17    1
     2    19    17    2
     3    19    20    1
     4    17    16    1
     5    20    21    1
     6    16    15    2
     7    16    22    1
     8    21    22    2
     9    15    14    1
    10    22    13    1
    11    14    13    1
    12    13    12    1
    13    12    10    1
    14    12     7    1
    15    46    45    2
    16    10    11    1
    17    10     8    1
    18     7     6    1
    19    11    45    1
    20    45    47    1
    21    45    48    1
    22     8     6    1
    23     8     9    1
    24     6     5    1
    25     5     4    1
    26     2     1    2
    27     4     1    1
    28    26    24    2
    29     1     3    1
    30     1    23    1
    31    23    24    1
    32    24    25    1
    33    24    27    1
    34    27    28    1
    35    43    42    1
    36    43    44    2
    37    28    29    1
    38    42    38    2
    39    44    36    1
    40    40    39    2
    41    30    29    1
    42    30    35    1
    43    29    31    1
    44    38    39    1
    45    38    37    1
    46    36    37    1
    47    36    35    1
    48    39    41   am
    49    35    33    1
    50    31    33    1
    51    31    32    1
    52    33    34    1
