@<TRIPOS>MOLECULE
3jw5_TOP_A_1.pdb
 21 22 0 0 0
SMALL
GASTEIGER

@<TRIPOS>ATOM
      1  C1        22.7910  -42.8340    6.0810 C.2   208  TOP208      0.1118
      2  N2        21.5300  -42.3920    5.8900 N.2   208  TOP208     -0.1675
      3  C3        20.9940  -42.2120    4.6540 C.1   208  TOP208      0.1877
      4  N4        19.7250  -41.7670    4.5010 N.pl3 208  TOP208     -0.0345
      5  N5        21.7100  -42.4790    3.5460 N.2   208  TOP208     -0.3170
      6  C6        22.9710  -42.9260    3.6450 C.2   208  TOP208      0.2297
      7  N7        23.6280  -43.1700    2.4940 N.pl3 208  TOP208     -0.0924
      8  C8        23.5950  -43.1410    4.9860 C.2   208  TOP208      0.0500
      9  C9        25.0430  -43.6370    5.0910 C.3   208  TOP208      0.0585
     10  C10       25.5950  -44.3890    6.3070 C.ar  208  TOP208     -0.0114
     11  C11       24.8970  -45.4540    6.9130 C.ar  208  TOP208      0.0363
     12  C12       25.4110  -46.1630    8.0260 C.ar  208  TOP208      0.1751
     13  O13       24.7240  -47.1940    8.6270 O.3   208  TOP208     -0.4683
     14  C14       23.5110  -47.7330    8.0930 C.3   208  TOP208      0.2526
     15  C15       26.7450  -45.7770    8.5800 C.ar  208  TOP208      0.2060
     16  O16       27.3150  -46.4400    9.6510 O.3   208  TOP208     -0.4654
     17  C17       26.7790  -46.4260   10.9790 C.3   208  TOP208      0.2528
     18  C18       27.4680  -44.6550    7.9100 C.ar  208  TOP208      0.1751
     19  O19       28.7150  -44.2650    8.3680 O.3   208  TOP208     -0.4683
     20  C20       28.9970  -43.9260    9.7370 C.3   208  TOP208      0.2526
     21  C21       26.8680  -44.0230    6.7990 C.ar  208  TOP208      0.0363
@<TRIPOS>BOND
     1     7     6    1
     2     5     6    2
     3     5     3    2
     4     6     8    1
     5     4     3    1
     6     3     2    2
     7     8     9    1
     8     8     1    2
     9     9    10    1
    10     2     1    1
    11    10    21   ar
    12    10    11   ar
    13    21    18   ar
    14    11    12   ar
    15    18    19    1
    16    18    15   ar
    17    12    15   ar
    18    12    13    1
    19    14    13    1
    20    19    20    1
    21    15    16    1
    22    16    17    1
