@<TRIPOS>MOLECULE
3jw7_TYR_A_1.pdb
 13 13 0 0 0
SMALL
GASTEIGER

@<TRIPOS>ATOM
      1  N        -21.3010  -15.1340   -3.8820 N.3   356  TYR356     -0.1205
      2  CA       -22.6210  -15.4470   -4.4160 C.3   356  TYR356      0.1986
      3  C        -23.5890  -14.2700   -4.2970 C.2   356  TYR356      0.3822
      4  O        -23.1290  -13.1150   -4.4410 O.co2 356  TYR356     -0.2440
      5  CB       -23.1940  -16.6780   -3.7040 C.3   356  TYR356      0.0569
      6  CG       -22.3960  -17.9570   -3.8970 C.ar  356  TYR356     -0.0200
      7  CD1      -22.1740  -18.8230   -2.8290 C.ar  356  TYR356     -0.0009
      8  CD2      -21.9060  -18.3280   -5.1520 C.ar  356  TYR356     -0.0009
      9  CE1      -21.4880  -20.0260   -2.9950 C.ar  356  TYR356      0.0417
     10  CE2      -21.2160  -19.5420   -5.3320 C.ar  356  TYR356      0.0417
     11  CZ       -21.0160  -20.3830   -4.2430 C.ar  356  TYR356      0.1957
     12  OH       -20.3650  -21.5900   -4.3910 O.3   356  TYR356     -0.2866
     13  OXT      -24.7950  -14.5200   -4.0840 O.co2 356  TYR356     -0.2440
@<TRIPOS>BOND
     1    10     8   ar
     2    10    11   ar
     3     8     6   ar
     4     4     3   ar
     5     2     3    1
     6     2     1    1
     7     2     5    1
     8    12    11    1
     9     3    13   ar
    10    11     9   ar
    11     6     5    1
    12     6     7   ar
    13     9     7   ar
