@<TRIPOS>MOLECULE
3jwc_EKB_A_1.pdb
 25 26 0 0 0
SMALL
GASTEIGER

@<TRIPOS>ATOM
      1  N1        42.2530   22.0860    3.6720 N.2   208  EKB208     -0.3105
      2  C2        41.7920   21.3810    4.7220 C.1   208  EKB208      0.2419
      3  N3        41.8710   21.8670    5.9610 N.2   208  EKB208     -0.3332
      4  C4        42.3990   23.0660    6.2150 C.2   208  EKB208      0.1203
      5  C5        42.8780   23.8250    5.1420 C.3   208  EKB208      0.1831
      6  C6        42.7970   23.3040    3.8510 C.2   208  EKB208      0.2282
      7  C1A       41.0730   24.0560    8.0720 C.3   208  EKB208      0.0076
      8  C1B       44.9780   30.8380    9.8050 C.3   208  EKB208      0.2526
      9  C1C       48.2350   24.7380    8.1400 C.3   208  EKB208      0.2526
     10  C1D       46.4780   26.8970   12.0540 C.3   208  EKB208      0.2528
     11  N1E       41.2570   20.1780    4.5550 N.pl3 208  EKB208     -0.0232
     12  N1F       43.2440   24.0070    2.8120 N.pl3 208  EKB208     -0.0955
     13  C1G       43.9300   26.2170    5.6290 C.1   208  EKB208     -0.0854
     14  C1H       43.4490   25.1170    5.3790 C.1   208  EKB208     -0.0760
     15  C1I       45.0460   28.5900    8.2080 C.ar  208  EKB208      0.0370
     16  C1J       46.0980   26.4980    7.6540 C.ar  208  EKB208      0.0370
     17  C1K       42.4320   23.4970    7.6790 C.3   208  EKB208      0.0569
     18  C1L       44.5010   27.5370    5.9620 C.3   208  EKB208      0.1025
     19  O1O       45.5390   29.6290   10.3380 O.3   208  EKB208     -0.4683
     20  O1P       47.6270   25.4700    9.2270 O.3   208  EKB208     -0.4683
     21  O1Q       47.2280   27.5460   10.9780 O.3   208  EKB208     -0.4654
     22  C1S       45.2360   27.5390    7.3150 C.ar  208  EKB208     -0.0030
     23  C1V       45.7170   28.6070    9.4380 C.ar  208  EKB208      0.1752
     24  C1W       46.7770   26.4930    8.8770 C.ar  208  EKB208      0.1752
     25  C1Y       46.5720   27.5470    9.7740 C.ar  208  EKB208      0.2060
@<TRIPOS>BOND
     1    12     6    1
     2     1     6    2
     3     1     2    2
     4     6     5    1
     5    11     2    1
     6     2     3    2
     7     5    14    1
     8     5     4    1
     9    14    13    3
    10    13    18    1
    11     3     4    2
    12    18    22    1
    13     4    17    1
    14    22    16   ar
    15    22    15   ar
    16    16    24   ar
    17    17     7    1
    18     9    20    1
    19    15    23   ar
    20    24    20    1
    21    24    25   ar
    22    23    25   ar
    23    23    19    1
    24    25    21    1
    25     8    19    1
    26    21    10    1
