@<TRIPOS>MOLECULE
3jwc_NAP_A_1.pdb
 48 52 0 0 0
SMALL
GASTEIGER

@<TRIPOS>ATOM
      1  PA        43.0130   34.3560   -0.5490 P.3   207  NAP207      0.2189
      2  O1A       42.3570   33.8140   -1.7590 O.2   207  NAP207     -0.5170
      3  O2A       43.6620   33.2920    0.2470 O.3   207  NAP207     -0.4371
      4  O5B       44.0350   35.5160   -0.9400 O.3   207  NAP207     -0.3112
      5  C5B       43.5120   36.5710   -1.7120 C.3   207  NAP207      0.1813
      6  C4B       44.6830   37.2640   -2.3750 C.3   207  NAP207      0.1820
      7  O4B       45.2160   36.4670   -3.4150 O.3   207  NAP207     -0.3136
      8  C3B       44.3120   38.5750   -3.0310 C.3   207  NAP207      0.2157
      9  O3B       44.2510   39.6100   -2.0930 O.3   207  NAP207     -0.2175
     10  C2B       45.4700   38.7340   -3.9870 C.3   207  NAP207      0.2314
     11  O2B       46.6400   39.1540   -3.3140 O.3   207  NAP207     -0.2630
     12  C1B       45.7200   37.2990   -4.4340 C.3   207  NAP207      0.3158
     13  N9A       45.0110   37.0710   -5.7080 N.pl3 207  NAP207     -0.1439
     14  C8A       43.6660   36.8690   -5.8790 C.3   207  NAP207      0.3377
     15  N7A       43.4260   36.7220   -7.1980 N.2   207  NAP207     -0.2095
     16  C5A       44.5900   36.8350   -7.8740 C.2   207  NAP207      0.2526
     17  C6A       44.9090   36.7720   -9.2220 C.2   207  NAP207      0.4393
     18  N6A       43.9460   36.5580  -10.1130 N.pl3 207  NAP207      0.2180
     19  N1A       46.2230   36.9250   -9.6360 N.2   207  NAP207      0.0021
     20  C2A       47.2140   37.1430   -8.7070 C.3   207  NAP207      0.5254
     21  N3A       46.8840   37.2060   -7.3670 N.2   207  NAP207     -0.0055
     22  C4A       45.5980   37.0580   -6.9530 C.2   207  NAP207      0.3518
     23  O3        41.9610   35.1980    0.3190 O.3   207  NAP207     -0.2703
     24  PN        40.4420   34.8820    0.7140 P.3   207  NAP207      0.2189
     25  O1N       39.9710   36.0250    1.5330 O.3   207  NAP207     -0.4371
     26  O2N       39.7550   34.4850   -0.5520 O.2   207  NAP207     -0.5170
     27  O5D       40.5800   33.5820    1.6620 O.3   207  NAP207     -0.3112
     28  C5D       41.0650   33.7110    2.9790 C.3   207  NAP207      0.1813
     29  C4D       40.0830   33.0840    3.9640 C.3   207  NAP207      0.1799
     30  O4D       39.8630   31.7100    3.6800 O.3   207  NAP207     -0.3327
     31  C3D       40.6280   33.1380    5.3800 C.3   207  NAP207      0.2158
     32  O3D       39.5110   33.3070    6.2340 O.3   207  NAP207     -0.2175
     33  C2D       41.2640   31.7640    5.5570 C.3   207  NAP207      0.2309
     34  O2D       41.3340   31.4060    6.9140 O.3   207  NAP207     -0.2158
     35  C1D       40.2990   30.8950    4.7620 C.3   207  NAP207      0.2263
     36  N1N       40.8480   29.6290    4.2490 N.pl3 207  NAP207     -0.2787
     37  C2N       40.1530   28.4790    4.5160 C.3   207  NAP207      0.1244
     38  C3N       40.6080   27.2470    4.0520 C.2   207  NAP207      0.0544
     39  C7N       39.8870   25.9910    4.4260 C.2   207  NAP207      0.2818
     40  O7N       40.0670   24.8440    3.6290 O.2   207  NAP207     -0.2670
     41  N7N       39.0800   25.9750    5.4830 N.am  207  NAP207     -0.0839
     42  C4N       41.7680   27.1920    3.2770 C.2   207  NAP207      0.0033
     43  C5N       42.4680   28.3700    3.0050 C.2   207  NAP207      0.0157
     44  C6N       41.9950   29.5870    3.4960 C.2   207  NAP207      0.0633
     45  P2B       47.1560   40.6730   -3.2590 P.3   207  NAP207      0.5328
     46  O1X       47.3770   41.2280   -4.6410 O.2   207  NAP207     -0.2224
     47  O2X       46.1150   41.4810   -2.5320 O.3   207  NAP207     -0.1145
     48  O3X       48.4640   40.6720   -2.5120 O.3   207  NAP207     -0.1145
@<TRIPOS>BOND
     1    18    17    1
     2    19    17    2
     3    19    20    1
     4    17    16    1
     5    20    21    1
     6    16    15    2
     7    16    22    1
     8    21    22    2
     9    15    14    1
    10    22    13    1
    11    14    13    1
    12    13    12    1
    13    46    45    2
    14    12    10    1
    15    12     7    1
    16    10    11    1
    17    10     8    1
    18     7     6    1
    19    11    45    1
    20    45    47    1
    21    45    48    1
    22     8     6    1
    23     8     9    1
    24     6     5    1
    25     2     1    2
    26     5     4    1
    27     4     1    1
    28    26    24    2
    29     1     3    1
    30     1    23    1
    31    23    24    1
    32    24    25    1
    33    24    27    1
    34    27    28    1
    35    28    29    1
    36    43    42    1
    37    43    44    2
    38    42    38    2
    39    44    36    1
    40    40    39    2
    41    30    29    1
    42    30    35    1
    43    29    31    1
    44    38    39    1
    45    38    37    1
    46    36    37    1
    47    36    35    1
    48    39    41   am
    49    35    33    1
    50    31    33    1
    51    31    32    1
    52    33    34    1
