@<TRIPOS>MOLECULE
3jwe_F4P_A_1.pdb
 23 25 0 0 0
SMALL
GASTEIGER

@<TRIPOS>ATOM
      1  C12       17.5100    8.8080   50.4480 C.ar  314  F4P314     -0.0003
      2  C16       17.2040    8.8430   52.8650 C.ar  314  F4P314     -0.0003
      3  C17       18.1220    5.7140   52.8080 C.ar  314  F4P314     -0.0003
      4  C21       20.2280    6.3140   53.8450 C.ar  314  F4P314     -0.0003
      5  C13       16.3070    9.4950   50.2760 C.ar  314  F4P314      0.0294
      6  C15       15.9990    9.5290   52.6950 C.ar  314  F4P314      0.0294
      7  C18       17.9760    4.6220   53.6640 C.ar  314  F4P314      0.0294
      8  C20       20.0840    5.2110   54.7080 C.ar  314  F4P314      0.0294
      9  C11       17.9700    8.4790   51.7390 C.ar  314  F4P314     -0.0035
     10  C8        19.2380    6.5770   52.8750 C.ar  314  F4P314     -0.0035
     11  C14       15.5690    9.8470   51.4040 C.ar  314  F4P314      0.1401
     12  C19       18.9560    4.3790   54.6080 C.ar  314  F4P314      0.1401
     13  C1        22.9070   12.0740   52.1910 C.2   314  F4P314      0.3030
     14  C23       22.2350    9.9770   50.9870 C.3   314  F4P314      0.1112
     15  C25       21.7710   10.2120   53.3920 C.3   314  F4P314      0.1112
     16  C22       20.8580    9.3930   50.7720 C.3   314  F4P314      0.0944
     17  C26       20.3530    9.7010   53.1600 C.3   314  F4P314      0.0944
     18  C9        19.2840    7.7350   51.8740 C.3   314  F4P314      0.1031
     19  N24       22.2660   10.8250   52.1730 N.am  314  F4P314     -0.2695
     20  N10       20.4600    8.7000   52.0410 N.3   314  F4P314     -0.2638
     21  O3        23.1210   12.7630   53.1880 O.2   314  F4P314     -0.2649
     22  F28       14.4230   10.5090   51.2350 F     314  F4P314     -0.2042
     23  F27       18.7810    3.3120   55.4200 F     314  F4P314     -0.2042
@<TRIPOS>BOND
     1     5     1   ar
     2     5    11   ar
     3     1     9   ar
     4    16    14    1
     5    16    20    1
     6    14    19    1
     7    22    11    1
     8    11     6   ar
     9     9    18    1
    10     9     2   ar
    11    18    20    1
    12    18    10    1
    13    20    17    1
    14    19    13   am
    15    19    15    1
    16    13    21    2
    17     6     2   ar
    18     3    10   ar
    19     3     7   ar
    20    10     4   ar
    21    17    15    1
    22     7    12   ar
    23     4     8   ar
    24    12     8   ar
    25    12    23    1
