@<TRIPOS>MOLECULE
3jwf_NAP_A_1.pdb
 48 52 0 0 0
SMALL
GASTEIGER

@<TRIPOS>ATOM
      1  PA        34.3930   43.0090   -0.5330 P.3   207  NAP207      0.2189
      2  O1A       33.8080   42.2890    0.6200 O.3   207  NAP207     -0.4371
      3  O2A       33.3650   43.7270   -1.3100 O.2   207  NAP207     -0.5170
      4  O5B       35.5440   44.0130   -0.0380 O.3   207  NAP207     -0.3112
      5  C5B       36.6070   43.4900    0.7320 C.3   207  NAP207      0.1813
      6  C4B       37.3580   44.6660    1.3260 C.3   207  NAP207      0.1820
      7  O4B       36.6090   45.2460    2.3760 O.3   207  NAP207     -0.3136
      8  C3B       38.6940   44.2970    1.9400 C.3   207  NAP207      0.2157
      9  O3B       39.7080   44.2490    0.9710 O.3   207  NAP207     -0.2175
     10  C2B       38.8920   45.4490    2.8900 C.3   207  NAP207      0.2314
     11  O2B       39.2890   46.5770    2.1550 O.3   207  NAP207     -0.2630
     12  C1B       37.4780   45.7260    3.3780 C.3   207  NAP207      0.3158
     13  N9A       37.2410   45.0510    4.6730 N.pl3 207  NAP207     -0.1439
     14  C8A       37.0610   43.7110    4.8880 C.3   207  NAP207      0.3377
     15  N7A       36.8950   43.5130    6.2120 N.2   207  NAP207     -0.2095
     16  C5A       36.9690   44.7000    6.8470 C.2   207  NAP207      0.2526
     17  C6A       36.8700   45.0620    8.1830 C.2   207  NAP207      0.4393
     18  N6A       36.6540   44.1370    9.1090 N.pl3 207  NAP207      0.2180
     19  N1A       36.9920   46.3920    8.5490 N.2   207  NAP207      0.0021
     20  C2A       37.2100   47.3540    7.5820 C.3   207  NAP207      0.5254
     21  N3A       37.3060   46.9810    6.2570 N.2   207  NAP207     -0.0055
     22  C4A       37.1890   45.6780    5.8930 C.2   207  NAP207      0.3518
     23  O3        35.2450   41.9950   -1.4480 O.3   207  NAP207     -0.2703
     24  PN        34.9670   40.4710   -1.8620 P.3   207  NAP207      0.2189
     25  O1N       36.1200   39.9870   -2.6530 O.2   207  NAP207     -0.5170
     26  O2N       34.5610   39.7580   -0.6270 O.3   207  NAP207     -0.4371
     27  O5D       33.6600   40.5800   -2.8080 O.3   207  NAP207     -0.3112
     28  C5D       33.6840   41.1890   -4.0770 C.3   207  NAP207      0.1813
     29  C4D       33.0910   40.2230   -5.0990 C.3   207  NAP207      0.1799
     30  O4D       31.7300   39.9030   -4.8440 O.3   207  NAP207     -0.3327
     31  C3D       33.1180   40.8150   -6.4910 C.3   207  NAP207      0.2158
     32  O3D       33.3150   39.7280   -7.3700 O.3   207  NAP207     -0.2175
     33  C2D       31.7300   41.3840   -6.6640 C.3   207  NAP207      0.2309
     34  O2D       31.3760   41.4300   -8.0230 O.3   207  NAP207     -0.2158
     35  C1D       30.8940   40.3820   -5.8920 C.3   207  NAP207      0.2263
     36  N1N       29.6250   40.9210   -5.3510 N.pl3 207  NAP207     -0.2787
     37  C2N       28.4730   40.2470   -5.6580 C.3   207  NAP207      0.1244
     38  C3N       27.2410   40.6730   -5.1730 C.2   207  NAP207      0.0544
     39  C7N       26.0130   39.8650   -5.4770 C.2   207  NAP207      0.2818
     40  O7N       24.8120   40.1480   -4.7930 O.2   207  NAP207     -0.2670
     41  N7N       26.0800   38.8950   -6.3890 N.am  207  NAP207     -0.0839
     42  C4N       27.1820   41.7970   -4.3470 C.2   207  NAP207      0.0033
     43  C5N       28.3590   42.4770   -4.0330 C.2   207  NAP207      0.0157
     44  C6N       29.5790   42.0280   -4.5400 C.2   207  NAP207      0.0633
     45  P2B       40.7850   47.1490    2.1540 P.3   207  NAP207      0.5328
     46  O1X       41.2060   47.4380    3.5720 O.3   207  NAP207     -0.1145
     47  O2X       41.6940   46.1120    1.5450 O.3   207  NAP207     -0.1145
     48  O3X       40.8010   48.4040    1.3250 O.2   207  NAP207     -0.2224
@<TRIPOS>BOND
     1    34    33    1
     2    32    31    1
     3    33    31    1
     4    33    35    1
     5    31    29    1
     6    41    39   am
     7    35    36    1
     8    35    30    1
     9    37    36    1
    10    37    38    1
    11    39    38    1
    12    39    40    2
    13    36    44    1
    14    38    42    2
    15    29    30    1
    16    29    28    1
    17    44    43    2
    18    42    43    1
    19    28    27    1
    20    27    24    1
    21    25    24    2
    22    24    23    1
    23    24    26    1
    24    23     1    1
    25     3     1    2
    26     1     4    1
    27     1     2    1
    28     4     5    1
    29     5     6    1
    30     9     8    1
    31    48    45    2
    32     6     8    1
    33     6     7    1
    34    47    45    1
    35     8    10    1
    36    45    11    1
    37    45    46    1
    38    11    10    1
    39     7    12    1
    40    10    12    1
    41    12    13    1
    42    13    14    1
    43    13    22    1
    44    14    15    1
    45    22    21    2
    46    22    16    1
    47    15    16    2
    48    21    20    1
    49    16    17    1
    50    20    19    1
    51    17    19    2
    52    17    18    1
