@<TRIPOS>MOLECULE
3jwf_5WA_A_1.pdb
 25 26 0 0 0
SMALL
GASTEIGER

@<TRIPOS>ATOM
      1  N1        21.7410   41.9440   -7.0070 N.2   208  5WA208     -0.3332
      2  C2        21.2970   41.9260   -5.7440 C.1   208  5WA208      0.2419
      3  N3        22.0590   42.4050   -4.7430 N.2   208  5WA208     -0.3105
      4  C4        23.2790   42.9060   -4.9870 C.2   208  5WA208      0.2282
      5  C5        23.7680   42.9240   -6.2910 C.3   208  5WA208      0.1832
      6  C6        22.9550   42.4210   -7.3100 C.2   208  5WA208      0.1207
      7  C1A       24.8090   48.1360   -9.3820 C.3   208  5WA208      0.2526
      8  C1B       30.8850   44.8640  -10.9430 C.3   208  5WA208      0.2526
      9  C1C       26.8190   46.3120  -13.2050 C.3   208  5WA208      0.2528
     10  C1D       23.4080   42.4000   -8.7780 C.3   208  5WA208      0.0641
     11  N1E       20.0860   41.4320   -5.4990 N.pl3 208  5WA208     -0.0232
     12  N1F       24.0190   43.3680   -3.9830 N.pl3 208  5WA208     -0.0955
     13  O1G       27.8670   45.3800   -6.0600 O.3   208  5WA208     -0.2038
     14  C1H       25.0770   43.4480   -6.5690 C.1   208  5WA208     -0.0736
     15  C1I       26.2000   43.8990   -6.8080 C.1   208  5WA208     -0.0536
     16  C1J       26.5550   46.0440   -8.8180 C.ar  208  5WA208      0.0394
     17  C1K       28.5830   44.8610   -9.3680 C.ar  208  5WA208      0.0394
     18  O1N       25.5900   47.5640  -10.4530 O.3   208  5WA208     -0.4683
     19  O1O       29.6140   45.2060  -11.5260 O.3   208  5WA208     -0.4683
     20  O1P       27.6180   46.9930  -12.2090 O.3   208  5WA208     -0.4654
     21  C1U       27.5590   45.1400   -8.4610 C.ar  208  5WA208      0.0264
     22  C1V       26.5680   46.6720  -10.0730 C.ar  208  5WA208      0.1752
     23  C1W       28.6170   45.4820  -10.6250 C.ar  208  5WA208      0.1752
     24  C1X       27.5980   46.3790  -10.9810 C.ar  208  5WA208      0.2060
     25  C1Y       27.5440   44.4440   -7.0860 C.3   208  5WA208      0.2376
@<TRIPOS>BOND
     1     9    20    1
     2    20    24    1
     3    19     8    1
     4    19    23    1
     5    24    23   ar
     6    24    22   ar
     7    23    17   ar
     8    18    22    1
     9    18     7    1
    10    22    16   ar
    11    17    21   ar
    12    16    21   ar
    13    10     6    1
    14    21    25    1
    15     6     1    2
    16     6     5    1
    17    25    15    1
    18    25    13    1
    19     1     2    2
    20    15    14    3
    21    14     5    1
    22     5     4    1
    23     2    11    1
    24     2     3    2
    25     4     3    2
    26     4    12    1
