@<TRIPOS>MOLECULE
3jwh_SAH_A_1.pdb
 26 28 0 0 0
SMALL
GASTEIGER

@<TRIPOS>ATOM
      1  N         -7.6270   -7.6700  -40.5350 N.3     1  SAH1       -0.1208
      2  CA        -7.3600   -8.5250  -39.3680 C.3     1  SAH1        0.1952
      3  CB        -7.1550   -9.9680  -39.8330 C.3     1  SAH1        0.0422
      4  CG        -8.3780  -10.4570  -40.6090 C.3     1  SAH1        0.0597
      5  SD        -8.2160  -12.1560  -41.2720 S.3     1  SAH1       -0.1375
      6  C         -6.0890   -8.0490  -38.6620 C.2     1  SAH1        0.3819
      7  O         -5.0230   -8.6110  -38.9930 O.co2   1  SAH1       -0.2441
      8  OXT       -6.2140   -7.1400  -37.8110 O.co2   1  SAH1       -0.2441
      9  C5'       -9.6460  -12.1050  -42.4110 C.3     1  SAH1        0.0899
     10  C4'      -10.8810  -11.5190  -41.7240 C.3     1  SAH1        0.1630
     11  O4'      -11.8840  -11.2600  -42.7220 O.3     1  SAH1       -0.3153
     12  C3'      -11.4740  -12.5320  -40.7400 C.3     1  SAH1        0.2168
     13  O3'      -11.9990  -11.8520  -39.5970 O.3     1  SAH1       -0.2175
     14  C2'      -12.6070  -13.1340  -41.5710 C.3     1  SAH1        0.2569
     15  O2'      -13.6230  -13.6270  -40.6930 O.3     1  SAH1       -0.2130
     16  C1'      -13.1000  -11.8580  -42.2500 C.3     1  SAH1        0.3185
     17  N9       -13.9750  -12.1450  -43.4070 N.pl3   1  SAH1       -0.1439
     18  C8       -13.7290  -13.0320  -44.3680 C.3     1  SAH1        0.3377
     19  N7       -14.7110  -13.0010  -45.2650 N.2     1  SAH1       -0.2095
     20  C5       -15.5930  -12.0870  -44.8740 C.2     1  SAH1        0.2526
     21  C6       -16.7940  -11.6210  -45.3840 C.2     1  SAH1        0.4393
     22  N6       -17.2890  -12.1270  -46.5130 N.pl3   1  SAH1        0.2180
     23  N1       -17.4540  -10.6680  -44.7220 N.2     1  SAH1        0.0021
     24  C2       -16.9770  -10.1670  -43.5900 C.3     1  SAH1        0.5254
     25  N3       -15.8390  -10.5880  -43.0750 N.2     1  SAH1       -0.0055
     26  C4       -15.1240  -11.5410  -43.6860 C.2     1  SAH1        0.3518
@<TRIPOS>BOND
     1    22    21    1
     2    21    20    1
     3    21    23    2
     4    19    20    2
     5    19    18    1
     6    20    26    1
     7    23    24    1
     8    18    17    1
     9    26    17    1
    10    26    25    2
    11    24    25    1
    12    17    16    1
    13    11    16    1
    14    11    10    1
    15     9    10    1
    16     9     5    1
    17    16    14    1
    18    10    12    1
    19    14    12    1
    20    14    15    1
    21     5     4    1
    22    12    13    1
    23     4     3    1
    24     1     2    1
    25     3     2    1
    26     2     6    1
    27     7     6   ar
    28     6     8   ar
