@<TRIPOS>MOLECULE
3jwk_5WB_A_1.pdb
 26 27 0 0 0
SMALL
GASTEIGER

@<TRIPOS>ATOM
      1  N1        -3.2520  -16.9780   -5.9940 N.2   208  5WB208     -0.3332
      2  C2        -3.0790  -17.4220   -4.7340 C.1   208  5WB208      0.2419
      3  N3        -3.5390  -16.7170   -3.6890 N.2   208  5WB208     -0.3105
      4  C4        -4.1910  -15.5430   -3.8780 C.2   208  5WB208      0.2282
      5  C5        -4.3740  -15.0720   -5.1750 C.3   208  5WB208      0.1832
      6  C6        -3.8820  -15.8260   -6.2420 C.2   208  5WB208      0.1207
      7  C1A       -9.5160  -15.1340   -7.9110 C.3   208  5WB208      0.2526
      8  C1B       -6.8060   -8.8130  -10.0670 C.3   208  5WB208      0.2526
      9  C1C      -10.6460  -12.2760  -10.7590 C.3   208  5WB208      0.2528
     10  C1D       -4.2690  -10.5900   -7.0090 C.3   208  5WB208      0.1757
     11  C1E       -4.0630  -15.3500   -7.6920 C.3   208  5WB208      0.0641
     12  N1F       -2.4460  -18.5800   -4.5430 N.pl3 208  5WB208     -0.0232
     13  N1G       -4.6450  -14.8330   -2.8420 N.pl3 208  5WB208     -0.0955
     14  C1H       -5.0570  -13.8410   -5.4330 C.1   208  5WB208     -0.0737
     15  C1I       -5.6250  -12.8060   -5.6830 C.1   208  5WB208     -0.0567
     16  C1J       -7.9570  -12.8810   -7.5110 C.ar  208  5WB208      0.0393
     17  C1K       -6.9700  -10.8550   -8.3590 C.ar  208  5WB208      0.0393
     18  O1N       -9.4910  -14.1180   -8.9270 O.3   208  5WB208     -0.4683
     19  O1O       -7.4740  -10.0290  -10.5270 O.3   208  5WB208     -0.4683
     20  O1P       -9.1890  -12.2610  -10.9220 O.3   208  5WB208     -0.4654
     21  O1Q       -5.4460  -10.3830   -6.1990 O.3   208  5WB208     -0.3368
     22  C1U       -7.1030  -11.7890   -7.3400 C.ar  208  5WB208      0.0232
     23  C1W       -8.6500  -13.0510   -8.7170 C.ar  208  5WB208      0.1752
     24  C1X       -7.6530  -10.9920   -9.5590 C.ar  208  5WB208      0.1752
     25  C1Y       -8.5030  -12.1020   -9.7410 C.ar  208  5WB208      0.2060
     26  C1Z       -6.3160  -11.5540   -6.0380 C.3   208  5WB208      0.2014
@<TRIPOS>BOND
     1    20     9    1
     2    20    25    1
     3    19     8    1
     4    19    24    1
     5    25    24   ar
     6    25    23   ar
     7    24    17   ar
     8    18    23    1
     9    18     7    1
    10    23    16   ar
    11    17    22   ar
    12    11     6    1
    13    16    22   ar
    14    22    26    1
    15    10    21    1
    16     6     1    2
    17     6     5    1
    18    21    26    1
    19    26    15    1
    20     1     2    2
    21    15    14    3
    22    14     5    1
    23     5     4    1
    24     2    12    1
    25     2     3    2
    26     4     3    2
    27     4    13    1
