@<TRIPOS>MOLECULE
3jwk_NAP_A_1.pdb
 48 52 0 0 0
SMALL
GASTEIGER

@<TRIPOS>ATOM
      1  PA        -4.1260   -4.5030    0.4680 P.3   207  NAP207      0.2189
      2  O1A       -3.4390   -5.1240    1.6210 O.3   207  NAP207     -0.4371
      3  O2A       -4.8690   -5.4380   -0.3870 O.2   207  NAP207     -0.5170
      4  O5B       -5.1070   -3.3420    0.9510 O.3   207  NAP207     -0.3112
      5  C5B       -4.6010   -2.1780    1.5480 C.3   207  NAP207      0.1813
      6  C4B       -5.7760   -1.5350    2.2490 C.3   207  NAP207      0.1820
      7  O4B       -6.2380   -2.3770    3.2890 O.3   207  NAP207     -0.3136
      8  C3B       -5.4280   -0.2220    2.9150 C.3   207  NAP207      0.2157
      9  O3B       -5.3850    0.8140    1.9620 O.3   207  NAP207     -0.2175
     10  C2B       -6.5820   -0.1230    3.8980 C.3   207  NAP207      0.2314
     11  O2B       -7.7640    0.3080    3.2440 O.3   207  NAP207     -0.2630
     12  C1B       -6.7590   -1.5840    4.3320 C.3   207  NAP207      0.3158
     13  N9A       -6.0060   -1.7640    5.5840 N.pl3 207  NAP207     -0.1439
     14  C8A       -4.6470   -1.9360    5.7380 C.3   207  NAP207      0.3377
     15  N7A       -4.3690   -2.0290    7.0590 N.2   207  NAP207     -0.2095
     16  C5A       -5.5290   -1.9100    7.7490 C.2   207  NAP207      0.2526
     17  C6A       -5.8350   -1.9280    9.0970 C.2   207  NAP207      0.4393
     18  N6A       -4.8880   -2.0900   10.0170 N.pl3 207  NAP207      0.2180
     19  N1A       -7.1400   -1.7830    9.4910 N.2   207  NAP207      0.0021
     20  C2A       -8.1500   -1.6170    8.5790 C.3   207  NAP207      0.5254
     21  N3A       -7.8420   -1.6000    7.2400 N.2   207  NAP207     -0.0055
     22  C4A       -6.5600   -1.7370    6.8320 C.2   207  NAP207      0.3518
     23  O3        -3.0610   -3.6420   -0.3690 O.3   207  NAP207     -0.2703
     24  PN        -1.5470   -3.8940   -0.7960 P.3   207  NAP207      0.2189
     25  O1N       -1.1670   -2.7390   -1.6570 O.2   207  NAP207     -0.5170
     26  O2N       -0.7430   -4.2810    0.3750 O.3   207  NAP207     -0.4371
     27  O5D       -1.7110   -5.2060   -1.7370 O.3   207  NAP207     -0.3112
     28  C5D       -2.1750   -5.0680   -3.0680 C.3   207  NAP207      0.1813
     29  C4D       -1.2170   -5.7610   -4.0260 C.3   207  NAP207      0.1799
     30  O4D       -1.0760   -7.1210   -3.6580 O.3   207  NAP207     -0.3327
     31  C3D       -1.7250   -5.7590   -5.4610 C.3   207  NAP207      0.2158
     32  O3D       -0.5970   -5.6660   -6.3100 O.3   207  NAP207     -0.2175
     33  C2D       -2.3300   -7.1370   -5.6390 C.3   207  NAP207      0.2309
     34  O2D       -2.2640   -7.5520   -6.9810 O.3   207  NAP207     -0.2158
     35  C1D       -1.3930   -7.9610   -4.7760 C.3   207  NAP207      0.2263
     36  N1N       -1.9700   -9.2350   -4.3070 N.pl3 207  NAP207     -0.2787
     37  C2N       -1.3130  -10.3840   -4.6430 C.3   207  NAP207      0.1244
     38  C3N       -1.7910  -11.6160   -4.2100 C.2   207  NAP207      0.0544
     39  C7N       -0.9700  -12.8330   -4.4820 C.2   207  NAP207      0.2818
     40  O7N       -1.2390  -13.9800   -3.7540 O.2   207  NAP207     -0.2670
     41  N7N       -0.0120  -12.8170   -5.4040 N.am  207  NAP207     -0.0839
     42  C4N       -2.9490  -11.6860   -3.4180 C.2   207  NAP207      0.0033
     43  C5N       -3.6140  -10.4970   -3.0900 C.2   207  NAP207      0.0157
     44  C6N       -3.1170   -9.2770   -3.5390 C.2   207  NAP207      0.0633
     45  P2B       -8.2750    1.8330    3.2010 P.3   207  NAP207      0.5328
     46  O1X       -8.4090    2.3210    4.6240 O.3   207  NAP207     -0.1145
     47  O2X       -7.2470    2.6420    2.4240 O.2   207  NAP207     -0.2224
     48  O3X       -9.5830    1.8300    2.4730 O.3   207  NAP207     -0.1145
@<TRIPOS>BOND
     1    34    33    1
     2    32    31    1
     3    33    31    1
     4    33    35    1
     5    31    29    1
     6    41    39   am
     7    35    36    1
     8    35    30    1
     9    37    36    1
    10    37    38    1
    11    39    38    1
    12    39    40    2
    13    36    44    1
    14    38    42    2
    15    29    30    1
    16    29    28    1
    17    44    43    2
    18    42    43    1
    19    28    27    1
    20    27    24    1
    21    25    24    2
    22    24    23    1
    23    24    26    1
    24     3     1    2
    25    23     1    1
    26     1     4    1
    27     1     2    1
    28     4     5    1
    29     5     6    1
    30     9     8    1
    31     6     8    1
    32     6     7    1
    33    47    45    2
    34    48    45    1
    35     8    10    1
    36    45    11    1
    37    45    46    1
    38    11    10    1
    39     7    12    1
    40    10    12    1
    41    12    13    1
    42    13    14    1
    43    13    22    1
    44    14    15    1
    45    22    21    2
    46    22    16    1
    47    15    16    2
    48    21    20    1
    49    16    17    1
    50    20    19    1
    51    17    19    2
    52    17    18    1
