@<TRIPOS>MOLECULE
3jwm_5WB_A_1.pdb
 26 27 0 0 0
SMALL
GASTEIGER

@<TRIPOS>ATOM
      1  N1        42.0640   21.9180    5.5030 N.2   208  5WB208     -0.3332
      2  C2        41.8740   21.4670    4.2620 C.1   208  5WB208      0.2419
      3  N3        42.3710   22.1360    3.2090 N.2   208  5WB208     -0.3105
      4  C4        43.0660   23.2710    3.3740 C.2   208  5WB208      0.2282
      5  C5        43.2730   23.7560    4.6600 C.3   208  5WB208      0.1832
      6  C6        42.7470   23.0450    5.7390 C.2   208  5WB208      0.1207
      7  C1A       48.2800   23.4370    8.1630 C.3   208  5WB208      0.2526
      8  C1B       46.0170   29.6710    9.7750 C.3   208  5WB208      0.2526
      9  C1C       49.7460   26.7730   10.0180 C.3   208  5WB208      0.2528
     10  C1D       43.3270   28.2660    6.2530 C.3   208  5WB208      0.1757
     11  C1E       42.9330   23.5180    7.1860 C.3   208  5WB208      0.0641
     12  N1F       41.1940   20.3420    4.0830 N.pl3 208  5WB208     -0.0232
     13  N1G       43.5460   23.9290    2.3270 N.pl3 208  5WB208     -0.0955
     14  C1H       44.0090   24.9620    4.8630 C.1   208  5WB208     -0.0737
     15  C1I       44.6290   25.9800    5.0620 C.1   208  5WB208     -0.0567
     16  C1J       47.1490   25.9740    6.6830 C.ar  208  5WB208      0.0393
     17  C1K       45.9420   27.7330    7.7900 C.ar  208  5WB208      0.0393
     18  O1N       48.8320   24.7520    7.8700 O.3   208  5WB208     -0.4683
     19  O1O       46.4110   28.2890   10.0820 O.3   208  5WB208     -0.4683
     20  O1P       48.3860   26.2430   10.1130 O.3   208  5WB208     -0.4654
     21  O1Q       44.5030   28.4000    5.4340 O.3   208  5WB208     -0.3368
     22  C1U       46.1760   26.9690    6.6470 C.ar  208  5WB208      0.0232
     23  C1W       47.8770   25.7340    7.8480 C.ar  208  5WB208      0.1752
     24  C1X       46.6670   27.5130    8.9690 C.ar  208  5WB208      0.1752
     25  C1Y       47.6450   26.5020    8.9900 C.ar  208  5WB208      0.2060
     26  C1Z       45.3750   27.2150    5.3540 C.3   208  5WB208      0.2014
@<TRIPOS>BOND
     1    13     4    1
     2     3     4    2
     3     3     2    2
     4     4     5    1
     5    12     2    1
     6     2     1    2
     7     5    14    1
     8     5     6    1
     9    14    15    3
    10    15    26    1
    11    26    21    1
    12    26    22    1
    13    21    10    1
    14     1     6    2
    15     6    11    1
    16    22    16   ar
    17    22    17   ar
    18    16    23   ar
    19    17    24   ar
    20    23    18    1
    21    23    25   ar
    22    18     7    1
    23    24    25   ar
    24    24    19    1
    25    25    20    1
    26     8    19    1
    27     9    20    1
