@<TRIPOS>MOLECULE
3jwm_NAP_A_1.pdb
 48 52 0 0 0
SMALL
GASTEIGER

@<TRIPOS>ATOM
      1  PA        43.0260   34.3930   -0.9690 P.3   207  NAP207      0.2189
      2  O1A       42.3120   33.7260   -2.0820 O.2   207  NAP207     -0.5170
      3  O2A       43.8200   33.4400   -0.1600 O.3   207  NAP207     -0.4371
      4  O5B       43.9830   35.5690   -1.4860 O.3   207  NAP207     -0.3112
      5  C5B       43.4440   36.6210   -2.2510 C.3   207  NAP207      0.1813
      6  C4B       44.6420   37.3480   -2.8160 C.3   207  NAP207      0.1820
      7  O4B       45.2310   36.5340   -3.8090 O.3   207  NAP207     -0.3136
      8  C3B       44.3280   38.6590   -3.5090 C.3   207  NAP207      0.2157
      9  O3B       44.2610   39.7260   -2.6050 O.3   207  NAP207     -0.2175
     10  C2B       45.5080   38.7730   -4.4470 C.3   207  NAP207      0.2314
     11  O2B       46.6670   39.1640   -3.7480 O.3   207  NAP207     -0.2630
     12  C1B       45.7490   37.3300   -4.8490 C.3   207  NAP207      0.3158
     13  N9A       45.0280   37.0880   -6.1050 N.pl3 207  NAP207     -0.1439
     14  C8A       43.6880   36.8650   -6.2630 C.3   207  NAP207      0.3377
     15  N7A       43.4370   36.7090   -7.5760 N.2   207  NAP207     -0.2095
     16  C5A       44.5950   36.8390   -8.2590 C.2   207  NAP207      0.2526
     17  C6A       44.9020   36.7740   -9.6050 C.2   207  NAP207      0.4393
     18  N6A       43.9350   36.5430  -10.4830 N.pl3 207  NAP207      0.2180
     19  N1A       46.2110   36.9460  -10.0260 N.2   207  NAP207      0.0021
     20  C2A       47.2070   37.1750   -9.0980 C.3   207  NAP207      0.5254
     21  N3A       46.8890   37.2420   -7.7590 N.2   207  NAP207     -0.0055
     22  C4A       45.6070   37.0820   -7.3480 C.2   207  NAP207      0.3518
     23  O3        41.9800   35.2480   -0.0860 O.3   207  NAP207     -0.2703
     24  PN        40.4530   34.9710    0.2920 P.3   207  NAP207      0.2189
     25  O1N       39.9660   36.1350    1.0670 O.3   207  NAP207     -0.4371
     26  O2N       39.7350   34.5600   -0.9430 O.2   207  NAP207     -0.5170
     27  O5D       40.5580   33.6780    1.2500 O.3   207  NAP207     -0.3112
     28  C5D       41.0350   33.8100    2.5660 C.3   207  NAP207      0.1813
     29  C4D       40.0960   33.1090    3.5400 C.3   207  NAP207      0.1799
     30  O4D       39.9130   31.7390    3.1990 O.3   207  NAP207     -0.3327
     31  C3D       40.7030   33.1360    4.9290 C.3   207  NAP207      0.2158
     32  O3D       39.6560   33.3530    5.8410 O.3   207  NAP207     -0.2175
     33  C2D       41.2750   31.7390    5.1110 C.3   207  NAP207      0.2309
     34  O2D       41.2830   31.3310    6.4610 O.3   207  NAP207     -0.2158
     35  C1D       40.3220   30.9050    4.2760 C.3   207  NAP207      0.2263
     36  N1N       40.9350   29.6390    3.8330 N.pl3 207  NAP207     -0.2787
     37  C2N       40.2490   28.4820    4.1170 C.3   207  NAP207      0.1244
     38  C3N       40.7410   27.2340    3.7490 C.2   207  NAP207      0.0544
     39  C7N       39.9380   25.9980    4.0480 C.2   207  NAP207      0.2818
     40  O7N       40.2810   24.7820    3.4210 O.2   207  NAP207     -0.2670
     41  N7N       38.9000   26.0660    4.8970 N.am  207  NAP207     -0.0839
     42  C4N       41.9570   27.1710    3.0710 C.2   207  NAP207      0.0033
     43  C5N       42.6560   28.3510    2.7830 C.2   207  NAP207      0.0157
     44  C6N       42.1410   29.5940    3.1700 C.2   207  NAP207      0.0633
     45  P2B       47.1980   40.6750   -3.7490 P.3   207  NAP207      0.5328
     46  O1X       47.3170   41.1550   -5.1770 O.2   207  NAP207     -0.2224
     47  O2X       46.1850   41.5140   -3.0180 O.3   207  NAP207     -0.1145
     48  O3X       48.5150   40.7030   -3.0230 O.3   207  NAP207     -0.1145
@<TRIPOS>BOND
     1    18    17    1
     2    19    17    2
     3    19    20    1
     4    17    16    1
     5    20    21    1
     6    16    15    2
     7    16    22    1
     8    21    22    2
     9    15    14    1
    10    22    13    1
    11    14    13    1
    12    13    12    1
    13    46    45    2
    14    12    10    1
    15    12     7    1
    16    10    11    1
    17    10     8    1
    18     7     6    1
    19    45    11    1
    20    45    48    1
    21    45    47    1
    22     8     6    1
    23     8     9    1
    24     6     5    1
    25     5     4    1
    26     2     1    2
    27     4     1    1
    28     1     3    1
    29     1    23    1
    30    26    24    2
    31    23    24    1
    32    24    25    1
    33    24    27    1
    34    27    28    1
    35    28    29    1
    36    43    42    1
    37    43    44    2
    38    42    38    2
    39    44    36    1
    40    30    29    1
    41    30    35    1
    42    40    39    2
    43    29    31    1
    44    38    39    1
    45    38    37    1
    46    36    37    1
    47    36    35    1
    48    39    41   am
    49    35    33    1
    50    31    33    1
    51    31    32    1
    52    33    34    1
