@<TRIPOS>MOLECULE
3jwp_AMP_A_1.pdb
 23 25 0 0 0
SMALL
GASTEIGER

@<TRIPOS>ATOM
      1  P        -42.1460   16.7360  -14.2920 P.3   266  AMP266      0.5327
      2  O1P      -41.1360   17.5590  -15.0530 O.2   266  AMP266     -0.2224
      3  O2P      -41.9370   16.7230  -12.7890 O.3   266  AMP266     -0.1145
      4  O3P      -43.5730   16.9700  -14.7370 O.3   266  AMP266     -0.1145
      5  O5'      -41.8630   15.2200  -14.7090 O.3   266  AMP266     -0.2675
      6  C5'      -40.7770   14.4930  -14.1540 C.3   266  AMP266      0.1860
      7  C4'      -40.6350   13.2100  -14.9530 C.3   266  AMP266      0.1823
      8  O4'      -39.2850   12.7920  -14.8950 O.3   266  AMP266     -0.3135
      9  C3'      -41.4790   12.0540  -14.4410 C.3   266  AMP266      0.2184
     10  O3'      -42.2910   11.5510  -15.5080 O.3   266  AMP266     -0.2174
     11  C2'      -40.4760   11.0180  -13.9580 C.3   266  AMP266      0.2570
     12  O2'      -40.8810    9.6780  -14.2340 O.3   266  AMP266     -0.2130
     13  C1'      -39.2280   11.3770  -14.7350 C.3   266  AMP266      0.3186
     14  N9       -37.9240   11.0660  -14.1040 N.pl3 266  AMP266     -0.1439
     15  C8       -37.5500   11.1850  -12.8040 C.3   266  AMP266      0.3377
     16  N7       -36.2410   10.8360  -12.6480 N.2   266  AMP266     -0.2095
     17  C5       -35.7710   10.5030  -13.8680 C.2   266  AMP266      0.2526
     18  C6       -34.4910   10.0460  -14.4460 C.2   266  AMP266      0.4393
     19  N6       -33.4040    9.8560  -13.6760 N.pl3 266  AMP266      0.2180
     20  N1       -34.4440    9.8180  -15.7800 N.2   266  AMP266      0.0021
     21  C2       -35.5040    9.9880  -16.5950 C.3   266  AMP266      0.5254
     22  N3       -36.6940   10.3980  -16.1370 N.2   266  AMP266     -0.0055
     23  C4       -36.8810   10.6660  -14.8200 C.2   266  AMP266      0.3518
@<TRIPOS>BOND
     1    21    22    1
     2    21    20    1
     3    22    23    2
     4    20    18    2
     5    10     9    1
     6     2     1    2
     7     7     8    1
     8     7     9    1
     9     7     6    1
    10     8    13    1
    11    23    14    1
    12    23    17    1
    13     4     1    1
    14    13    14    1
    15    13    11    1
    16     5     1    1
    17     5     6    1
    18    18    17    1
    19    18    19    1
    20     9    11    1
    21     1     3    1
    22    12    11    1
    23    14    15    1
    24    17    16    2
    25    15    16    1
