@<TRIPOS>MOLECULE
3jwq_VIA_A_1.pdb
 33 36 0 0 0
SMALL
GASTEIGER

@<TRIPOS>ATOM
      1  C34      -12.3870  -29.3570   39.4640 C.3   901  VIA901      0.0004
      2  C33      -12.6090  -28.8860   40.9210 C.3   901  VIA901      0.0064
      3  C32      -11.8040  -27.6220   41.2620 C.3   901  VIA901      0.0498
      4  C30      -12.1880  -27.1720   42.6510 C.2   901  VIA901      0.1051
      5  N29      -13.2360  -26.4230   42.9280 N.2   901  VIA901     -0.1827
      6  N28      -13.3020  -26.2320   44.1530 N.pl3 901  VIA901     -0.2099
      7  C31      -14.3700  -25.3910   44.8340 C.3   901  VIA901      0.1358
      8  C24      -12.3150  -26.8350   44.8380 C.3   901  VIA901      0.2631
      9  C23      -11.9600  -26.9300   46.1970 C.1   901  VIA901      0.2168
     10  O27      -12.5780  -26.3670   47.1120 O.2   901  VIA901     -0.2113
     11  N22      -10.8560  -27.6820   46.5120 N.2   901  VIA901     -0.2682
     12  C21      -10.1040  -28.3390   45.5220 C.1   901  VIA901      0.1525
     13  N26      -10.4550  -28.2220   44.2270 N.2   901  VIA901     -0.3394
     14  C25      -11.5500  -27.4820   43.8680 C.2   901  VIA901      0.1728
     15  C9        -8.9600  -29.0150   45.9480 C.ar  901  VIA901      0.1215
     16  C8        -7.7480  -28.8350   45.2820 C.ar  901  VIA901      0.0350
     17  C7        -6.5890  -29.4620   45.7350 C.ar  901  VIA901      0.1231
     18  C6        -6.6330  -30.2520   46.8660 C.ar  901  VIA901      0.0231
     19  C5        -7.8370  -30.4080   47.5390 C.ar  901  VIA901      0.0390
     20  C4        -8.9910  -29.7870   47.0950 C.ar  901  VIA901      0.1499
     21  O3       -10.1880  -29.9250   47.7290 O.3   901  VIA901     -0.4747
     22  C2       -10.3260  -30.9780   48.7000 C.3   901  VIA901      0.2056
     23  C1       -11.5550  -30.5550   49.5080 C.3   901  VIA901      0.0512
     24  S10       -5.0320  -29.2730   44.9450 S.O2  901  VIA901      0.0634
     25  O11       -4.8040  -27.8320   44.5270 O.2   901  VIA901     -0.1528
     26  O12       -3.9850  -29.5880   45.9990 O.2   901  VIA901     -0.1528
     27  N14       -4.9360  -30.1850   43.5600 N.3   901  VIA901     -0.1527
     28  C19       -3.5170  -30.5660   43.3410 C.3   901  VIA901      0.1131
     29  C18       -3.2620  -31.0770   41.8890 C.3   901  VIA901      0.0915
     30  N17       -3.7310  -30.1010   40.8600 N.3   901  VIA901     -0.2690
     31  C20       -3.3350  -30.5360   39.4980 C.3   901  VIA901      0.0897
     32  C16       -5.1880  -29.8430   41.0060 C.3   901  VIA901      0.0915
     33  C15       -5.5260  -29.3580   42.4530 C.3   901  VIA901      0.1131
@<TRIPOS>BOND
     1     1     2    1
     2    31    30    1
     3    30    32    1
     4    30    29    1
     5     2     3    1
     6    32    33    1
     7     3     4    1
     8    29    28    1
     9    33    27    1
    10     4     5    2
    11     4    14    1
    12     5     6    1
    13    28    27    1
    14    27    24    1
    15    14    13    2
    16    14     8    1
    17     6     7    1
    18     6     8    1
    19    13    12    2
    20    25    24    2
    21     8     9    1
    22    24    17    1
    23    24    26    2
    24    16    17   ar
    25    16    15   ar
    26    12    15    1
    27    12    11    2
    28    17    18   ar
    29    15    20   ar
    30     9    11    2
    31     9    10    2
    32    18    19   ar
    33    20    19   ar
    34    20    21    1
    35    21    22    1
    36    22    23    1
