@<TRIPOS>MOLECULE
3jwr_IBM_A_1.pdb
 16 17 0 0 0
SMALL
GASTEIGER

@<TRIPOS>ATOM
      1  N9       -22.8180   13.6410  -39.3760 N.2   901  IBM901     -0.2256
      2  C8       -22.8760   14.2560  -40.5780 C.3   901  IBM901      0.2523
      3  N7       -23.1510   13.3520  -41.5500 N.2   901  IBM901     -0.2364
      4  C5       -23.2730   12.1460  -40.9630 C.ar  901  IBM901      0.1681
      5  C4       -23.0670   12.3370  -39.6170 C.ar  901  IBM901      0.1667
      6  N3       -23.1300   11.3270  -38.7360 N.ar  901  IBM901     -0.2651
      7  C2       -23.3790   10.0690  -39.1600 C.ar  901  IBM901      0.3350
      8  N1       -23.5910    9.7850  -40.4650 N.ar  901  IBM901     -0.2454
      9  C6       -23.5550   10.7530  -41.4070 C.ar  901  IBM901      0.2846
     10  O6       -23.7550   10.4970  -42.6180 O.2   901  IBM901     -0.2651
     11  O2       -23.4350    9.1350  -38.3230 O.2   901  IBM901     -0.2461
     12  C10      -23.8700    8.3930  -40.8450 C.3   901  IBM901      0.1383
     13  C11      -22.9020   11.5750  -37.3100 C.3   901  IBM901      0.1119
     14  C12      -24.0670   12.3530  -36.6970 C.3   901  IBM901      0.0228
     15  C13      -24.4740   11.7250  -35.3660 C.3   901  IBM901      0.0020
     16  C14      -23.7270   13.8280  -36.5160 C.3   901  IBM901      0.0020
@<TRIPOS>BOND
     1    10     9    2
     2     3     4    2
     3     3     2    1
     4     9     4   ar
     5     9     8   ar
     6     4     5   ar
     7    12     8    1
     8     2     1    1
     9     8     7   ar
    10     5     1    2
    11     5     6   ar
    12     7     6   ar
    13     7    11    2
    14     6    13    1
    15    13    14    1
    16    14    16    1
    17    14    15    1
