@<TRIPOS>MOLECULE
3jws_JI4_A_1.pdb
 27 29 0 0 0
SMALL
GASTEIGER

@<TRIPOS>ATOM
      1  C1         7.8960    2.5110   24.4030 C.3   800  JI4800      0.1075
      2  N1         8.3100    1.3660   25.2100 N.3   800  JI4800     -0.2164
      3  C2         6.4670    2.9370   24.7050 C.3   800  JI4800      0.1075
      4  N2         6.3050    3.3340   26.0900 N.3   800  JI4800     -0.2162
      5  C3         5.0020    3.8460   26.4790 C.3   800  JI4800      0.0934
      6  C4         4.7440    3.8040   27.9770 C.3   800  JI4800      0.0452
      7  N1'        9.9930   -1.7940   24.8790 N.3   800  JI4800     -0.2165
      8  C11        3.4750    4.5850   28.2740 C.ar  800  JI4800     -0.0185
      9  C12        3.5580    5.9280   28.6480 C.ar  800  JI4800      0.0254
     10  C13        2.3880    6.6360   28.9270 C.ar  800  JI4800      0.1398
     11  F13        2.4730    7.9270   29.2840 F     800  JI4800     -0.2042
     12  C14        1.1390    6.0200   28.8290 C.ar  800  JI4800      0.0296
     13  C15        1.0530    4.6810   28.4530 C.ar  800  JI4800      0.0020
     14  C16        2.2230    3.9680   28.1790 C.ar  800  JI4800     -0.0041
     15  N11       13.3390    0.2140   23.9900 N.2   800  JI4800     -0.3924
     16  C2'        8.9670   -0.9970   25.5520 C.3   800  JI4800      0.1060
     17  C21       12.3670    1.1020   23.6360 C.2   800  JI4800      0.1098
     18  C3'        8.6890    0.1270   24.5530 C.3   800  JI4800      0.0919
     19  C31       12.5910    1.9790   22.5860 C.2   800  JI4800      0.0196
     20  C4'        9.9710    0.2380   23.7150 C.3   800  JI4800      0.0419
     21  C41       13.7900    1.9510   21.8840 C.2   800  JI4800     -0.0332
     22  C5'       10.4260   -1.2240   23.6040 C.3   800  JI4800      0.0906
     23  C51       14.7660    1.0290   22.2540 C.3   800  JI4800      0.1001
     24  C61       14.5220    0.1740   23.3270 C.2   800  JI4800      0.2001
     25  N61       15.4440   -0.7390   23.7080 N.pl3 800  JI4800     -0.0977
     26  C71       11.0380    1.1260   24.3910 C.3   800  JI4800      0.0619
     27  C81       14.0090    2.8950   20.7200 C.3   800  JI4800      0.0269
@<TRIPOS>BOND
     1    27    21    1
     2    21    23    1
     3    21    19    2
     4    23    24    1
     5    19    17    1
     6    24    25    1
     7    24    15    2
     8    22    20    1
     9    22     7    1
    10    17    15    2
    11    17    26    1
    12    20    26    1
    13    20    18    1
    14     1     3    1
    15     1     2    1
    16    18     2    1
    17    18    16    1
    18     3     4    1
    19     7    16    1
    20     4     5    1
    21     5     6    1
    22     6     8    1
    23    14     8   ar
    24    14    13   ar
    25     8     9   ar
    26    13    12   ar
    27     9    10   ar
    28    12    10   ar
    29    10    11    1
