@<TRIPOS>MOLECULE
3jws_HEM_A_1.pdb
 43 50 0 0 0
SMALL
GASTEIGER

@<TRIPOS>ATOM
      1  CHA       13.0750    4.6770   26.4750 C.2   750  HEM750      0.0000
      2  CHB       16.8580    1.6880   26.0000 C.2   750  HEM750      0.0000
      3  CHC       17.7720    3.5490   21.6360 C.2   750  HEM750      0.0000
      4  CHD       14.5620    7.1050   22.5080 C.2   750  HEM750      0.0000
      5  C1A       13.9400    3.6360   26.6660 C.2   750  HEM750      0.0000
      6  C2A       13.8430    2.6250   27.6890 C.2   750  HEM750      0.0000
      7  C3A       14.8730    1.7830   27.5570 C.2   750  HEM750      0.0000
      8  C4A       15.6720    2.2470   26.4430 C.2   750  HEM750      0.0000
      9  CMA       15.2100    0.5440   28.4340 C.3   750  HEM750      0.0000
     10  CAA       12.7070    2.5730   28.7120 C.3   750  HEM750      0.0000
     11  CBA       11.4810    2.3110   27.8440 C.3   750  HEM750      0.0000
     12  CGA       10.5070    1.3810   28.4930 C.2   750  HEM750      0.0000
     13  O1A       10.7580    0.9060   29.6260 O.co2 750  HEM750      0.0000
     14  O2A        9.4650    1.1380   27.8440 O.co2 750  HEM750      0.0000
     15  C1B       17.4420    1.9150   24.7820 C.ar  750  HEM750      0.0000
     16  C2B       18.5540    1.1750   24.2260 C.ar  750  HEM750      0.0000
     17  C3B       18.8170    1.6840   23.0150 C.ar  750  HEM750      0.0000
     18  C4B       17.8830    2.7740   22.7710 C.ar  750  HEM750      0.0000
     19  CMB       19.3000   -0.0220   24.9120 C.3   750  HEM750      0.0000
     20  CAB       19.9340    1.1210   22.1030 C.2   750  HEM750      0.0000
     21  CBB       20.4270    1.7200   21.0180 C.2   750  HEM750      0.0000
     22  C1C       16.9420    4.6510   21.4830 C.2   750  HEM750      0.0000
     23  C2C       16.8940    5.5030   20.3120 C.2   750  HEM750      0.0000
     24  C3C       16.0170    6.4780   20.5700 C.2   750  HEM750      0.0000
     25  C4C       15.4960    6.2830   21.9000 C.2   750  HEM750      0.0000
     26  CMC       17.7220    5.2590   19.0140 C.3   750  HEM750      0.0000
     27  CAC       15.5610    7.6430   19.6680 C.2   750  HEM750      0.0000
     28  CBC       16.2540    7.9370   18.5530 C.2   750  HEM750      0.0000
     29  C1D       13.8650    6.7890   23.6490 C.ar  750  HEM750      0.0000
     30  C2D       12.7950    7.5640   24.1920 C.ar  750  HEM750      0.0000
     31  C3D       12.3480    6.7940   25.4200 C.ar  750  HEM750      0.0000
     32  C4D       13.1800    5.6520   25.5030 C.ar  750  HEM750      0.0000
     33  CMD       12.1840    8.8960   23.6550 C.3   750  HEM750      0.0000
     34  CAD       11.1960    7.1790   26.3730 C.3   750  HEM750      0.0000
     35  CBD        9.9860    6.5160   25.7080 C.3   750  HEM750      0.0000
     36  CGD        8.7310    6.6310   26.5250 C.2   750  HEM750      0.0000
     37  O1D        8.5430    7.6590   27.2390 O.co2 750  HEM750      0.0000
     38  O2D        7.9060    5.6710   26.4510 O.co2 750  HEM750      0.0000
     39  NA        15.0660    3.3770   25.9220 N.2   750  HEM750      0.0000
     40  NB        17.0530    2.9010   23.8820 N.ar  750  HEM750      0.0000
     41  NC        16.0670    5.1590   22.4140 N.2   750  HEM750      0.0000
     42  ND        14.0690    5.6590   24.4390 N.ar  750  HEM750      0.0000
     43 FE         15.8310    4.5280   24.3630 Fe    750  HEM750      0.0000
@<TRIPOS>BOND
     1    28    27    2
     2    26    23    1
     3    27    24    1
     4    23    24    2
     5    23    22    1
     6    24    25    1
     7    21    20    2
     8    22     3    2
     9    22    41    1
    10     3    18    1
    11    25    41    2
    12    25     4    1
    13    20    17    1
    14    41    43    1
    15     4    29    2
    16    18    17   ar
    17    18    40   ar
    18    17    16   ar
    19    29    30   ar
    20    29    42   ar
    21    33    30    1
    22    40    43    1
    23    40    15   ar
    24    30    31   ar
    25    16    15   ar
    26    16    19    1
    27    43    42    1
    28    43    39    1
    29    42    32   ar
    30    15     2    1
    31    31    32   ar
    32    31    34    1
    33    32     1    2
    34    35    34    1
    35    35    36    1
    36    39     8    1
    37    39     5    2
    38     2     8    2
    39     8     7    1
    40    38    36   ar
    41     1     5    1
    42    36    37   ar
    43     5     6    1
    44     7     6    2
    45     7     9    1
    46     6    10    1
    47    14    12   ar
    48    11    12    1
    49    11    10    1
    50    12    13   ar
