@<TRIPOS>MOLECULE
3jws_H4B_A_1.pdb
 17 18 0 0 0
SMALL
GASTEIGER

@<TRIPOS>ATOM
      1  N1        10.1300    2.5600   33.8830 N.2   760  H4B760     -0.2683
      2  C2        10.3220    2.1700   32.5960 C.1   760  H4B760      0.2608
      3  N2        11.6210    2.0450   32.1190 N.pl3 760  H4B760     -0.0220
      4  N3         9.2390    1.8890   31.8210 N.2   760  H4B760     -0.2474
      5  C4         7.9660    2.0120   32.2880 C.1   760  H4B760      0.2441
      6  O4         6.9960    1.7360   31.5190 O.2   760  H4B760     -0.2063
      7  C4A        7.7760    2.4450   33.6070 C.2   760  H4B760      0.2463
      8  C8A        8.9020    2.7220   34.3940 C.1   760  H4B760      0.1270
      9  N5         6.5620    2.6020   34.1740 N.2   760  H4B760     -0.2460
     10  N8         8.7910    3.1410   35.6840 N.2   760  H4B760     -0.2054
     11  C6         6.4310    3.5580   35.2710 C.3   760  H4B760      0.1627
     12  C7         7.4870    3.2800   36.3200 C.3   760  H4B760      0.1643
     13  C9         5.0220    3.5770   35.8820 C.3   760  H4B760      0.2063
     14  O9         4.7060    2.2530   36.2900 O.3   760  H4B760     -0.2183
     15  C10        4.8960    4.4640   37.1150 C.3   760  H4B760      0.1842
     16  C11        3.4680    4.4210   37.6560 C.3   760  H4B760      0.0383
     17  O10        5.2330    5.8100   36.7810 O.3   760  H4B760     -0.2204
@<TRIPOS>BOND
     1     6     5    2
     2     4     5    2
     3     4     2    2
     4     3     2    1
     5     5     7    1
     6     2     1    2
     7     7     9    2
     8     7     8    1
     9     1     8    2
    10     9    11    1
    11     8    10    2
    12    11    13    1
    13    11    12    1
    14    10    12    1
    15    13    14    1
    16    13    15    1
    17    17    15    1
    18    15    16    1
