@<TRIPOS>MOLECULE
3jwt_JI5_A_1.pdb
 27 29 0 0 0
SMALL
GASTEIGER

@<TRIPOS>ATOM
      1  C1         7.4930   -0.0790   25.0860 C.2   800  JI5800      0.0974
      2  N1         7.0380    1.1100   25.7730 N.pl3 800  JI5800     -0.2351
      3  C2         8.9260   -0.1310   24.5420 C.2   800  JI5800      0.0974
      4  N2         9.7120    1.0800   24.4160 N.pl3 800  JI5800     -0.2346
      5  C3        10.9920    0.8650   23.7800 C.3   800  JI5800      0.1170
      6  C4        12.0530    1.8840   24.1510 C.3   800  JI5800      0.0497
      7  N1'        7.4530    1.7590   28.4950 N.3   800  JI5800     -0.2162
      8  C11       13.2560    1.6020   23.2670 C.ar  800  JI5800     -0.0182
      9  N11        5.4920    5.6790   26.7020 N.2   800  JI5800     -0.3924
     10  C12       13.4010    2.3240   22.1010 C.ar  800  JI5800      0.0254
     11  C13       14.4830    2.0710   21.2650 C.ar  800  JI5800      0.1398
     12  F13       14.5980    2.7830   20.1150 F     800  JI5800     -0.2042
     13  C14       15.4290    1.0920   21.6090 C.ar  800  JI5800      0.0296
     14  C15       15.2940    0.3670   22.7930 C.ar  800  JI5800      0.0020
     15  C16       14.1940    0.6170   23.6110 C.ar  800  JI5800     -0.0041
     16  C2'        6.9010    0.4890   28.0580 C.3   800  JI5800      0.1102
     17  C21        4.6720    4.5790   26.7110 C.2   800  JI5800      0.1098
     18  C3'        6.0680    0.9300   26.8580 C.3   800  JI5800      0.1116
     19  C31        3.3660    4.6840   27.2390 C.2   800  JI5800      0.0196
     20  C4'        5.4730    2.2670   27.2940 C.3   800  JI5800      0.0458
     21  C41        2.9290    5.9010   27.7720 C.2   800  JI5800     -0.0332
     22  C5'        6.5400    2.8570   28.2400 C.3   800  JI5800      0.0909
     23  C51        3.7890    7.0040   27.7640 C.3   800  JI5800      0.1001
     24  C61        5.0780    6.8790   27.2220 C.2   800  JI5800      0.2001
     25  N61        5.8980    7.9680   27.2210 N.pl3 800  JI5800     -0.0977
     26  C71        5.1470    3.2420   26.1490 C.3   800  JI5800      0.0622
     27  C81        1.5330    6.0320   28.3550 C.3   800  JI5800      0.0269
@<TRIPOS>BOND
     1    12    11    1
     2    11    13   ar
     3    11    10   ar
     4    13    14   ar
     5    10     8   ar
     6    14    15   ar
     7     8    15   ar
     8     8     6    1
     9     5     6    1
    10     5     4    1
    11     4     3    1
    12     3     1    2
    13     1     2    1
    14     2    18    1
    15    26    17    1
    16    26    20    1
    17     9    17    2
    18     9    24    2
    19    17    19    1
    20    18    20    1
    21    18    16    1
    22    25    24    1
    23    24    23    1
    24    19    21    2
    25    20    22    1
    26    23    21    1
    27    21    27    1
    28    16     7    1
    29    22     7    1
