@<TRIPOS>MOLECULE
3jwt_H4B_A_1.pdb
 17 18 0 0 0
SMALL
GASTEIGER

@<TRIPOS>ATOM
      1  N1        10.2140    2.5160   33.6160 N.2   760  H4B760     -0.2683
      2  C2        10.3920    2.1720   32.3120 C.1   760  H4B760      0.2608
      3  N2        11.6550    2.0460   31.7900 N.pl3 760  H4B760     -0.0220
      4  N3         9.3060    1.9560   31.5310 N.2   760  H4B760     -0.2474
      5  C4         8.0570    2.0660   32.0270 C.1   760  H4B760      0.2441
      6  O4         7.0970    1.8300   31.2550 O.2   760  H4B760     -0.2063
      7  C4A        7.8600    2.4340   33.3570 C.2   760  H4B760      0.2463
      8  C8A        8.9760    2.6630   34.1490 C.1   760  H4B760      0.1270
      9  N5         6.6100    2.5670   33.9090 N.2   760  H4B760     -0.2460
     10  N8         8.8550    3.0170   35.4660 N.2   760  H4B760     -0.2054
     11  C6         6.5090    3.4670   35.0610 C.3   760  H4B760      0.1627
     12  C7         7.5400    3.1310   36.1170 C.3   760  H4B760      0.1643
     13  C9         5.1110    3.5210   35.6800 C.3   760  H4B760      0.2063
     14  O9         4.7170    2.1920   36.0160 O.3   760  H4B760     -0.2183
     15  C10        5.0590    4.3920   36.9280 C.3   760  H4B760      0.1842
     16  C11        3.6180    4.4740   37.4390 C.3   760  H4B760      0.0383
     17  O10        5.5620    5.7050   36.6110 O.3   760  H4B760     -0.2204
@<TRIPOS>BOND
     1     6     5    2
     2     4     5    2
     3     4     2    2
     4     3     2    1
     5     5     7    1
     6     2     1    2
     7     7     9    2
     8     7     8    1
     9     1     8    2
    10     9    11    1
    11     8    10    2
    12    11    13    1
    13    11    12    1
    14    10    12    1
    15    13    14    1
    16    13    15    1
    17    17    15    1
    18    15    16    1
