@<TRIPOS>MOLECULE
3jwt_HEM_A_1.pdb
 43 50 0 0 0
SMALL
GASTEIGER

@<TRIPOS>ATOM
      1  CHA       13.2340    4.8000   26.3720 C.2   750  HEM750      0.0000
      2  CHB       17.0050    1.7540   25.9190 C.2   750  HEM750      0.0000
      3  CHC       17.9210    3.5860   21.5400 C.2   750  HEM750      0.0000
      4  CHD       14.8500    7.2760   22.5070 C.2   750  HEM750      0.0000
      5  C1A       14.1070    3.7500   26.5690 C.2   750  HEM750      0.0000
      6  C2A       13.9840    2.7440   27.5850 C.2   750  HEM750      0.0000
      7  C3A       15.0110    1.8960   27.4710 C.2   750  HEM750      0.0000
      8  C4A       15.8260    2.3320   26.3500 C.2   750  HEM750      0.0000
      9  CMA       15.2760    0.6620   28.3670 C.3   750  HEM750      0.0000
     10  CAA       12.8570    2.6920   28.6200 C.3   750  HEM750      0.0000
     11  CBA       11.5440    2.7020   27.8650 C.3   750  HEM750      0.0000
     12  CGA       10.7630    1.4560   28.1650 C.2   750  HEM750      0.0000
     13  O1A       11.1550    0.7090   29.1190 O.co2 750  HEM750      0.0000
     14  O2A        9.7400    1.2670   27.4450 O.co2 750  HEM750      0.0000
     15  C1B       17.6120    1.9800   24.7090 C.ar  750  HEM750      0.0000
     16  C2B       18.7060    1.2200   24.1540 C.ar  750  HEM750      0.0000
     17  C3B       18.9730    1.7090   22.9300 C.ar  750  HEM750      0.0000
     18  C4B       18.0560    2.8070   22.6680 C.ar  750  HEM750      0.0000
     19  CMB       19.3950    0.0300   24.8840 C.3   750  HEM750      0.0000
     20  CAB       20.0780    1.1490   22.0150 C.2   750  HEM750      0.0000
     21  CBB       20.6260    1.8060   20.9980 C.2   750  HEM750      0.0000
     22  C1C       17.1140    4.7250   21.4080 C.2   750  HEM750      0.0000
     23  C2C       17.0470    5.5830   20.2290 C.2   750  HEM750      0.0000
     24  C3C       16.1870    6.5920   20.5060 C.2   750  HEM750      0.0000
     25  C4C       15.6940    6.4140   21.8530 C.2   750  HEM750      0.0000
     26  CMC       17.7840    5.3080   18.8910 C.3   750  HEM750      0.0000
     27  CAC       15.7660    7.7700   19.6130 C.2   750  HEM750      0.0000
     28  CBC       16.5650    8.1390   18.5930 C.2   750  HEM750      0.0000
     29  C1D       14.0820    6.9360   23.6020 C.ar  750  HEM750      0.0000
     30  C2D       12.9300    7.6620   24.0560 C.ar  750  HEM750      0.0000
     31  C3D       12.4410    6.8730   25.2620 C.ar  750  HEM750      0.0000
     32  C4D       13.3450    5.7690   25.3950 C.ar  750  HEM750      0.0000
     33  CMD       12.3230    8.9700   23.4610 C.3   750  HEM750      0.0000
     34  CAD       11.2060    7.1350   26.1680 C.3   750  HEM750      0.0000
     35  CBD       10.1040    6.2750   25.5260 C.3   750  HEM750      0.0000
     36  CGD        8.6940    6.5330   26.0040 C.2   750  HEM750      0.0000
     37  O1D        8.4150    7.6430   26.5420 O.co2 750  HEM750      0.0000
     38  O2D        7.8570    5.5920   25.8330 O.co2 750  HEM750      0.0000
     39  NA        15.2360    3.4740   25.8360 N.2   750  HEM750      0.0000
     40  NB        17.2500    2.9550   23.7820 N.ar  750  HEM750      0.0000
     41  NC        16.2610    5.2660   22.3590 N.2   750  HEM750      0.0000
     42  ND        14.2990    5.8170   24.3950 N.ar  750  HEM750      0.0000
     43 FE         16.0170    4.6300   24.2560 Fe    750  HEM750      0.0000
@<TRIPOS>BOND
     1    28    27    2
     2    26    23    1
     3    27    24    1
     4    23    24    2
     5    23    22    1
     6    24    25    1
     7    21    20    2
     8    22     3    2
     9    22    41    1
    10     3    18    1
    11    25    41    2
    12    25     4    1
    13    20    17    1
    14    41    43    1
    15     4    29    2
    16    18    17   ar
    17    18    40   ar
    18    17    16   ar
    19    33    30    1
    20    29    30   ar
    21    29    42   ar
    22    40    43    1
    23    40    15   ar
    24    30    31   ar
    25    16    15   ar
    26    16    19    1
    27    43    42    1
    28    43    39    1
    29    42    32   ar
    30    15     2    1
    31    31    32   ar
    32    31    34    1
    33    32     1    2
    34    35    36    1
    35    35    34    1
    36    38    36   ar
    37    39     8    1
    38    39     5    2
    39     2     8    2
    40    36    37   ar
    41     8     7    1
    42     1     5    1
    43     5     6    1
    44    14    12   ar
    45     7     6    2
    46     7     9    1
    47     6    10    1
    48    11    12    1
    49    11    10    1
    50    12    13   ar
