@<TRIPOS>MOLECULE
3jwu_J11_A_1.pdb
 27 29 0 0 0
SMALL
GASTEIGER

@<TRIPOS>ATOM
      1  C1         6.5580    2.2330   25.1320 C.3   800  J11800      0.1075
      2  N1         7.9150    2.1610   24.6330 N.3   800  J11800     -0.2164
      3  C2         6.1850    3.6650   25.4930 C.3   800  J11800      0.1075
      4  N2         5.0760    3.7920   26.4280 N.3   800  J11800     -0.2162
      5  C3         4.4300    2.6270   27.0070 C.3   800  J11800      0.0934
      6  C4         4.0280    2.8910   28.4520 C.3   800  J11800      0.0452
      7  N1'        9.5020   -0.9310   25.3230 N.3   800  J11800     -0.2165
      8  C11        2.8840    3.8870   28.5090 C.ar  800  J11800     -0.0185
      9  N11       13.4230    0.4730   24.1610 N.2   800  J11800     -0.3924
     10  C12        3.1580    5.2520   28.6180 C.ar  800  J11800      0.0254
     11  C13        2.1090    6.1650   28.6810 C.ar  800  J11800      0.1398
     12  F13        2.3830    7.4760   28.7890 F     800  J11800     -0.2042
     13  C14        0.7850    5.7240   28.6320 C.ar  800  J11800      0.0296
     14  C15        0.5110    4.3590   28.5180 C.ar  800  J11800      0.0020
     15  C16        1.5580    3.4400   28.4600 C.ar  800  J11800     -0.0041
     16  C2'        8.5080    0.0060   25.8330 C.3   800  J11800      0.1060
     17  C21       12.5370    1.4740   23.8930 C.2   800  J11800      0.1098
     18  C3'        8.9530    1.3760   25.2950 C.3   800  J11800      0.0919
     19  C31       12.6890    2.2660   22.7580 C.2   800  J11800      0.0196
     20  C4'       10.0890    1.1050   24.3130 C.3   800  J11800      0.0419
     21  C41       13.7450    2.0230   21.8950 C.2   800  J11800     -0.0332
     22  C5'       10.1970   -0.4050   24.1550 C.3   800  J11800      0.0906
     23  C51       14.6450    1.0000   22.2000 C.3   800  J11800      0.1001
     24  C61       14.4730    0.2370   23.3580 C.2   800  J11800      0.2001
     25  N61       15.3070   -0.7720   23.6660 N.pl3 800  J11800     -0.0977
     26  C71       11.3800    1.7020   24.8400 C.3   800  J11800      0.0619
     27  C81       13.9240    2.8670   20.6450 C.3   800  J11800      0.0269
@<TRIPOS>BOND
     1    27    21    1
     2    21    23    1
     3    21    19    2
     4    23    24    1
     5    19    17    1
     6    24    25    1
     7    24     9    2
     8    17     9    2
     9    17    26    1
    10    22    20    1
    11    22     7    1
    12    20    26    1
    13    20    18    1
    14     2     1    1
    15     2    18    1
    16     1     3    1
    17    18    16    1
    18     7    16    1
    19     3     4    1
    20     4     5    1
    21     5     6    1
    22     6     8    1
    23    15     8   ar
    24    15    14   ar
    25     8    10   ar
    26    14    13   ar
    27    10    11   ar
    28    13    11   ar
    29    11    12    1
