@<TRIPOS>MOLECULE
3jwu_H4B_A_1.pdb
 17 18 0 0 0
SMALL
GASTEIGER

@<TRIPOS>ATOM
      1  N1         9.9330    2.6520   33.9180 N.2   760  H4B760     -0.2683
      2  C2        10.0750    2.2220   32.6260 C.1   760  H4B760      0.2608
      3  N2        11.3450    2.1100   32.1050 N.pl3 760  H4B760     -0.0220
      4  N3         8.9690    1.9270   31.8770 N.2   760  H4B760     -0.2474
      5  C4         7.7020    2.0220   32.3730 C.1   760  H4B760      0.2441
      6  O4         6.6950    1.7420   31.6450 O.2   760  H4B760     -0.2063
      7  C4A        7.5500    2.4870   33.6790 C.2   760  H4B760      0.2463
      8  C8A        8.6900    2.7970   34.4420 C.1   760  H4B760      0.1270
      9  N5         6.3370    2.6410   34.2450 N.2   760  H4B760     -0.2460
     10  N8         8.5780    3.2290   35.7260 N.2   760  H4B760     -0.2054
     11  C6         6.2160    3.6310   35.3180 C.3   760  H4B760      0.1627
     12  C7         7.2780    3.3790   36.3750 C.3   760  H4B760      0.1643
     13  C9         4.8300    3.6420   35.9480 C.3   760  H4B760      0.2063
     14  O9         4.5290    2.3120   36.3580 O.3   760  H4B760     -0.2183
     15  C10        4.7450    4.5670   37.1560 C.3   760  H4B760      0.1842
     16  C11        3.3360    4.5680   37.7330 C.3   760  H4B760      0.0383
     17  O10        5.1220    5.9100   36.8030 O.3   760  H4B760     -0.2204
@<TRIPOS>BOND
     1     6     5    2
     2     4     5    2
     3     4     2    2
     4     3     2    1
     5     5     7    1
     6     2     1    2
     7     7     9    2
     8     7     8    1
     9     1     8    2
    10     9    11    1
    11     8    10    2
    12    11    13    1
    13    11    12    1
    14    10    12    1
    15    13    14    1
    16    13    15    1
    17    17    15    1
    18    15    16    1
