@<TRIPOS>MOLECULE
3jwu_HEM_A_1.pdb
 43 50 0 0 0
SMALL
GASTEIGER

@<TRIPOS>ATOM
      1  CHA       12.8590    4.7610   26.6020 C.2   750  HEM750      0.0000
      2  CHB       16.5620    1.6680   26.0770 C.2   750  HEM750      0.0000
      3  CHC       17.6040    3.5600   21.7430 C.2   750  HEM750      0.0000
      4  CHD       14.4000    7.0990   22.5890 C.2   750  HEM750      0.0000
      5  C1A       13.7060    3.6990   26.7720 C.2   750  HEM750      0.0000
      6  C2A       13.5880    2.7030   27.7970 C.2   750  HEM750      0.0000
      7  C3A       14.5930    1.8440   27.6780 C.2   750  HEM750      0.0000
      8  C4A       15.3980    2.2570   26.5410 C.2   750  HEM750      0.0000
      9  CMA       14.8540    0.6160   28.5860 C.3   750  HEM750      0.0000
     10  CAA       12.4680    2.7020   28.8630 C.3   750  HEM750      0.0000
     11  CBA       11.2180    2.1780   28.1650 C.3   750  HEM750      0.0000
     12  CGA       10.5090    1.1860   29.0360 C.2   750  HEM750      0.0000
     13  O1A       11.1500    0.5570   29.9200 O.co2 750  HEM750      0.0000
     14  O2A        9.2810    1.0260   28.8230 O.co2 750  HEM750      0.0000
     15  C1B       17.1850    1.9210   24.8850 C.ar  750  HEM750      0.0000
     16  C2B       18.2900    1.1670   24.3480 C.ar  750  HEM750      0.0000
     17  C3B       18.5780    1.6730   23.1450 C.ar  750  HEM750      0.0000
     18  C4B       17.6690    2.7800   22.8790 C.ar  750  HEM750      0.0000
     19  CMB       18.9770   -0.0330   25.0600 C.3   750  HEM750      0.0000
     20  CAB       19.6900    1.1270   22.2300 C.2   750  HEM750      0.0000
     21  CBB       20.2000    1.8230   21.2180 C.2   750  HEM750      0.0000
     22  C1C       16.7720    4.6560   21.5760 C.2   750  HEM750      0.0000
     23  C2C       16.7010    5.4670   20.3950 C.2   750  HEM750      0.0000
     24  C3C       15.8080    6.4410   20.6220 C.2   750  HEM750      0.0000
     25  C4C       15.3110    6.2850   21.9690 C.2   750  HEM750      0.0000
     26  CMC       17.5000    5.1690   19.0970 C.3   750  HEM750      0.0000
     27  CAC       15.3670    7.5720   19.6860 C.2   750  HEM750      0.0000
     28  CBC       16.1680    8.0160   18.7140 C.2   750  HEM750      0.0000
     29  C1D       13.6780    6.7960   23.7360 C.ar  750  HEM750      0.0000
     30  C2D       12.5940    7.5790   24.2460 C.ar  750  HEM750      0.0000
     31  C3D       12.1210    6.8510   25.4940 C.ar  750  HEM750      0.0000
     32  C4D       12.9550    5.7130   25.6140 C.ar  750  HEM750      0.0000
     33  CMD       12.0200    8.8850   23.6440 C.3   750  HEM750      0.0000
     34  CAD       10.9600    7.2600   26.4250 C.3   750  HEM750      0.0000
     35  CBD        9.7380    6.6590   25.7350 C.3   750  HEM750      0.0000
     36  CGD        8.5360    6.6960   26.6200 C.2   750  HEM750      0.0000
     37  O1D        8.3710    7.7010   27.3740 O.co2 750  HEM750      0.0000
     38  O2D        7.7560    5.7120   26.5830 O.co2 750  HEM750      0.0000
     39  NA        14.8120    3.3980   26.0080 N.2   750  HEM750      0.0000
     40  NB        16.8290    2.9060   23.9750 N.ar  750  HEM750      0.0000
     41  NC        15.9120    5.1780   22.5140 N.2   750  HEM750      0.0000
     42  ND        13.8690    5.7100   24.5760 N.ar  750  HEM750      0.0000
     43 FE         15.6100    4.5160   24.4630 Fe    750  HEM750      0.0000
@<TRIPOS>BOND
     1    28    27    2
     2    26    23    1
     3    27    24    1
     4    23    24    2
     5    23    22    1
     6    24    25    1
     7    21    20    2
     8    22     3    2
     9    22    41    1
    10     3    18    1
    11    25    41    2
    12    25     4    1
    13    20    17    1
    14    41    43    1
    15     4    29    2
    16    18    17   ar
    17    18    40   ar
    18    17    16   ar
    19    33    30    1
    20    29    30   ar
    21    29    42   ar
    22    40    43    1
    23    40    15   ar
    24    30    31   ar
    25    16    15   ar
    26    16    19    1
    27    43    42    1
    28    43    39    1
    29    42    32   ar
    30    15     2    1
    31    31    32   ar
    32    31    34    1
    33    32     1    2
    34    35    34    1
    35    35    36    1
    36    39     8    1
    37    39     5    2
    38     2     8    2
    39     8     7    1
    40    38    36   ar
    41     1     5    1
    42    36    37   ar
    43     5     6    1
    44     7     6    2
    45     7     9    1
    46     6    10    1
    47    11    10    1
    48    11    12    1
    49    14    12   ar
    50    12    13   ar
