@<TRIPOS>MOLECULE
3jwv_HEM_A_1.pdb
 43 50 0 0 0
SMALL
GASTEIGER

@<TRIPOS>ATOM
      1  CHA       12.8800    4.7930   26.4940 C.2   750  HEM750      0.0000
      2  CHB       16.6700    1.7360   26.0770 C.2   750  HEM750      0.0000
      3  CHC       17.6180    3.5110   21.6820 C.2   750  HEM750      0.0000
      4  CHD       14.5060    7.1940   22.5430 C.2   750  HEM750      0.0000
      5  C1A       13.7410    3.7350   26.6930 C.2   750  HEM750      0.0000
      6  C2A       13.6210    2.7360   27.7100 C.2   750  HEM750      0.0000
      7  C3A       14.6550    1.8960   27.6210 C.2   750  HEM750      0.0000
      8  C4A       15.4860    2.3220   26.5090 C.2   750  HEM750      0.0000
      9  CMA       14.9180    0.6620   28.5330 C.3   750  HEM750      0.0000
     10  CAA       12.4690    2.6810   28.7250 C.3   750  HEM750      0.0000
     11  CBA       11.3110    2.1750   27.8700 C.3   750  HEM750      0.0000
     12  CGA       10.3570    1.2480   28.5620 C.2   750  HEM750      0.0000
     13  O1A       10.6470    0.6750   29.6660 O.co2 750  HEM750      0.0000
     14  O2A        9.2640    1.1130   27.9500 O.co2 750  HEM750      0.0000
     15  C1B       17.2560    1.9240   24.8520 C.ar  750  HEM750      0.0000
     16  C2B       18.3500    1.1630   24.3220 C.ar  750  HEM750      0.0000
     17  C3B       18.6310    1.6280   23.0960 C.ar  750  HEM750      0.0000
     18  C4B       17.7230    2.7380   22.8220 C.ar  750  HEM750      0.0000
     19  CMB       19.0280   -0.0260   25.0610 C.3   750  HEM750      0.0000
     20  CAB       19.7320    1.0310   22.1910 C.2   750  HEM750      0.0000
     21  CBB       20.3960    1.6840   21.2350 C.2   750  HEM750      0.0000
     22  C1C       16.8420    4.6580   21.5350 C.2   750  HEM750      0.0000
     23  C2C       16.8150    5.5050   20.3610 C.2   750  HEM750      0.0000
     24  C3C       15.9490    6.5060   20.6030 C.2   750  HEM750      0.0000
     25  C4C       15.3990    6.3360   21.9270 C.2   750  HEM750      0.0000
     26  CMC       17.6390    5.2190   19.0640 C.3   750  HEM750      0.0000
     27  CAC       15.5470    7.6960   19.7080 C.2   750  HEM750      0.0000
     28  CBC       16.2720    8.0280   18.6300 C.2   750  HEM750      0.0000
     29  C1D       13.7630    6.8920   23.6780 C.ar  750  HEM750      0.0000
     30  C2D       12.6550    7.6780   24.1730 C.ar  750  HEM750      0.0000
     31  C3D       12.1640    6.9100   25.3840 C.ar  750  HEM750      0.0000
     32  C4D       13.0000    5.7610   25.5170 C.ar  750  HEM750      0.0000
     33  CMD       12.1030    8.9980   23.5670 C.3   750  HEM750      0.0000
     34  CAD       10.9870    7.2880   26.2890 C.3   750  HEM750      0.0000
     35  CBD        9.7760    6.8700   25.4550 C.3   750  HEM750      0.0000
     36  CGD        8.6390    6.4850   26.3510 C.2   750  HEM750      0.0000
     37  O1D        8.3640    7.3040   27.2840 O.co2 750  HEM750      0.0000
     38  O2D        8.0440    5.3840   26.1480 O.co2 750  HEM750      0.0000
     39  NA        14.8980    3.4550   25.9800 N.2   750  HEM750      0.0000
     40  NB        16.9170    2.9080   23.9340 N.ar  750  HEM750      0.0000
     41  NC        15.9480    5.1910   22.4520 N.2   750  HEM750      0.0000
     42  ND        13.9350    5.7870   24.4960 N.ar  750  HEM750      0.0000
     43 FE         15.6940    4.5680   24.3930 Fe    750  HEM750      0.0000
@<TRIPOS>BOND
     1    28    27    2
     2    26    23    1
     3    27    24    1
     4    23    24    2
     5    23    22    1
     6    24    25    1
     7    21    20    2
     8    22     3    2
     9    22    41    1
    10     3    18    1
    11    25    41    2
    12    25     4    1
    13    20    17    1
    14    41    43    1
    15     4    29    2
    16    18    17   ar
    17    18    40   ar
    18    17    16   ar
    19    33    30    1
    20    29    30   ar
    21    29    42   ar
    22    40    43    1
    23    40    15   ar
    24    30    31   ar
    25    16    15   ar
    26    16    19    1
    27    43    42    1
    28    43    39    1
    29    42    32   ar
    30    15     2    1
    31    31    32   ar
    32    31    34    1
    33    35    34    1
    34    35    36    1
    35    32     1    2
    36    39     8    1
    37    39     5    2
    38     2     8    2
    39    38    36   ar
    40    36    37   ar
    41     1     5    1
    42     8     7    1
    43     5     6    1
    44     7     6    2
    45     7     9    1
    46     6    10    1
    47    11    12    1
    48    11    10    1
    49    14    12   ar
    50    12    13   ar
