@<TRIPOS>MOLECULE
3jwv_J14_A_1.pdb
 27 29 0 0 0
SMALL
GASTEIGER

@<TRIPOS>ATOM
      1  C1         7.1020   -0.8690   25.4630 C.3   800  J14800      0.1075
      2  N1         8.0280   -0.1910   24.5470 N.3   800  J14800     -0.2164
      3  C2         5.6160   -0.5130   25.2780 C.3   800  J14800      0.1075
      4  N2         5.0650    0.3610   26.3150 N.3   800  J14800     -0.2162
      5  C3         4.5100    1.6780   26.0010 C.3   800  J14800      0.0934
      6  C4         4.8460    2.7620   27.0370 C.3   800  J14800      0.0452
      7  N1'        8.3430    3.0380   24.4520 N.3   800  J14800     -0.2165
      8  C11        3.6110    3.5180   27.5020 C.ar  800  J14800     -0.0185
      9  N11       13.4270    0.5720   23.9670 N.2   800  J14800     -0.3922
     10  C12        3.6980    4.8850   27.7910 C.ar  800  J14800      0.0254
     11  C13        2.5590    5.5790   28.2240 C.ar  800  J14800      0.1398
     12  F13        2.6400    6.8950   28.4980 F     800  J14800     -0.2042
     13  C14        1.3340    4.9190   28.3730 C.ar  800  J14800      0.0296
     14  C15        1.2390    3.5560   28.0880 C.ar  800  J14800      0.0020
     15  C16        2.3760    2.8630   27.6590 C.ar  800  J14800     -0.0041
     16  C2'        8.1200    2.0520   25.4740 C.3   800  J14800      0.1060
     17  C21       12.5150    1.5190   23.6420 C.2   800  J14800      0.0925
     18  C3'        8.9400    0.8300   25.0410 C.3   800  J14800      0.0919
     19  C31       12.7400    2.2850   22.4940 C.3   800  J14800      0.0766
     20  C4'        9.9430    1.2980   23.9970 C.3   800  J14800      0.0415
     21  C41       13.8590    2.0630   21.6940 C.2   800  J14800     -0.0333
     22  C5'        9.3290    2.5930   23.4860 C.3   800  J14800      0.0906
     23  C51       14.7730    1.0860   22.0560 C.2   800  J14800      0.0427
     24  C61       14.5250    0.3530   23.2200 C.2   800  J14800      0.2178
     25  N61       15.3750   -0.5970   23.6150 N.pl3 800  J14800     -0.0932
     26  C71       11.3080    1.6960   24.5630 C.3   800  J14800      0.0577
     27  C81       14.1060    2.8640   20.4370 C.3   800  J14800      0.0269
@<TRIPOS>BOND
     1    27    21    1
     2    21    23    2
     3    21    19    1
     4    23    24    1
     5    19    17    1
     6    24    25    1
     7    24     9    2
     8    22    20    1
     9    22     7    1
    10    17     9    2
    11    17    26    1
    12    20    26    1
    13    20    18    1
    14     7    16    1
    15     2    18    1
    16     2     1    1
    17    18    16    1
    18     3     1    1
    19     3     4    1
    20     5     4    1
    21     5     6    1
    22     6     8    1
    23     8    15   ar
    24     8    10   ar
    25    15    14   ar
    26    10    11   ar
    27    14    13   ar
    28    11    13   ar
    29    11    12    1
