@<TRIPOS>MOLECULE
3jwv_H4B_A_1.pdb
 17 18 0 0 0
SMALL
GASTEIGER

@<TRIPOS>ATOM
      1  N1         9.9520    2.6390   33.8310 N.2   760  H4B760     -0.2683
      2  C2        10.1170    2.2010   32.5580 C.1   760  H4B760      0.2608
      3  N2        11.3910    2.0910   32.0510 N.pl3 760  H4B760     -0.0220
      4  N3         9.0160    1.8860   31.8050 N.2   760  H4B760     -0.2474
      5  C4         7.7520    1.9820   32.2930 C.1   760  H4B760      0.2441
      6  O4         6.7500    1.6780   31.5650 O.2   760  H4B760     -0.2063
      7  C4A        7.5870    2.4460   33.5950 C.2   760  H4B760      0.2463
      8  C8A        8.7120    2.7840   34.3560 C.1   760  H4B760      0.1270
      9  N5         6.3590    2.5820   34.1430 N.2   760  H4B760     -0.2460
     10  N8         8.5980    3.2200   35.6430 N.2   760  H4B760     -0.2054
     11  C6         6.2280    3.5430   35.2430 C.3   760  H4B760      0.1627
     12  C7         7.3000    3.3490   36.2940 C.3   760  H4B760      0.1643
     13  C9         4.8540    3.4950   35.8880 C.3   760  H4B760      0.2063
     14  O9         4.5820    2.1340   36.2320 O.3   760  H4B760     -0.2183
     15  C10        4.7390    4.4100   37.1020 C.3   760  H4B760      0.1842
     16  C11        3.2900    4.4920   37.5580 C.3   760  H4B760      0.0383
     17  O10        5.2220    5.7220   36.7650 O.3   760  H4B760     -0.2204
@<TRIPOS>BOND
     1     6     5    2
     2     4     5    2
     3     4     2    2
     4     3     2    1
     5     5     7    1
     6     2     1    2
     7     7     9    2
     8     7     8    1
     9     1     8    2
    10     9    11    1
    11     8    10    2
    12    11    13    1
    13    11    12    1
    14    10    12    1
    15    13    14    1
    16    13    15    1
    17    17    15    1
    18    15    16    1
