@<TRIPOS>MOLECULE
3jww_H4B_A_1.pdb
 17 18 0 0 0
SMALL
GASTEIGER

@<TRIPOS>ATOM
      1  N1         8.4650   11.6340   43.2350 N.2   600  H4B600     -0.2683
      2  C2         8.3380   12.0030   41.9520 C.1   600  H4B600      0.2608
      3  N2         7.4790   11.3310   41.1200 N.pl3 600  H4B600     -0.0220
      4  N3         9.0590   13.0580   41.5070 N.2   600  H4B600     -0.2474
      5  C4         9.8990   13.7490   42.3130 C.1   600  H4B600      0.2441
      6  O4        10.5510   14.7310   41.8440 O.2   600  H4B600     -0.2063
      7  C4A       10.0560   13.3630   43.6290 C.2   600  H4B600      0.2463
      8  C8A        9.3140   12.2910   44.0660 C.1   600  H4B600      0.1270
      9  N5        10.8770   13.9960   44.5030 N.2   600  H4B600     -0.2460
     10  N8         9.4340   11.8870   45.3320 N.2   600  H4B600     -0.2054
     11  C6        11.4290   13.2110   45.5770 C.3   600  H4B600      0.1627
     12  C7        10.2870   12.5290   46.3270 C.3   600  H4B600      0.1643
     13  C9        12.2620   14.0630   46.5290 C.3   600  H4B600      0.2063
     14  O9        11.5370   15.2480   46.8650 O.3   600  H4B600     -0.2183
     15  C10       12.6270   13.3250   47.8150 C.3   600  H4B600      0.1842
     16  C11       13.5470   14.0960   48.7210 C.3   600  H4B600      0.0383
     17  O10       13.1910   12.0630   47.4650 O.3   600  H4B600     -0.2204
@<TRIPOS>BOND
     1     3     2    1
     2     4     2    2
     3     4     5    2
     4     6     5    2
     5     2     1    2
     6     5     7    1
     7     1     8    2
     8     7     8    1
     9     7     9    2
    10     8    10    2
    11     9    11    1
    12    10    12    1
    13    11    12    1
    14    11    13    1
    15    13    14    1
    16    13    15    1
    17    17    15    1
    18    15    16    1
