@<TRIPOS>MOLECULE
3jww_HEM_A_1.pdb
 43 50 0 0 0
SMALL
GASTEIGER

@<TRIPOS>ATOM
      1  CHA        9.2010    8.9180   35.4410 C.2   500  HEM500      0.0000
      2  CHB        4.6580    8.8480   33.8140 C.2   500  HEM500      0.0000
      3  CHC        5.6040    7.2920   29.3360 C.2   500  HEM500      0.0000
      4  CHD        9.9540    6.7580   31.3370 C.2   500  HEM500      0.0000
      5  C1A        7.8740    9.1530   35.2820 C.2   500  HEM500      0.0000
      6  C2A        7.1160    9.8870   36.2260 C.2   500  HEM500      0.0000
      7  C3A        5.8270    9.8790   35.8100 C.2   500  HEM500      0.0000
      8  C4A        5.7580    9.1320   34.5750 C.2   500  HEM500      0.0000
      9  CMA        4.7130   10.6140   36.5800 C.3   500  HEM500      0.0000
     10  CAA        7.7630   10.5640   37.4760 C.3   500  HEM500      0.0000
     11  CBA        7.9240   12.0100   36.9860 C.3   500  HEM500      0.0000
     12  CGA        8.5910   12.9730   37.9390 C.2   500  HEM500      0.0000
     13  O1A        7.9180   13.3450   38.9410 O.co2 500  HEM500      0.0000
     14  O2A        9.7810   13.3780   37.6730 O.co2 500  HEM500      0.0000
     15  C1B        4.5420    8.4470   32.5050 C.ar  500  HEM500      0.0000
     16  C2B        3.3170    8.5240   31.7570 C.ar  500  HEM500      0.0000
     17  C3B        3.5300    8.0740   30.5320 C.ar  500  HEM500      0.0000
     18  C4B        4.9060    7.7210   30.4490 C.ar  500  HEM500      0.0000
     19  CMB        1.9750    9.0160   32.3180 C.3   500  HEM500      0.0000
     20  CAB        2.4760    7.9930   29.4180 C.2   500  HEM500      0.0000
     21  CBB        2.6380    7.1480   28.4020 C.2   500  HEM500      0.0000
     22  C1C        6.9580    7.0800   29.4860 C.2   500  HEM500      0.0000
     23  C2C        7.9440    6.6620   28.4960 C.2   500  HEM500      0.0000
     24  C3C        9.1100    6.5250   29.1500 C.2   500  HEM500      0.0000
     25  C4C        8.9080    6.8610   30.5180 C.2   500  HEM500      0.0000
     26  CMC        7.8440    6.3780   26.9740 C.3   500  HEM500      0.0000
     27  CAC       10.4840    6.0890   28.5490 C.2   500  HEM500      0.0000
     28  CBC       10.5200    5.3490   27.4190 C.2   500  HEM500      0.0000
     29  C1D       10.1960    7.2560   32.5420 C.ar  500  HEM500      0.0000
     30  C2D       11.4990    7.2120   33.2110 C.ar  500  HEM500      0.0000
     31  C3D       11.2810    7.8750   34.5290 C.ar  500  HEM500      0.0000
     32  C4D        9.8810    8.2500   34.4930 C.ar  500  HEM500      0.0000
     33  CMD       12.7600    6.5830   32.6770 C.3   500  HEM500      0.0000
     34  CAD       12.2590    8.1390   35.6500 C.3   500  HEM500      0.0000
     35  CBD       12.5680    9.6270   35.5490 C.3   500  HEM500      0.0000
     36  CGD       13.6070    9.9570   36.5770 C.2   500  HEM500      0.0000
     37  O1D       14.2340    9.0200   37.1770 O.co2 500  HEM500      0.0000
     38  O2D       13.7960   11.1920   36.7730 O.co2 500  HEM500      0.0000
     39  NA         7.0350    8.6830   34.2690 N.2   500  HEM500      0.0000
     40  NB         5.4840    7.9750   31.6650 N.ar  500  HEM500      0.0000
     41  NC         7.5680    7.2030   30.7370 N.2   500  HEM500      0.0000
     42  ND         9.2920    7.8730   33.3100 N.ar  500  HEM500      0.0000
     43 FE          7.3950    7.6020   32.6100 Fe    500  HEM500      0.0000
@<TRIPOS>BOND
     1    26    23    1
     2    28    27    2
     3    21    20    2
     4    23    24    2
     5    23    22    1
     6    27    24    1
     7    24    25    1
     8     3    22    2
     9     3    18    1
    10    20    17    1
    11    22    41    1
    12    18    17   ar
    13    18    40   ar
    14    25    41    2
    15    25     4    1
    16    17    16   ar
    17    41    43    1
    18     4    29    2
    19    40    15   ar
    20    40    43    1
    21    16    19    1
    22    16    15   ar
    23    15     2    1
    24    29    30   ar
    25    29    42   ar
    26    43    42    1
    27    43    39    1
    28    33    30    1
    29    30    31   ar
    30    42    32   ar
    31     2     8    2
    32    39     8    1
    33    39     5    2
    34    32    31   ar
    35    32     1    2
    36    31    34    1
    37     8     7    1
    38     5     1    1
    39     5     6    1
    40    35    34    1
    41    35    36    1
    42     7     6    2
    43     7     9    1
    44     6    10    1
    45    36    38   ar
    46    36    37   ar
    47    11    10    1
    48    11    12    1
    49    14    12   ar
    50    12    13   ar
