@<TRIPOS>MOLECULE
3jww_JI4_A_1.pdb
 27 29 0 0 0
SMALL
GASTEIGER

@<TRIPOS>ATOM
      1  C1        12.3900   14.1320   34.8690 C.3   800  JI4800      0.1075
      2  N1        10.9690   14.0710   35.0060 N.3   800  JI4800     -0.2164
      3  C2        12.9350   14.9470   36.0230 C.3   800  JI4800      0.1075
      4  N2        13.9660   14.1950   36.6980 N.3   800  JI4800     -0.2162
      5  C3        13.7040   13.8880   38.0730 C.3   800  JI4800      0.0934
      6  C4        14.9910   13.7830   38.8400 C.3   800  JI4800      0.0452
      7  N1'        8.0690   16.0300   34.2540 N.3   800  JI4800     -0.2165
      8  C11       15.6130   15.1450   38.9860 C.ar  800  JI4800     -0.0185
      9  C12       17.0070   15.1770   38.9440 C.ar  800  JI4800      0.0254
     10  C13       17.6420   16.4000   39.0810 C.ar  800  JI4800      0.1398
     11  F13       18.9750   16.3780   39.0390 F     800  JI4800     -0.2042
     12  C14       16.9180   17.5960   39.2530 C.ar  800  JI4800      0.0296
     13  C15       15.5170   17.5680   39.2990 C.ar  800  JI4800      0.0020
     14  C16       14.8570   16.3300   39.1620 C.ar  800  JI4800     -0.0041
     15  N11        6.8720   12.3090   32.7270 N.2   800  JI4800     -0.3924
     16  C2'        9.2140   15.8620   35.1340 C.3   800  JI4800      0.1060
     17  C21        8.2240   12.2360   32.5890 C.2   800  JI4800      0.1098
     18  C3'       10.2190   15.0690   34.2720 C.3   800  JI4800      0.0919
     19  C31        8.8290   11.5670   31.5250 C.2   800  JI4800      0.0196
     20  C4'        9.3940   14.3780   33.1870 C.3   800  JI4800      0.0419
     21  C41        8.0250   10.9570   30.5670 C.2   800  JI4800     -0.0332
     22  C5'        8.1550   15.2490   33.0300 C.3   800  JI4800      0.0906
     23  C51        6.6170   11.0120   30.7240 C.3   800  JI4800      0.1001
     24  C61        6.0570   11.7050   31.8340 C.2   800  JI4800      0.2001
     25  N61        4.6940   11.8200   32.0640 N.pl3 800  JI4800     -0.0977
     26  C71        9.1040   12.9220   33.6070 C.3   800  JI4800      0.0619
     27  C81        8.7200   10.2400   29.3960 C.3   800  JI4800      0.0269
@<TRIPOS>BOND
     1    27    21    1
     2    21    23    1
     3    21    19    2
     4    23    24    1
     5    19    17    1
     6    24    25    1
     7    24    15    2
     8    17    15    2
     9    17    26    1
    10    22    20    1
    11    22     7    1
    12    20    26    1
    13    20    18    1
    14     7    16    1
    15    18     2    1
    16    18    16    1
    17     1     2    1
    18     1     3    1
    19     3     4    1
    20     4     5    1
    21     5     6    1
    22     6     8    1
    23     9     8   ar
    24     9    10   ar
    25     8    14   ar
    26    11    10    1
    27    10    12   ar
    28    14    13   ar
    29    12    13   ar
