@<TRIPOS>MOLECULE
3jwx_HEM_A_1.pdb
 43 50 0 0 0
SMALL
GASTEIGER

@<TRIPOS>ATOM
      1  CHA        9.3270    9.0810   35.3380 C.2   500  HEM500      0.0000
      2  CHB        4.6910    8.9230   33.9590 C.2   500  HEM500      0.0000
      3  CHC        6.0180    7.4130   29.5330 C.2   500  HEM500      0.0000
      4  CHD       10.3840    6.5330   31.3400 C.2   500  HEM500      0.0000
      5  C1A        7.9640    9.2960   35.3060 C.2   500  HEM500      0.0000
      6  C2A        7.1950   10.0800   36.2480 C.2   500  HEM500      0.0000
      7  C3A        5.9110   10.0460   35.8800 C.2   500  HEM500      0.0000
      8  C4A        5.8250    9.2380   34.6760 C.2   500  HEM500      0.0000
      9  CMA        4.7440   10.7540   36.6070 C.3   500  HEM500      0.0000
     10  CAA        7.7890   10.8390   37.4580 C.3   500  HEM500      0.0000
     11  CBA        8.2990   12.1310   36.8110 C.3   500  HEM500      0.0000
     12  CGA        8.8430   13.1530   37.7690 C.2   500  HEM500      0.0000
     13  O1A        8.1770   13.4900   38.7890 O.co2 500  HEM500      0.0000
     14  O2A        9.9670   13.6460   37.4720 O.co2 500  HEM500      0.0000
     15  C1B        4.6370    8.5340   32.6370 C.ar  500  HEM500      0.0000
     16  C2B        3.4440    8.5030   31.8050 C.ar  500  HEM500      0.0000
     17  C3B        3.8090    8.0780   30.5840 C.ar  500  HEM500      0.0000
     18  C4B        5.2520    7.8190   30.6050 C.ar  500  HEM500      0.0000
     19  CMB        2.0230    8.9130   32.2760 C.3   500  HEM500      0.0000
     20  CAB        2.9210    7.8930   29.3370 C.2   500  HEM500      0.0000
     21  CBB        3.1190    6.8980   28.4550 C.2   500  HEM500      0.0000
     22  C1C        7.3660    7.0920   29.6030 C.2   500  HEM500      0.0000
     23  C2C        8.2370    6.6210   28.5330 C.2   500  HEM500      0.0000
     24  C3C        9.4540    6.3730   29.0500 C.2   500  HEM500      0.0000
     25  C4C        9.3680    6.6860   30.4540 C.2   500  HEM500      0.0000
     26  CMC        7.8270    6.4750   27.0550 C.3   500  HEM500      0.0000
     27  CAC       10.7510    5.8640   28.3580 C.2   500  HEM500      0.0000
     28  CBC       10.7330    5.1050   27.2570 C.2   500  HEM500      0.0000
     29  C1D       10.5430    7.1680   32.5440 C.ar  500  HEM500      0.0000
     30  C2D       11.8030    7.2880   33.2720 C.ar  500  HEM500      0.0000
     31  C3D       11.4680    8.0890   34.5170 C.ar  500  HEM500      0.0000
     32  C4D       10.0540    8.3620   34.4200 C.ar  500  HEM500      0.0000
     33  CMD       13.1990    6.7450   32.9170 C.3   500  HEM500      0.0000
     34  CAD       12.4690    8.5280   35.6170 C.3   500  HEM500      0.0000
     35  CBD       12.9330    9.9290   35.1710 C.3   500  HEM500      0.0000
     36  CGD       13.8450   10.6070   36.1650 C.2   500  HEM500      0.0000
     37  O1D       14.4870    9.8850   36.9580 O.co2 500  HEM500      0.0000
     38  O2D       13.9090   11.8710   36.1830 O.co2 500  HEM500      0.0000
     39  NA         7.1060    8.7980   34.3500 N.2   500  HEM500      0.0000
     40  NB         5.7040    8.1110   31.8800 N.ar  500  HEM500      0.0000
     41  NC         8.0890    7.1240   30.7680 N.2   500  HEM500      0.0000
     42  ND         9.5480    7.8090   33.2370 N.ar  500  HEM500      0.0000
     43 FE          7.5320    7.6080   32.7330 Fe    500  HEM500      0.0000
@<TRIPOS>BOND
     1    26    23    1
     2    28    27    2
     3    27    24    1
     4    21    20    2
     5    23    24    2
     6    23    22    1
     7    24    25    1
     8    20    17    1
     9     3    22    2
    10     3    18    1
    11    22    41    1
    12    25    41    2
    13    25     4    1
    14    17    18   ar
    15    17    16   ar
    16    18    40   ar
    17    41    43    1
    18     4    29    2
    19    16    19    1
    20    16    15   ar
    21    40    15   ar
    22    40    43    1
    23    29    42   ar
    24    29    30   ar
    25    15     2    1
    26    43    42    1
    27    43    39    1
    28    33    30    1
    29    42    32   ar
    30    30    31   ar
    31     2     8    2
    32    39     8    1
    33    39     5    2
    34    32    31   ar
    35    32     1    2
    36    31    34    1
    37     8     7    1
    38    35    34    1
    39    35    36    1
    40     5     1    1
    41     5     6    1
    42     7     6    2
    43     7     9    1
    44    36    38   ar
    45    36    37   ar
    46     6    10    1
    47    11    10    1
    48    11    12    1
    49    14    12   ar
    50    12    13   ar
