@<TRIPOS>MOLECULE
3jwx_H4B_A_1.pdb
 17 18 0 0 0
SMALL
GASTEIGER

@<TRIPOS>ATOM
      1  N1         8.5410   11.8000   43.0380 N.2   600  H4B600     -0.2683
      2  C2         8.4680   12.1420   41.7370 C.1   600  H4B600      0.2608
      3  N2         7.6200   11.4950   40.8980 N.pl3 600  H4B600     -0.0220
      4  N3         9.2510   13.1430   41.2730 N.2   600  H4B600     -0.2474
      5  C4        10.1430   13.7990   42.0560 C.1   600  H4B600      0.2441
      6  O4        10.8160   14.7340   41.5410 O.2   600  H4B600     -0.2063
      7  C4A       10.2210   13.4590   43.4020 C.2   600  H4B600      0.2463
      8  C8A        9.3950   12.4320   43.8720 C.1   600  H4B600      0.1270
      9  N5        11.0680   14.0610   44.2800 N.2   600  H4B600     -0.2460
     10  N8         9.4370   12.0360   45.1680 N.2   600  H4B600     -0.2054
     11  C6        11.5270   13.2490   45.4150 C.3   600  H4B600      0.1627
     12  C7        10.3180   12.6520   46.1560 C.3   600  H4B600      0.1643
     13  C9        12.4470   14.0260   46.3700 C.3   600  H4B600      0.2063
     14  O9        11.9020   15.3130   46.6830 O.3   600  H4B600     -0.2183
     15  C10       12.7350   13.2790   47.6730 C.3   600  H4B600      0.1842
     16  C11       13.6610   14.0650   48.6050 C.3   600  H4B600      0.0383
     17  O10       13.3470   12.0270   47.3740 O.3   600  H4B600     -0.2204
@<TRIPOS>BOND
     1     3     2    1
     2     4     2    2
     3     4     5    2
     4     6     5    2
     5     2     1    2
     6     5     7    1
     7     1     8    2
     8     7     8    1
     9     7     9    2
    10     8    10    2
    11     9    11    1
    12    10    12    1
    13    11    12    1
    14    11    13    1
    15    13    14    1
    16    13    15    1
    17    17    15    1
    18    15    16    1
