@<TRIPOS>MOLECULE
3jwx_JI5_A_1.pdb
 27 29 0 0 0
SMALL
GASTEIGER

@<TRIPOS>ATOM
      1  C1        10.8480   16.4570   35.2520 C.3   800  JI5800      0.1075
      2  N1        12.0200   15.9180   35.9170 N.3   800  JI5800     -0.2164
      3  C2        10.6260   15.8010   33.9010 C.3   800  JI5800      0.1075
      4  N2        10.0570   14.4890   34.0880 N.3   800  JI5800     -0.2162
      5  C3         9.0180   14.0620   33.1840 C.3   800  JI5800      0.0934
      6  C4         8.9870   12.5540   33.2080 C.3   800  JI5800      0.0452
      7  N1'       11.6770   15.2870   38.7760 N.3   800  JI5800     -0.2165
      8  C11        8.0670   11.9880   32.1630 C.ar  800  JI5800     -0.0185
      9  N11       15.8080   13.2760   37.4580 N.2   800  JI5800     -0.3924
     10  C12        8.6560   11.3750   31.0600 C.ar  800  JI5800      0.0254
     11  C13        7.8640   10.8150   30.0740 C.ar  800  JI5800      0.1398
     12  F13        8.4680   10.2360   29.0070 F     800  JI5800     -0.2042
     13  C14        6.4690   10.8730   30.1990 C.ar  800  JI5800      0.0296
     14  C15        5.8700   11.4880   31.3110 C.ar  800  JI5800      0.0020
     15  C16        6.6750   12.0480   32.3040 C.ar  800  JI5800     -0.0041
     16  C2'       11.4670   16.5920   38.1820 C.3   800  JI5800      0.1060
     17  C21       15.8120   14.6350   37.4040 C.2   800  JI5800      0.1098
     18  C3'       12.5310   16.6260   37.0900 C.3   800  JI5800      0.0919
     19  C31       16.7840   15.3580   38.1000 C.2   800  JI5800      0.0196
     20  C4'       13.7040   15.8560   37.6790 C.3   800  JI5800      0.0419
     21  C41       17.7500   14.6620   38.8220 C.2   800  JI5800     -0.0332
     22  C5'       13.0100   14.7440   38.4800 C.3   800  JI5800      0.0906
     23  C51       17.7370   13.2660   38.8510 C.3   800  JI5800      0.1001
     24  C61       16.7390   12.5730   38.1460 C.2   800  JI5800      0.2001
     25  N61       16.6870   11.2080   38.1390 N.pl3 800  JI5800     -0.0977
     26  C71       14.7260   15.3590   36.6400 C.3   800  JI5800      0.0619
     27  C81       18.8100   15.4380   39.5540 C.3   800  JI5800      0.0269
@<TRIPOS>BOND
     1    12    11    1
     2    11    13   ar
     3    11    10   ar
     4    13    14   ar
     5    10     8   ar
     6    14    15   ar
     7     8    15   ar
     8     8     6    1
     9     5     6    1
    10     5     4    1
    11     3     4    1
    12     3     1    1
    13     1     2    1
    14     2    18    1
    15    26    17    1
    16    26    20    1
    17    18    20    1
    18    18    16    1
    19    17     9    2
    20    17    19    1
    21     9    24    2
    22    20    22    1
    23    19    21    2
    24    25    24    1
    25    24    23    1
    26    16     7    1
    27    22     7    1
    28    21    23    1
    29    21    27    1
