@<TRIPOS>MOLECULE
3jwy_HEM_A_1.pdb
 43 50 0 0 0
SMALL
GASTEIGER

@<TRIPOS>ATOM
      1  CHA        9.3830    8.9330   35.3320 C.2   500  HEM500      0.0000
      2  CHB        4.7840    9.1470   33.9350 C.2   500  HEM500      0.0000
      3  CHC        6.0420    7.4680   29.5600 C.2   500  HEM500      0.0000
      4  CHD       10.4830    6.5890   31.2110 C.2   500  HEM500      0.0000
      5  C1A        8.0380    9.2040   35.3280 C.2   500  HEM500      0.0000
      6  C2A        7.2770    9.8880   36.3610 C.2   500  HEM500      0.0000
      7  C3A        6.0050    9.9540   35.9630 C.2   500  HEM500      0.0000
      8  C4A        5.9210    9.3200   34.6700 C.2   500  HEM500      0.0000
      9  CMA        4.7960   10.5700   36.7070 C.3   500  HEM500      0.0000
     10  CAA        7.8510   10.4360   37.6870 C.3   500  HEM500      0.0000
     11  CBA        8.9060   11.4960   37.3730 C.3   500  HEM500      0.0000
     12  CGA        8.6280   12.8220   38.0230 C.2   500  HEM500      0.0000
     13  O1A        7.5290   13.0510   38.5620 O.co2 500  HEM500      0.0000
     14  O2A        9.5410   13.6770   37.9900 O.co2 500  HEM500      0.0000
     15  C1B        4.7550    8.6990   32.6380 C.ar  500  HEM500      0.0000
     16  C2B        3.5530    8.6900   31.8510 C.ar  500  HEM500      0.0000
     17  C3B        3.8700    8.2230   30.6500 C.ar  500  HEM500      0.0000
     18  C4B        5.3110    7.9360   30.6370 C.ar  500  HEM500      0.0000
     19  CMB        2.1660    9.1440   32.3580 C.3   500  HEM500      0.0000
     20  CAB        2.8750    8.0630   29.4740 C.2   500  HEM500      0.0000
     21  CBB        3.0440    7.1180   28.5270 C.2   500  HEM500      0.0000
     22  C1C        7.3740    7.1370   29.5780 C.2   500  HEM500      0.0000
     23  C2C        8.2100    6.6890   28.4730 C.2   500  HEM500      0.0000
     24  C3C        9.4380    6.4380   28.9640 C.2   500  HEM500      0.0000
     25  C4C        9.4170    6.7360   30.3740 C.2   500  HEM500      0.0000
     26  CMC        7.7790    6.5330   27.0010 C.3   500  HEM500      0.0000
     27  CAC       10.7120    5.9450   28.2340 C.2   500  HEM500      0.0000
     28  CBC       10.6570    5.1250   27.1730 C.2   500  HEM500      0.0000
     29  C1D       10.6130    7.1540   32.4490 C.ar  500  HEM500      0.0000
     30  C2D       11.8390    7.1760   33.2250 C.ar  500  HEM500      0.0000
     31  C3D       11.4900    7.8990   34.4970 C.ar  500  HEM500      0.0000
     32  C4D       10.0960    8.2450   34.3730 C.ar  500  HEM500      0.0000
     33  CMD       13.2180    6.5860   32.8810 C.3   500  HEM500      0.0000
     34  CAD       12.4570    8.1760   35.6660 C.3   500  HEM500      0.0000
     35  CBD       13.4790    9.2370   35.2990 C.3   500  HEM500      0.0000
     36  CGD       13.0530   10.5500   35.8840 C.2   500  HEM500      0.0000
     37  O1D       13.6500   10.9460   36.9340 O.co2 500  HEM500      0.0000
     38  O2D       12.1310   11.1880   35.2970 O.co2 500  HEM500      0.0000
     39  NA         7.1750    8.8780   34.3120 N.2   500  HEM500      0.0000
     40  NB         5.8200    8.2320   31.8840 N.ar  500  HEM500      0.0000
     41  NC         8.1470    7.1540   30.7150 N.2   500  HEM500      0.0000
     42  ND         9.6050    7.7910   33.1430 N.ar  500  HEM500      0.0000
     43 FE          7.6100    7.6080   32.6560 Fe    500  HEM500      0.0000
@<TRIPOS>BOND
     1    26    23    1
     2    28    27    2
     3    27    24    1
     4    23    24    2
     5    23    22    1
     6    21    20    2
     7    24    25    1
     8    20    17    1
     9     3    22    2
    10     3    18    1
    11    22    41    1
    12    25    41    2
    13    25     4    1
    14    18    17   ar
    15    18    40   ar
    16    17    16   ar
    17    41    43    1
    18     4    29    2
    19    16    19    1
    20    16    15   ar
    21    40    15   ar
    22    40    43    1
    23    29    42   ar
    24    29    30   ar
    25    15     2    1
    26    43    42    1
    27    43    39    1
    28    33    30    1
    29    42    32   ar
    30    30    31   ar
    31     2     8    2
    32    39     8    1
    33    39     5    2
    34    32    31   ar
    35    32     1    2
    36    31    34    1
    37     8     7    1
    38    38    36   ar
    39    35    34    1
    40    35    36    1
    41     5     1    1
    42     5     6    1
    43    36    37   ar
    44     7     6    2
    45     7     9    1
    46     6    10    1
    47    11    10    1
    48    11    12    1
    49    14    12   ar
    50    12    13   ar
