@<TRIPOS>MOLECULE
3jwy_J11_A_1.pdb
 27 29 0 0 0
SMALL
GASTEIGER

@<TRIPOS>ATOM
      1  C1        12.3180   15.2600   35.8450 C.2   800  J11800      0.0856
      2  N1        11.6480   14.6080   34.7320 N.2   800  J11800     -0.2725
      3  C2        13.8410   15.1820   35.8160 C.3   800  J11800      0.1349
      4  N2        14.3620   13.9800   36.4430 N.3   800  J11800     -0.2113
      5  C3        14.3690   13.7540   37.8840 C.3   800  J11800      0.0938
      6  C4        14.4160   14.9980   38.7680 C.3   800  J11800      0.0452
      7  N1'        8.2970   15.7030   34.4180 N.3   800  J11800     -0.2159
      8  C11       15.8010   15.6160   38.8270 C.ar  800  J11800     -0.0185
      9  N11        6.8850   12.2030   32.6380 N.2   800  J11800     -0.3924
     10  C12       15.8640   17.0050   38.9540 C.ar  800  J11800      0.0254
     11  C13       17.0970   17.6480   39.0130 C.ar  800  J11800      0.1398
     12  F13       17.1100   18.9960   39.1310 F     800  J11800     -0.2042
     13  C14       18.2810   16.8940   38.9490 C.ar  800  J11800      0.0296
     14  C15       18.2250   15.5010   38.8280 C.ar  800  J11800      0.0020
     15  C16       16.9860   14.8580   38.7700 C.ar  800  J11800     -0.0041
     16  C2'        9.4080   15.5670   35.3440 C.3   800  J11800      0.1129
     17  C21        8.2210   12.0540   32.5280 C.2   800  J11800      0.1098
     18  C3'       10.2200   14.3720   34.8200 C.3   800  J11800      0.1221
     19  C31        8.7790   11.4220   31.4210 C.2   800  J11800      0.0196
     20  C4'        9.6110   13.9780   33.4860 C.3   800  J11800      0.0482
     21  C41        7.9560   10.9490   30.4050 C.2   800  J11800     -0.0332
     22  C5'        8.4710   14.9460   33.1920 C.3   800  J11800      0.0911
     23  C51        6.5660   11.1130   30.5190 C.3   800  J11800      0.1001
     24  C61        6.0560   11.7560   31.6690 C.2   800  J11800      0.2001
     25  N61        4.7290   11.9360   31.8490 N.pl3 800  J11800     -0.0977
     26  C71        9.1150   12.5460   33.6450 C.3   800  J11800      0.0624
     27  C81        8.5930   10.2790   29.2090 C.3   800  J11800      0.0269
@<TRIPOS>BOND
     1    27    21    1
     2    21    23    1
     3    21    19    2
     4    23    24    1
     5    19    17    1
     6    24    25    1
     7    24     9    2
     8    17     9    2
     9    17    26    1
    10    22    20    1
    11    22     7    1
    12    20    26    1
    13    20    18    1
    14     7    16    1
    15     2    18    1
    16     2     1    2
    17    18    16    1
    18     3     1    1
    19     3     4    1
    20     4     5    1
    21     5     6    1
    22     6     8    1
    23    15     8   ar
    24    15    14   ar
    25     8    10   ar
    26    14    13   ar
    27    13    11   ar
    28    10    11   ar
    29    11    12    1
