@<TRIPOS>MOLECULE
3jwy_H4B_A_1.pdb
 17 18 0 0 0
SMALL
GASTEIGER

@<TRIPOS>ATOM
      1  N1         8.3520   11.6330   43.0780 N.2   600  H4B600     -0.2683
      2  C2         8.2250   11.9900   41.7820 C.1   600  H4B600      0.2608
      3  N2         7.3420   11.3190   41.0050 N.pl3 600  H4B600     -0.0220
      4  N3         8.9670   13.0110   41.2770 N.2   600  H4B600     -0.2474
      5  C4         9.8630   13.6830   42.0470 C.1   600  H4B600      0.2441
      6  O4        10.5400   14.6360   41.5390 O.2   600  H4B600     -0.2063
      7  C4A        9.9980   13.3270   43.3920 C.2   600  H4B600      0.2463
      8  C8A        9.2240   12.2770   43.8810 C.1   600  H4B600      0.1270
      9  N5        10.8800   13.9430   44.2340 N.2   600  H4B600     -0.2460
     10  N8         9.3280   11.8720   45.1610 N.2   600  H4B600     -0.2054
     11  C6        11.4010   13.1520   45.3620 C.3   600  H4B600      0.1627
     12  C7        10.2450   12.5060   46.1180 C.3   600  H4B600      0.1643
     13  C9        12.2830   13.9850   46.3020 C.3   600  H4B600      0.2063
     14  O9        11.6760   15.2390   46.6140 O.3   600  H4B600     -0.2183
     15  C10       12.6580   13.2990   47.6220 C.3   600  H4B600      0.1842
     16  C11       13.4920   14.2370   48.4920 C.3   600  H4B600      0.0383
     17  O10       13.4350   12.1360   47.3330 O.3   600  H4B600     -0.2204
@<TRIPOS>BOND
     1     3     2    1
     2     4     2    2
     3     4     5    2
     4     6     5    2
     5     2     1    2
     6     5     7    1
     7     1     8    2
     8     7     8    1
     9     7     9    2
    10     8    10    2
    11     9    11    1
    12    10    12    1
    13    11    12    1
    14    11    13    1
    15    13    14    1
    16    13    15    1
    17    17    15    1
    18    15    16    1
