@<TRIPOS>MOLECULE
3jwz_H4B_A_1.pdb
 17 18 0 0 0
SMALL
GASTEIGER

@<TRIPOS>ATOM
      1  N1         8.3850   11.7310   43.1510 N.2   600  H4B600     -0.2683
      2  C2         8.2810   12.1470   41.8780 C.1   600  H4B600      0.2608
      3  N2         7.4240   11.5030   41.0680 N.pl3 600  H4B600     -0.0220
      4  N3         9.0120   13.1840   41.4210 N.2   600  H4B600     -0.2474
      5  C4         9.8850   13.8300   42.2300 C.1   600  H4B600      0.2441
      6  O4        10.5750   14.7990   41.7920 O.2   600  H4B600     -0.2063
      7  C4A        9.9900   13.4210   43.5510 C.2   600  H4B600      0.2463
      8  C8A        9.2150   12.3540   43.9840 C.1   600  H4B600      0.1270
      9  N5        10.8350   14.0170   44.4270 N.2   600  H4B600     -0.2460
     10  N8         9.2980   11.9010   45.2410 N.2   600  H4B600     -0.2054
     11  C6        11.3560   13.1710   45.5020 C.3   600  H4B600      0.1627
     12  C7        10.1780   12.5300   46.2250 C.3   600  H4B600      0.1643
     13  C9        12.2250   13.9440   46.4950 C.3   600  H4B600      0.2063
     14  O9        11.6480   15.2150   46.8210 O.3   600  H4B600     -0.2183
     15  C10       12.4730   13.1430   47.7670 C.3   600  H4B600      0.1842
     16  C11       13.4200   13.8600   48.6990 C.3   600  H4B600      0.0383
     17  O10       13.0780   11.9060   47.3850 O.3   600  H4B600     -0.2204
@<TRIPOS>BOND
     1     3     2    1
     2     4     2    2
     3     4     5    2
     4     6     5    2
     5     2     1    2
     6     5     7    1
     7     1     8    2
     8     7     8    1
     9     7     9    2
    10     8    10    2
    11     9    11    1
    12    10    12    1
    13    11    12    1
    14    11    13    1
    15    13    14    1
    16    13    15    1
    17    17    15    1
    18    15    16    1
