@<TRIPOS>MOLECULE
3jwz_HEM_A_1.pdb
 43 50 0 0 0
SMALL
GASTEIGER

@<TRIPOS>ATOM
      1  CHA        9.3220    9.0750   35.1970 C.2   500  HEM500      0.0000
      2  CHB        4.6340    9.0390   33.8440 C.2   500  HEM500      0.0000
      3  CHC        5.9630    7.4050   29.4490 C.2   500  HEM500      0.0000
      4  CHD       10.4140    6.6330   31.1130 C.2   500  HEM500      0.0000
      5  C1A        7.9500    9.3200   35.1690 C.2   500  HEM500      0.0000
      6  C2A        7.1990   10.1180   36.1190 C.2   500  HEM500      0.0000
      7  C3A        5.9020   10.1110   35.7440 C.2   500  HEM500      0.0000
      8  C4A        5.7870    9.3130   34.5470 C.2   500  HEM500      0.0000
      9  CMA        4.7190   10.8160   36.4470 C.3   500  HEM500      0.0000
     10  CAA        7.8190   10.8510   37.3310 C.3   500  HEM500      0.0000
     11  CBA        8.4340   12.1400   36.7800 C.3   500  HEM500      0.0000
     12  CGA        8.7090   13.2170   37.8020 C.2   500  HEM500      0.0000
     13  O1A        8.1400   13.2130   38.9270 O.co2 500  HEM500      0.0000
     14  O2A        9.4950   14.1410   37.4710 O.co2 500  HEM500      0.0000
     15  C1B        4.6100    8.6150   32.5250 C.ar  500  HEM500      0.0000
     16  C2B        3.4230    8.5790   31.6860 C.ar  500  HEM500      0.0000
     17  C3B        3.7770    8.1150   30.4950 C.ar  500  HEM500      0.0000
     18  C4B        5.2110    7.8510   30.5270 C.ar  500  HEM500      0.0000
     19  CMB        2.0080    8.9810   32.1320 C.3   500  HEM500      0.0000
     20  CAB        2.8280    7.9300   29.2850 C.2   500  HEM500      0.0000
     21  CBB        3.0660    7.0210   28.3280 C.2   500  HEM500      0.0000
     22  C1C        7.3000    7.1040   29.4590 C.2   500  HEM500      0.0000
     23  C2C        8.1300    6.6740   28.3440 C.2   500  HEM500      0.0000
     24  C3C        9.3680    6.4410   28.8330 C.2   500  HEM500      0.0000
     25  C4C        9.3520    6.7490   30.2520 C.2   500  HEM500      0.0000
     26  CMC        7.6670    6.5120   26.8740 C.3   500  HEM500      0.0000
     27  CAC       10.6510    5.9960   28.0870 C.2   500  HEM500      0.0000
     28  CBC       10.6410    5.2520   26.9760 C.2   500  HEM500      0.0000
     29  C1D       10.5590    7.2120   32.3490 C.ar  500  HEM500      0.0000
     30  C2D       11.7850    7.2490   33.1210 C.ar  500  HEM500      0.0000
     31  C3D       11.4450    8.0060   34.3820 C.ar  500  HEM500      0.0000
     32  C4D       10.0540    8.3690   34.2630 C.ar  500  HEM500      0.0000
     33  CMD       13.1710    6.6620   32.7860 C.3   500  HEM500      0.0000
     34  CAD       12.4390    8.3100   35.5200 C.3   500  HEM500      0.0000
     35  CBD       13.3420    9.4250   35.0280 C.3   500  HEM500      0.0000
     36  CGD       12.9740   10.6760   35.7350 C.2   500  HEM500      0.0000
     37  O1D       13.5500   10.8590   36.8550 O.co2 500  HEM500      0.0000
     38  O2D       12.1330   11.4640   35.1980 O.co2 500  HEM500      0.0000
     39  NA         7.0510    8.8500   34.2230 N.2   500  HEM500      0.0000
     40  NB         5.6880    8.1600   31.7870 N.ar  500  HEM500      0.0000
     41  NC         8.0760    7.1380   30.5930 N.2   500  HEM500      0.0000
     42  ND         9.5720    7.8760   33.0540 N.ar  500  HEM500      0.0000
     43 FE          7.5790    7.6800   32.5410 Fe    500  HEM500      0.0000
@<TRIPOS>BOND
     1    26    23    1
     2    28    27    2
     3    27    24    1
     4    21    20    2
     5    23    24    2
     6    23    22    1
     7    24    25    1
     8    20    17    1
     9     3    22    2
    10     3    18    1
    11    22    41    1
    12    25    41    2
    13    25     4    1
    14    17    18   ar
    15    17    16   ar
    16    18    40   ar
    17    41    43    1
    18     4    29    2
    19    16    19    1
    20    16    15   ar
    21    40    15   ar
    22    40    43    1
    23    29    42   ar
    24    29    30   ar
    25    15     2    1
    26    43    42    1
    27    43    39    1
    28    33    30    1
    29    42    32   ar
    30    30    31   ar
    31     2     8    2
    32    39     8    1
    33    39     5    2
    34    32    31   ar
    35    32     1    2
    36    31    34    1
    37     8     7    1
    38    35    34    1
    39    35    36    1
    40     5     1    1
    41     5     6    1
    42    38    36   ar
    43    36    37   ar
    44     7     6    2
    45     7     9    1
    46     6    10    1
    47    11    10    1
    48    11    12    1
    49    14    12   ar
    50    12    13   ar
