@<TRIPOS>MOLECULE
3jwz_J14_A_1.pdb
 27 29 0 0 0
SMALL
GASTEIGER

@<TRIPOS>ATOM
      1  C1        12.4830   14.8750   35.9590 C.3   800  J14800      0.1075
      2  N1        11.4300   14.0970   35.3270 N.3   800  J14800     -0.2164
      3  C2        13.5670   14.0520   36.6530 C.3   800  J14800      0.1075
      4  N2        14.1040   14.7410   37.8210 N.3   800  J14800     -0.2162
      5  C3        14.7760   13.9880   38.8740 C.3   800  J14800      0.0934
      6  C4        16.3130   14.0110   38.8640 C.3   800  J14800      0.0452
      7  N1'        9.2240   16.2280   33.4030 N.3   800  J14800     -0.2165
      8  C11       16.8690   15.4130   38.7210 C.ar  800  J14800     -0.0185
      9  N11        7.2350   12.2720   32.5620 N.2   800  J14800     -0.3924
     10  C12       16.2330   16.4960   39.3350 C.ar  800  J14800      0.0254
     11  C13       16.7450   17.7840   39.1790 C.ar  800  J14800      0.1398
     12  F13       16.1200   18.8190   39.7750 F     800  J14800     -0.2042
     13  C14       17.9010   17.9960   38.4200 C.ar  800  J14800      0.0296
     14  C15       18.5430   16.9120   37.8120 C.ar  800  J14800      0.0020
     15  C16       18.0250   15.6220   37.9600 C.ar  800  J14800     -0.0041
     16  C2'       10.4500   16.1050   34.2060 C.3   800  J14800      0.1060
     17  C21        8.5630   12.1260   32.2760 C.2   800  J14800      0.1098
     18  C3'       10.8080   14.6230   34.1240 C.3   800  J14800      0.0919
     19  C31        8.9910   11.5180   31.1020 C.2   800  J14800      0.0196
     20  C4'        9.4810   13.9650   33.7860 C.3   800  J14800      0.0419
     21  C41        8.0620   11.0620   30.1860 C.2   800  J14800     -0.0332
     22  C5'        8.7750   14.9470   32.8550 C.3   800  J14800      0.0906
     23  C51        6.7010   11.1990   30.4850 C.3   800  J14800      0.1001
     24  C61        6.3120   11.8170   31.6850 C.2   800  J14800      0.2001
     25  N61        4.9980   11.9560   31.9690 N.pl3 800  J14800     -0.0977
     26  C71        9.6660   12.5800   33.2060 C.3   800  J14800      0.0619
     27  C81        8.5560   10.4110   28.9220 C.3   800  J14800      0.0269
@<TRIPOS>BOND
     1    27    21    1
     2    21    23    1
     3    21    19    2
     4    23    24    1
     5    19    17    1
     6    24    25    1
     7    24     9    2
     8    17     9    2
     9    17    26    1
    10    22     7    1
    11    22    20    1
    12    26    20    1
    13     7    16    1
    14    20    18    1
    15    18    16    1
    16    18     2    1
    17     2     1    1
    18     1     3    1
    19     3     4    1
    20    14    15   ar
    21    14    13   ar
    22     4     5    1
    23    15     8   ar
    24    13    11   ar
    25     8     6    1
    26     8    10   ar
    27     6     5    1
    28    11    10   ar
    29    11    12    1
