@<TRIPOS>MOLECULE
3jx0_JI4_A_1.pdb
 27 29 0 0 0
SMALL
GASTEIGER

@<TRIPOS>ATOM
      1  C1         7.5210    2.9790   24.5780 C.3   800  JI4800      0.1075
      2  N1         8.1350    1.9020   25.3220 N.3   800  JI4800     -0.2164
      3  C2         6.0750    3.0770   25.0050 C.3   800  JI4800      0.1075
      4  N2         6.0190    3.4100   26.4070 N.3   800  JI4800     -0.2162
      5  C3         4.7260    3.6420   27.0150 C.3   800  JI4800      0.0934
      6  C4         4.7870    4.9520   27.7780 C.3   800  JI4800      0.0452
      7  N1'        9.6380   -1.3070   25.0270 N.3   800  JI4800     -0.2165
      8  C11        3.4330    5.4480   28.1990 C.ar  800  JI4800     -0.0185
      9  C12        3.3180    6.8030   28.5260 C.ar  800  JI4800      0.0254
     10  C13        2.0840    7.3170   28.9250 C.ar  800  JI4800      0.1398
     11  F13        1.9560    8.6320   29.2380 F     800  JI4800     -0.2042
     12  C14        0.9860    6.4500   28.9970 C.ar  800  JI4800      0.0296
     13  C15        1.0970    5.0930   28.6830 C.ar  800  JI4800      0.0020
     14  C16        2.3300    4.5880   28.2830 C.ar  800  JI4800     -0.0041
     15  N11       13.0810    0.5100   24.1390 N.2   800  JI4800     -0.3924
     16  C2'        8.5530   -0.5220   25.5860 C.3   800  JI4800      0.1060
     17  C21       12.1990    1.4590   23.7510 C.2   800  JI4800      0.1098
     18  C3'        8.4670    0.6750   24.6340 C.3   800  JI4800      0.0919
     19  C31       12.5010    2.2550   22.6480 C.2   800  JI4800      0.0196
     20  C4'        9.7880    0.7260   23.8480 C.3   800  JI4800      0.0419
     21  C41       13.6990    2.0820   21.9690 C.2   800  JI4800     -0.0332
     22  C5'       10.1780   -0.7450   23.7790 C.3   800  JI4800      0.0906
     23  C51       14.6040    1.1180   22.3960 C.3   800  JI4800      0.1001
     24  C61       14.2650    0.3400   23.5110 C.2   800  JI4800      0.2001
     25  N61       15.1040   -0.6130   23.9710 N.pl3 800  JI4800     -0.0977
     26  C71       10.8770    1.6230   24.4660 C.3   800  JI4800      0.0619
     27  C81       13.9950    2.9600   20.7770 C.3   800  JI4800      0.0269
@<TRIPOS>BOND
     1    27    21    1
     2    21    23    1
     3    21    19    2
     4    23    24    1
     5    19    17    1
     6    24    25    1
     7    24    15    2
     8    17    15    2
     9    17    26    1
    10    22    20    1
    11    22     7    1
    12    20    26    1
    13    20    18    1
    14     1     3    1
    15     1     2    1
    16    18     2    1
    17    18    16    1
    18     3     4    1
    19     7    16    1
    20     4     5    1
    21     5     6    1
    22     6     8    1
    23     8    14   ar
    24     8     9   ar
    25    14    13   ar
    26     9    10   ar
    27    13    12   ar
    28    10    12   ar
    29    10    11    1
