@<TRIPOS>MOLECULE
3jx0_HEM_A_1.pdb
 43 50 0 0 0
SMALL
GASTEIGER

@<TRIPOS>ATOM
      1  CHA       12.8040    4.7780   26.5710 C.2   750  HEM750      0.0000
      2  CHB       16.5540    1.8340   26.0820 C.2   750  HEM750      0.0000
      3  CHC       17.5810    3.5080   21.6600 C.2   750  HEM750      0.0000
      4  CHD       14.5950    7.1810   22.6960 C.2   750  HEM750      0.0000
      5  C1A       13.6410    3.7160   26.7630 C.2   750  HEM750      0.0000
      6  C2A       13.5420    2.6590   27.7580 C.2   750  HEM750      0.0000
      7  C3A       14.5720    1.8420   27.6150 C.2   750  HEM750      0.0000
      8  C4A       15.3770    2.3650   26.5300 C.2   750  HEM750      0.0000
      9  CMA       14.8600    0.5800   28.4730 C.3   750  HEM750      0.0000
     10  CAA       12.4120    2.4770   28.7940 C.3   750  HEM750      0.0000
     11  CBA       11.2490    2.1190   27.8770 C.3   750  HEM750      0.0000
     12  CGA       10.1880    1.4210   28.6240 C.2   750  HEM750      0.0000
     13  O1A       10.5140    0.9640   29.7510 O.co2 750  HEM750      0.0000
     14  O2A        9.0530    1.3460   28.0590 O.co2 750  HEM750      0.0000
     15  C1B       17.1340    2.0270   24.8640 C.ar  750  HEM750      0.0000
     16  C2B       18.2540    1.2500   24.3820 C.ar  750  HEM750      0.0000
     17  C3B       18.5570    1.6930   23.1740 C.ar  750  HEM750      0.0000
     18  C4B       17.6340    2.7740   22.8420 C.ar  750  HEM750      0.0000
     19  CMB       18.9650    0.1080   25.1470 C.3   750  HEM750      0.0000
     20  CAB       19.7050    1.1110   22.3140 C.2   750  HEM750      0.0000
     21  CBB       20.2160    1.7960   21.2930 C.2   750  HEM750      0.0000
     22  C1C       16.8450    4.6690   21.5300 C.2   750  HEM750      0.0000
     23  C2C       16.8160    5.5580   20.3840 C.2   750  HEM750      0.0000
     24  C3C       15.9860    6.5680   20.7030 C.2   750  HEM750      0.0000
     25  C4C       15.4690    6.3470   22.0320 C.2   750  HEM750      0.0000
     26  CMC       17.5960    5.3150   19.0550 C.3   750  HEM750      0.0000
     27  CAC       15.5820    7.7790   19.8600 C.2   750  HEM750      0.0000
     28  CBC       16.2220    8.0420   18.7130 C.2   750  HEM750      0.0000
     29  C1D       13.7940    6.8590   23.7660 C.ar  750  HEM750      0.0000
     30  C2D       12.6680    7.6420   24.2130 C.ar  750  HEM750      0.0000
     31  C3D       12.1490    6.8950   25.4110 C.ar  750  HEM750      0.0000
     32  C4D       12.9810    5.7370   25.5840 C.ar  750  HEM750      0.0000
     33  CMD       12.1200    8.9530   23.6210 C.3   750  HEM750      0.0000
     34  CAD       10.9240    7.2530   26.2640 C.3   750  HEM750      0.0000
     35  CBD        9.7830    6.5080   25.5800 C.3   750  HEM750      0.0000
     36  CGD        8.5660    6.7200   26.4150 C.2   750  HEM750      0.0000
     37  O1D        8.5810    7.6950   27.2220 O.co2 750  HEM750      0.0000
     38  O2D        7.6050    5.9100   26.3030 O.co2 750  HEM750      0.0000
     39  NA        14.7890    3.5080   26.0380 N.2   750  HEM750      0.0000
     40  NB        16.7700    2.9610   23.9090 N.ar  750  HEM750      0.0000
     41  NC        16.0030    5.1750   22.5020 N.2   750  HEM750      0.0000
     42  ND        13.9500    5.7630   24.6040 N.ar  750  HEM750      0.0000
     43 FE         15.6310    4.5830   24.4910 Fe    750  HEM750      0.0000
@<TRIPOS>BOND
     1    28    27    2
     2    26    23    1
     3    27    24    1
     4    23    24    2
     5    23    22    1
     6    24    25    1
     7    21    20    2
     8    22     3    2
     9    22    41    1
    10     3    18    1
    11    25    41    2
    12    25     4    1
    13    20    17    1
    14    41    43    1
    15     4    29    2
    16    18    17   ar
    17    18    40   ar
    18    17    16   ar
    19    33    30    1
    20    29    30   ar
    21    29    42   ar
    22    40    43    1
    23    40    15   ar
    24    30    31   ar
    25    16    15   ar
    26    16    19    1
    27    43    42    1
    28    43    39    1
    29    42    32   ar
    30    15     2    1
    31    31    32   ar
    32    31    34    1
    33    35    34    1
    34    35    36    1
    35    32     1    2
    36    39     8    1
    37    39     5    2
    38     2     8    2
    39    38    36   ar
    40    36    37   ar
    41     8     7    1
    42     1     5    1
    43     5     6    1
    44     7     6    2
    45     7     9    1
    46     6    10    1
    47    11    12    1
    48    11    10    1
    49    14    12   ar
    50    12    13   ar
