@<TRIPOS>MOLECULE
3jx0_H4B_A_1.pdb
 17 18 0 0 0
SMALL
GASTEIGER

@<TRIPOS>ATOM
      1  N1         9.7620    2.7180   33.9180 N.2   760  H4B760     -0.2683
      2  C2         9.9260    2.2820   32.6500 C.1   760  H4B760      0.2608
      3  N2        11.1810    2.1400   32.1610 N.pl3 760  H4B760     -0.0220
      4  N3         8.8480    2.0100   31.8810 N.2   760  H4B760     -0.2474
      5  C4         7.5960    2.1380   32.3720 C.1   760  H4B760      0.2441
      6  O4         6.6460    1.8700   31.5970 O.2   760  H4B760     -0.2063
      7  C4A        7.4050    2.6040   33.6870 C.2   760  H4B760      0.2463
      8  C8A        8.5350    2.8830   34.4550 C.1   760  H4B760      0.1270
      9  N5         6.1830    2.7740   34.2510 N.2   760  H4B760     -0.2460
     10  N8         8.4530    3.2970   35.7480 N.2   760  H4B760     -0.2054
     11  C6         6.0880    3.7430   35.3420 C.3   760  H4B760      0.1627
     12  C7         7.1610    3.4860   36.3930 C.3   760  H4B760      0.1643
     13  C9         4.7240    3.7340   35.9900 C.3   760  H4B760      0.2063
     14  O9         4.4630    2.3990   36.4200 O.3   760  H4B760     -0.2183
     15  C10        4.6720    4.6190   37.2220 C.3   760  H4B760      0.1842
     16  C11        3.2580    4.6360   37.7880 C.3   760  H4B760      0.0383
     17  O10        5.1270    5.9520   36.9220 O.3   760  H4B760     -0.2204
@<TRIPOS>BOND
     1     6     5    2
     2     4     5    2
     3     4     2    2
     4     3     2    1
     5     5     7    1
     6     2     1    2
     7     7     9    2
     8     7     8    1
     9     1     8    2
    10     9    11    1
    11     8    10    2
    12    11    13    1
    13    11    12    1
    14    10    12    1
    15    13    14    1
    16    13    15    1
    17    17    15    1
    18    15    16    1
