@<TRIPOS>MOLECULE
3jx1_HEM_A_1.pdb
 43 50 0 0 0
SMALL
GASTEIGER

@<TRIPOS>ATOM
      1  CHA       12.9920    4.7920   26.5780 C.2   750  HEM750      0.0000
      2  CHB       16.7030    1.7280   26.0370 C.2   750  HEM750      0.0000
      3  CHC       17.7090    3.5500   21.7210 C.2   750  HEM750      0.0000
      4  CHD       14.6980    7.2360   22.6860 C.2   750  HEM750      0.0000
      5  C1A       13.8590    3.7370   26.7700 C.2   750  HEM750      0.0000
      6  C2A       13.7790    2.7220   27.8110 C.2   750  HEM750      0.0000
      7  C3A       14.7980    1.8780   27.6510 C.2   750  HEM750      0.0000
      8  C4A       15.5590    2.3320   26.5020 C.2   750  HEM750      0.0000
      9  CMA       15.1390    0.6190   28.4850 C.3   750  HEM750      0.0000
     10  CAA       12.6720    2.6660   28.8960 C.3   750  HEM750      0.0000
     11  CBA       11.3620    2.6870   28.0970 C.3   750  HEM750      0.0000
     12  CGA       10.5940    1.4320   28.3370 C.2   750  HEM750      0.0000
     13  O1A       11.0030    0.6540   29.2520 O.co2 750  HEM750      0.0000
     14  O2A        9.5640    1.2810   27.6430 O.co2 750  HEM750      0.0000
     15  C1B       17.3090    1.9310   24.8280 C.ar  750  HEM750      0.0000
     16  C2B       18.4270    1.1810   24.3140 C.ar  750  HEM750      0.0000
     17  C3B       18.7190    1.6720   23.1210 C.ar  750  HEM750      0.0000
     18  C4B       17.7900    2.7640   22.8460 C.ar  750  HEM750      0.0000
     19  CMB       19.1330    0.0000   25.0300 C.3   750  HEM750      0.0000
     20  CAB       19.8420    1.1130   22.2260 C.2   750  HEM750      0.0000
     21  CBB       20.4120    1.8180   21.2530 C.2   750  HEM750      0.0000
     22  C1C       16.9680    4.7110   21.5860 C.2   750  HEM750      0.0000
     23  C2C       16.9780    5.5720   20.4320 C.2   750  HEM750      0.0000
     24  C3C       16.1410    6.5870   20.6980 C.2   750  HEM750      0.0000
     25  C4C       15.5800    6.4020   22.0190 C.2   750  HEM750      0.0000
     26  CMC       17.8140    5.2990   19.1420 C.3   750  HEM750      0.0000
     27  CAC       15.8160    7.7880   19.8010 C.2   750  HEM750      0.0000
     28  CBC       16.3660    7.8680   18.5860 C.2   750  HEM750      0.0000
     29  C1D       13.9160    6.9140   23.7760 C.ar  750  HEM750      0.0000
     30  C2D       12.7930    7.6820   24.2520 C.ar  750  HEM750      0.0000
     31  C3D       12.2950    6.9030   25.4590 C.ar  750  HEM750      0.0000
     32  C4D       13.1360    5.7520   25.6010 C.ar  750  HEM750      0.0000
     33  CMD       12.2060    9.0000   23.7020 C.3   750  HEM750      0.0000
     34  CAD       11.0710    7.2170   26.3170 C.3   750  HEM750      0.0000
     35  CBD       10.0210    6.4350   25.5080 C.3   750  HEM750      0.0000
     36  CGD        8.6240    6.5890   26.0430 C.2   750  HEM750      0.0000
     37  O1D        8.3310    7.6350   26.6890 O.co2 750  HEM750      0.0000
     38  O2D        7.8250    5.6300   25.8650 O.co2 750  HEM750      0.0000
     39  NA        14.9620    3.4680   25.9840 N.2   750  HEM750      0.0000
     40  NB        16.9650    2.9130   23.9340 N.ar  750  HEM750      0.0000
     41  NC        16.0920    5.2390   22.5090 N.2   750  HEM750      0.0000
     42  ND        14.1060    5.8010   24.6120 N.ar  750  HEM750      0.0000
     43 FE         15.8310    4.5880   24.4470 Fe    750  HEM750      0.0000
@<TRIPOS>BOND
     1    28    27    2
     2    26    23    1
     3    27    24    1
     4    23    24    2
     5    23    22    1
     6    24    25    1
     7    21    20    2
     8    22     3    2
     9    22    41    1
    10     3    18    1
    11    25    41    2
    12    25     4    1
    13    20    17    1
    14    41    43    1
    15     4    29    2
    16    18    17   ar
    17    18    40   ar
    18    17    16   ar
    19    33    30    1
    20    29    30   ar
    21    29    42   ar
    22    40    43    1
    23    40    15   ar
    24    30    31   ar
    25    16    15   ar
    26    16    19    1
    27    43    42    1
    28    43    39    1
    29    42    32   ar
    30    15     2    1
    31    31    32   ar
    32    31    34    1
    33    35    36    1
    34    35    34    1
    35    32     1    2
    36    38    36   ar
    37    39     8    1
    38    39     5    2
    39     2     8    2
    40    36    37   ar
    41     8     7    1
    42     1     5    1
    43     5     6    1
    44    14    12   ar
    45     7     6    2
    46     7     9    1
    47     6    10    1
    48    11    12    1
    49    11    10    1
    50    12    13   ar
