@<TRIPOS>MOLECULE
3jx1_H4B_A_1.pdb
 17 18 0 0 0
SMALL
GASTEIGER

@<TRIPOS>ATOM
      1  N1         9.8980    2.5600   33.7450 N.2   760  H4B760     -0.2683
      2  C2        10.0630    2.2080   32.4460 C.1   760  H4B760      0.2608
      3  N2        11.3220    2.0650   31.9240 N.pl3 760  H4B760     -0.0220
      4  N3         8.9850    2.0330   31.6670 N.2   760  H4B760     -0.2474
      5  C4         7.7340    2.1650   32.1670 C.1   760  H4B760      0.2441
      6  O4         6.7760    1.9500   31.3900 O.2   760  H4B760     -0.2063
      7  C4A        7.5580    2.5360   33.5100 C.2   760  H4B760      0.2463
      8  C8A        8.6880    2.7320   34.3040 C.1   760  H4B760      0.1270
      9  N5         6.3460    2.7060   34.0610 N.2   760  H4B760     -0.2460
     10  N8         8.6230    3.0820   35.6240 N.2   760  H4B760     -0.2054
     11  C6         6.2850    3.5840   35.2400 C.3   760  H4B760      0.1627
     12  C7         7.3360    3.2420   36.2830 C.3   760  H4B760      0.1643
     13  C9         4.9010    3.5840   35.8480 C.3   760  H4B760      0.2063
     14  O9         4.5950    2.2170   36.1340 O.3   760  H4B760     -0.2183
     15  C10        4.8070    4.4630   37.0910 C.3   760  H4B760      0.1842
     16  C11        3.3700    4.6050   37.5410 C.3   760  H4B760      0.0383
     17  O10        5.2950    5.7700   36.7630 O.3   760  H4B760     -0.2204
@<TRIPOS>BOND
     1     6     5    2
     2     4     5    2
     3     4     2    2
     4     3     2    1
     5     5     7    1
     6     2     1    2
     7     7     9    2
     8     7     8    1
     9     1     8    2
    10     9    11    1
    11     8    10    2
    12    11    13    1
    13    11    12    1
    14    10    12    1
    15    13    14    1
    16    13    15    1
    17    17    15    1
    18    15    16    1
