@<TRIPOS>MOLECULE
3jx1_JI5_A_1.pdb
 27 29 0 0 0
SMALL
GASTEIGER

@<TRIPOS>ATOM
      1  C1         7.2650    0.0040   25.3150 C.2   800  JI5800      0.0856
      2  N1         6.7640    1.2330   25.8800 N.2   800  JI5800     -0.2725
      3  C2         8.4850    0.1270   24.4030 C.3   800  JI5800      0.1349
      4  N2         9.3880    1.2300   24.6470 N.3   800  JI5800     -0.2113
      5  C3        10.7390    0.9650   24.2260 C.3   800  JI5800      0.0938
      6  C4        11.6640    2.1740   24.3020 C.3   800  JI5800      0.0452
      7  N1'        7.1950    1.7930   28.5980 N.3   800  JI5800     -0.2159
      8  C11       12.8760    1.7800   23.4910 C.ar  800  JI5800     -0.0185
      9  N11        5.2460    5.8360   26.8540 N.2   800  JI5800     -0.3922
     10  C12       13.1020    2.3800   22.2700 C.ar  800  JI5800      0.0254
     11  C13       14.2020    1.9860   21.5280 C.ar  800  JI5800      0.1398
     12  F13       14.4450    2.5890   20.3520 F     800  JI5800     -0.2042
     13  C14       15.0760    1.0070   22.0010 C.ar  800  JI5800      0.0296
     14  C15       14.8540    0.3860   23.2140 C.ar  800  JI5800      0.0020
     15  C16       13.7400    0.7730   23.9380 C.ar  800  JI5800     -0.0041
     16  C2'        6.5440    0.5710   28.1610 C.3   800  JI5800      0.1129
     17  C21        4.4140    4.7510   26.8440 C.2   800  JI5800      0.0926
     18  C3'        5.7850    1.0780   26.9440 C.3   800  JI5800      0.1220
     19  C31        3.1430    4.8450   27.4170 C.3   800  JI5800      0.0766
     20  C4'        5.2560    2.4470   27.3740 C.3   800  JI5800      0.0479
     21  C41        2.7380    6.0430   28.0110 C.2   800  JI5800     -0.0333
     22  C5'        6.3920    2.9700   28.2550 C.3   800  JI5800      0.0911
     23  C51        3.6060    7.1450   28.0160 C.2   800  JI5800      0.0427
     24  C61        4.8700    7.0220   27.4190 C.2   800  JI5800      0.2178
     25  N61        5.7120    8.0860   27.4110 N.pl3 800  JI5800     -0.0932
     26  C71        4.8640    3.4270   26.2330 C.3   800  JI5800      0.0582
     27  C81        1.3650    6.1340   28.6340 C.3   800  JI5800      0.0269
@<TRIPOS>BOND
     1    12    11    1
     2    11    13   ar
     3    11    10   ar
     4    13    14   ar
     5    10     8   ar
     6    14    15   ar
     7     8    15   ar
     8     8     6    1
     9     5     6    1
    10     5     4    1
    11     3     4    1
    12     3     1    1
    13     1     2    2
    14     2    18    1
    15    26    17    1
    16    26    20    1
    17    17     9    2
    18    17    19    1
    19     9    24    2
    20    18    20    1
    21    18    16    1
    22    20    22    1
    23    25    24    1
    24    19    21    1
    25    24    23    1
    26    21    23    2
    27    21    27    1
    28    16     7    1
    29    22     7    1
