@<TRIPOS>MOLECULE
3jx2_JI4_A_1.pdb
 27 29 0 0 0
SMALL
GASTEIGER

@<TRIPOS>ATOM
      1  C1         7.7180    2.9440   24.3900 C.3   800  JI4800      0.1075
      2  N1         8.2040    1.8170   25.1480 N.3   800  JI4800     -0.2164
      3  C2         6.2410    3.0670   24.7000 C.3   800  JI4800      0.1075
      4  N2         6.0730    3.6160   26.0270 N.3   800  JI4800     -0.2162
      5  C3         4.7100    3.8570   26.4510 C.3   800  JI4800      0.0934
      6  C4         4.6690    4.6570   27.7390 C.3   800  JI4800      0.0452
      7  N1'        9.5200   -1.4660   24.9410 N.3   800  JI4800     -0.2165
      8  C11        3.2750    5.2010   27.9180 C.ar  800  JI4800     -0.0185
      9  C12        3.0890    6.5830   28.0220 C.ar  800  JI4800      0.0254
     10  C13        1.7900    7.0960   28.1960 C.ar  800  JI4800      0.1398
     11  F13        1.5900    8.4370   28.3100 F     800  JI4800     -0.2042
     12  C14        0.6990    6.2110   28.2640 C.ar  800  JI4800      0.0296
     13  C15        0.8920    4.8300   28.1600 C.ar  800  JI4800      0.0020
     14  C16        2.1800    4.3270   27.9820 C.ar  800  JI4800     -0.0041
     15  N11       13.1290    0.4050   24.0940 N.2   800  JI4800     -0.3924
     16  C2'        8.4480   -0.6190   25.4390 C.3   800  JI4800      0.1060
     17  C21       12.2050    1.3240   23.7490 C.2   800  JI4800      0.1098
     18  C3'        8.4690    0.5640   24.4650 C.3   800  JI4800      0.0919
     19  C31       12.4430    2.1540   22.6740 C.2   800  JI4800      0.0196
     20  C4'        9.8420    0.5540   23.7680 C.3   800  JI4800      0.0419
     21  C41       13.6130    2.0750   21.9640 C.2   800  JI4800     -0.0332
     22  C5'       10.1940   -0.9280   23.7370 C.3   800  JI4800      0.0906
     23  C51       14.5700    1.1440   22.3380 C.3   800  JI4800      0.1001
     24  C61       14.2980    0.3250   23.4330 C.2   800  JI4800      0.2001
     25  N61       15.1630   -0.6200   23.8350 N.pl3 800  JI4800     -0.0977
     26  C71       10.8900    1.4220   24.4800 C.3   800  JI4800      0.0619
     27  C81       13.7730    3.0020   20.7850 C.3   800  JI4800      0.0269
@<TRIPOS>BOND
     1    27    21    1
     2    21    23    1
     3    21    19    2
     4    23    24    1
     5    19    17    1
     6    24    25    1
     7    24    15    2
     8    22    20    1
     9    22     7    1
    10    17    15    2
    11    17    26    1
    12    20    18    1
    13    20    26    1
    14     1     3    1
    15     1     2    1
    16    18     2    1
    17    18    16    1
    18     3     4    1
    19     7    16    1
    20     4     5    1
    21     5     6    1
    22     6     8    1
    23     8    14   ar
    24     8     9   ar
    25    14    13   ar
    26     9    10   ar
    27    13    12   ar
    28    10    12   ar
    29    10    11    1
