@<TRIPOS>MOLECULE
3jx2_HEM_A_1.pdb
 43 50 0 0 0
SMALL
GASTEIGER

@<TRIPOS>ATOM
      1  CHA       12.6850    4.8440   26.6620 C.2   750  HEM750      0.0000
      2  CHB       16.4260    1.8460   26.2300 C.2   750  HEM750      0.0000
      3  CHC       17.4780    3.5230   21.8320 C.2   750  HEM750      0.0000
      4  CHD       14.3970    7.2130   22.6540 C.2   750  HEM750      0.0000
      5  C1A       13.5060    3.7640   26.8570 C.2   750  HEM750      0.0000
      6  C2A       13.3650    2.6900   27.8010 C.2   750  HEM750      0.0000
      7  C3A       14.3980    1.8790   27.6690 C.2   750  HEM750      0.0000
      8  C4A       15.2340    2.4040   26.6350 C.2   750  HEM750      0.0000
      9  CMA       14.6440    0.5920   28.4710 C.3   750  HEM750      0.0000
     10  CAA       12.2140    2.4750   28.8010 C.3   750  HEM750      0.0000
     11  CBA       11.0500    2.3620   27.8340 C.3   750  HEM750      0.0000
     12  CGA        9.9460    1.5840   28.4480 C.2   750  HEM750      0.0000
     13  O1A       10.1790    0.9320   29.4890 O.co2 750  HEM750      0.0000
     14  O2A        8.8480    1.6190   27.8590 O.co2 750  HEM750      0.0000
     15  C1B       17.0040    2.0080   25.0130 C.ar  750  HEM750      0.0000
     16  C2B       18.1020    1.2000   24.5010 C.ar  750  HEM750      0.0000
     17  C3B       18.3830    1.6540   23.2920 C.ar  750  HEM750      0.0000
     18  C4B       17.4920    2.7720   23.0010 C.ar  750  HEM750      0.0000
     19  CMB       18.8050   -0.0060   25.1810 C.3   750  HEM750      0.0000
     20  CAB       19.4710    1.0470   22.3840 C.2   750  HEM750      0.0000
     21  CBB       19.9110    1.7570   21.3600 C.2   750  HEM750      0.0000
     22  C1C       16.7400    4.6800   21.6360 C.2   750  HEM750      0.0000
     23  C2C       16.7730    5.5200   20.4610 C.2   750  HEM750      0.0000
     24  C3C       15.9350    6.5450   20.7040 C.2   750  HEM750      0.0000
     25  C4C       15.3320    6.3860   22.0220 C.2   750  HEM750      0.0000
     26  CMC       17.6420    5.2260   19.1850 C.3   750  HEM750      0.0000
     27  CAC       15.6040    7.7210   19.7940 C.2   750  HEM750      0.0000
     28  CBC       16.3830    8.1420   18.8060 C.2   750  HEM750      0.0000
     29  C1D       13.6190    6.9070   23.7850 C.ar  750  HEM750      0.0000
     30  C2D       12.4520    7.6450   24.2610 C.ar  750  HEM750      0.0000
     31  C3D       11.9790    6.9030   25.5050 C.ar  750  HEM750      0.0000
     32  C4D       12.8440    5.7720   25.6460 C.ar  750  HEM750      0.0000
     33  CMD       11.8270    8.9430   23.7090 C.3   750  HEM750      0.0000
     34  CAD       10.7740    7.2040   26.4260 C.3   750  HEM750      0.0000
     35  CBD        9.6100    6.5390   25.6930 C.3   750  HEM750      0.0000
     36  CGD        8.3530    6.7480   26.4960 C.2   750  HEM750      0.0000
     37  O1D        8.3000    7.7450   27.2760 O.co2 750  HEM750      0.0000
     38  O2D        7.4140    5.9030   26.3710 O.co2 750  HEM750      0.0000
     39  NA        14.6570    3.5620   26.1540 N.2   750  HEM750      0.0000
     40  NB        16.6850    2.9900   24.1070 N.ar  750  HEM750      0.0000
     41  NC        15.8460    5.2170   22.5370 N.2   750  HEM750      0.0000
     42  ND        13.8120    5.8080   24.6400 N.ar  750  HEM750      0.0000
     43 FE         15.5060    4.6110   24.4970 Fe    750  HEM750      0.0000
@<TRIPOS>BOND
     1    28    27    2
     2    26    23    1
     3    27    24    1
     4    23    24    2
     5    23    22    1
     6    24    25    1
     7    21    20    2
     8    22     3    2
     9    22    41    1
    10     3    18    1
    11    25    41    2
    12    25     4    1
    13    20    17    1
    14    41    43    1
    15     4    29    2
    16    18    17   ar
    17    18    40   ar
    18    17    16   ar
    19    33    30    1
    20    29    30   ar
    21    29    42   ar
    22    40    43    1
    23    40    15   ar
    24    30    31   ar
    25    43    42    1
    26    43    39    1
    27    16    15   ar
    28    16    19    1
    29    42    32   ar
    30    15     2    1
    31    31    32   ar
    32    31    34    1
    33    32     1    2
    34    35    34    1
    35    35    36    1
    36    39     8    1
    37    39     5    2
    38     2     8    2
    39    38    36   ar
    40    36    37   ar
    41     8     7    1
    42     1     5    1
    43     5     6    1
    44     7     6    2
    45     7     9    1
    46     6    10    1
    47    11    12    1
    48    11    10    1
    49    14    12   ar
    50    12    13   ar
