@<TRIPOS>MOLECULE
3jx2_H4B_A_1.pdb
 17 18 0 0 0
SMALL
GASTEIGER

@<TRIPOS>ATOM
      1  N1         9.7080    2.7070   33.8820 N.2   760  H4B760     -0.2683
      2  C2         9.8590    2.2990   32.5960 C.1   760  H4B760      0.2608
      3  N2        11.0870    2.1970   32.0760 N.pl3 760  H4B760     -0.0220
      4  N3         8.8050    2.0410   31.8260 N.2   760  H4B760     -0.2474
      5  C4         7.5480    2.1410   32.3170 C.1   760  H4B760      0.2441
      6  O4         6.5890    1.8690   31.5370 O.2   760  H4B760     -0.2063
      7  C4A        7.3650    2.5570   33.6410 C.2   760  H4B760      0.2463
      8  C8A        8.4850    2.8480   34.4190 C.1   760  H4B760      0.1270
      9  N5         6.1440    2.7080   34.1950 N.2   760  H4B760     -0.2460
     10  N8         8.4030    3.2350   35.7230 N.2   760  H4B760     -0.2054
     11  C6         6.0510    3.6320   35.3370 C.3   760  H4B760      0.1627
     12  C7         7.1110    3.3820   36.3910 C.3   760  H4B760      0.1643
     13  C9         4.6650    3.6300   35.9720 C.3   760  H4B760      0.2063
     14  O9         4.3660    2.3090   36.4210 O.3   760  H4B760     -0.2183
     15  C10        4.5540    4.5650   37.1580 C.3   760  H4B760      0.1842
     16  C11        3.1310    4.6080   37.6940 C.3   760  H4B760      0.0383
     17  O10        4.9490    5.8690   36.7510 O.3   760  H4B760     -0.2204
@<TRIPOS>BOND
     1     6     5    2
     2     4     5    2
     3     4     2    2
     4     3     2    1
     5     5     7    1
     6     2     1    2
     7     7     9    2
     8     7     8    1
     9     1     8    2
    10     9    11    1
    11     8    10    2
    12    11    13    1
    13    11    12    1
    14    10    12    1
    15    13    14    1
    16    13    15    1
    17    17    15    1
    18    15    16    1
