@<TRIPOS>MOLECULE
3jx3_H4B_A_1.pdb
 17 18 0 0 0
SMALL
GASTEIGER

@<TRIPOS>ATOM
      1  N1         9.8280    2.6260   33.7150 N.2   760  H4B760     -0.2683
      2  C2         9.9890    2.2660   32.4200 C.1   760  H4B760      0.2608
      3  N2        11.2490    2.1540   31.8890 N.pl3 760  H4B760     -0.0220
      4  N3         8.8980    2.0460   31.6520 N.2   760  H4B760     -0.2474
      5  C4         7.6450    2.1270   32.1510 C.1   760  H4B760      0.2441
      6  O4         6.6940    1.8900   31.3460 O.2   760  H4B760     -0.2063
      7  C4A        7.4720    2.5220   33.4890 C.2   760  H4B760      0.2463
      8  C8A        8.6100    2.7690   34.2740 C.1   760  H4B760      0.1270
      9  N5         6.2600    2.6710   34.0710 N.2   760  H4B760     -0.2460
     10  N8         8.5460    3.1350   35.5840 N.2   760  H4B760     -0.2054
     11  C6         6.2140    3.5770   35.2330 C.3   760  H4B760      0.1627
     12  C7         7.2760    3.2740   36.2910 C.3   760  H4B760      0.1643
     13  C9         4.8300    3.5830   35.8260 C.3   760  H4B760      0.2063
     14  O9         4.5330    2.2330   36.1660 O.3   760  H4B760     -0.2183
     15  C10        4.7280    4.4700   37.0490 C.3   760  H4B760      0.1842
     16  C11        3.2870    4.5760   37.5340 C.3   760  H4B760      0.0383
     17  O10        5.2280    5.7830   36.7270 O.3   760  H4B760     -0.2204
@<TRIPOS>BOND
     1     6     5    2
     2     4     5    2
     3     4     2    2
     4     3     2    1
     5     5     7    1
     6     2     1    2
     7     7     9    2
     8     7     8    1
     9     1     8    2
    10     9    11    1
    11     8    10    2
    12    11    13    1
    13    11    12    1
    14    10    12    1
    15    13    14    1
    16    13    15    1
    17    17    15    1
    18    15    16    1
