@<TRIPOS>MOLECULE
3jx3_HEM_A_1.pdb
 43 50 0 0 0
SMALL
GASTEIGER

@<TRIPOS>ATOM
      1  CHA       12.8840    4.7950   26.5880 C.2   750  HEM750      0.0000
      2  CHB       16.6410    1.7700   26.1320 C.2   750  HEM750      0.0000
      3  CHC       17.5300    3.5090   21.7180 C.2   750  HEM750      0.0000
      4  CHD       14.5950    7.2370   22.6460 C.2   750  HEM750      0.0000
      5  C1A       13.7220    3.7300   26.7690 C.2   750  HEM750      0.0000
      6  C2A       13.5880    2.7010   27.7500 C.2   750  HEM750      0.0000
      7  C3A       14.6210    1.8540   27.6400 C.2   750  HEM750      0.0000
      8  C4A       15.4630    2.3430   26.5650 C.2   750  HEM750      0.0000
      9  CMA       14.8970    0.5640   28.4570 C.3   750  HEM750      0.0000
     10  CAA       12.3880    2.6060   28.7090 C.3   750  HEM750      0.0000
     11  CBA       11.3690    2.1030   27.6770 C.3   750  HEM750      0.0000
     12  CGA       10.2090    1.3960   28.2870 C.2   750  HEM750      0.0000
     13  O1A       10.4030    0.7520   29.3570 O.co2 750  HEM750      0.0000
     14  O2A        9.1130    1.5170   27.6810 O.co2 750  HEM750      0.0000
     15  C1B       17.2080    1.9570   24.8950 C.ar  750  HEM750      0.0000
     16  C2B       18.3030    1.1840   24.3600 C.ar  750  HEM750      0.0000
     17  C3B       18.5570    1.6490   23.1390 C.ar  750  HEM750      0.0000
     18  C4B       17.6450    2.7580   22.8740 C.ar  750  HEM750      0.0000
     19  CMB       18.9920   -0.0040   25.0800 C.3   750  HEM750      0.0000
     20  CAB       19.6510    1.0510   22.2270 C.2   750  HEM750      0.0000
     21  CBB       20.3040    1.7600   21.3210 C.2   750  HEM750      0.0000
     22  C1C       16.8110    4.6760   21.5470 C.2   750  HEM750      0.0000
     23  C2C       16.8510    5.5270   20.3690 C.2   750  HEM750      0.0000
     24  C3C       16.0400    6.5690   20.6270 C.2   750  HEM750      0.0000
     25  C4C       15.4810    6.4080   21.9720 C.2   750  HEM750      0.0000
     26  CMC       17.6880    5.1660   19.1010 C.3   750  HEM750      0.0000
     27  CAC       15.6990    7.7780   19.7340 C.2   750  HEM750      0.0000
     28  CBC       16.2930    7.9330   18.5480 C.2   750  HEM750      0.0000
     29  C1D       13.8210    6.8870   23.7690 C.ar  750  HEM750      0.0000
     30  C2D       12.7060    7.6540   24.2750 C.ar  750  HEM750      0.0000
     31  C3D       12.2310    6.8920   25.4870 C.ar  750  HEM750      0.0000
     32  C4D       13.0590    5.7380   25.6080 C.ar  750  HEM750      0.0000
     33  CMD       12.1160    8.9940   23.7460 C.3   750  HEM750      0.0000
     34  CAD       11.0330    7.2210   26.3850 C.3   750  HEM750      0.0000
     35  CBD        9.9290    6.6410   25.4870 C.3   750  HEM750      0.0000
     36  CGD        8.5790    6.7050   26.1400 C.2   750  HEM750      0.0000
     37  O1D        8.2830    7.7100   26.8850 O.co2 750  HEM750      0.0000
     38  O2D        7.8270    5.7070   25.9060 O.co2 750  HEM750      0.0000
     39  NA        14.8790    3.4960   26.0660 N.2   750  HEM750      0.0000
     40  NB        16.8420    2.9310   23.9810 N.ar  750  HEM750      0.0000
     41  NC        15.9520    5.2280   22.4680 N.2   750  HEM750      0.0000
     42  ND        14.0090    5.7660   24.6010 N.ar  750  HEM750      0.0000
     43 FE         15.6850    4.5900   24.4530 Fe    750  HEM750      0.0000
@<TRIPOS>BOND
     1    28    27    2
     2    26    23    1
     3    27    24    1
     4    23    24    2
     5    23    22    1
     6    24    25    1
     7    21    20    2
     8    22     3    2
     9    22    41    1
    10     3    18    1
    11    25    41    2
    12    25     4    1
    13    20    17    1
    14    41    43    1
    15     4    29    2
    16    18    17   ar
    17    18    40   ar
    18    17    16   ar
    19    33    30    1
    20    29    30   ar
    21    29    42   ar
    22    40    43    1
    23    40    15   ar
    24    30    31   ar
    25    16    15   ar
    26    16    19    1
    27    43    42    1
    28    43    39    1
    29    42    32   ar
    30    15     2    1
    31    35    36    1
    32    35    34    1
    33    31    32   ar
    34    31    34    1
    35    32     1    2
    36    38    36   ar
    37    39     8    1
    38    39     5    2
    39     2     8    2
    40    36    37   ar
    41     8     7    1
    42     1     5    1
    43     5     6    1
    44     7     6    2
    45     7     9    1
    46    11    12    1
    47    11    10    1
    48    14    12   ar
    49     6    10    1
    50    12    13   ar
