@<TRIPOS>MOLECULE
3jx3_JI5_A_1.pdb
 27 29 0 0 0
SMALL
GASTEIGER

@<TRIPOS>ATOM
      1  C1         6.9150    0.1740   24.8420 C.3   800  JI5800      0.1075
      2  N1         6.5360    1.2990   25.6700 N.3   800  JI5800     -0.2164
      3  C2         8.4100   -0.0880   24.8390 C.3   800  JI5800      0.1075
      4  N2         9.2000    1.0890   24.5620 N.3   800  JI5800     -0.2162
      5  C3        10.5150    0.8140   24.0630 C.3   800  JI5800      0.0934
      6  C4        11.4370    2.0030   24.2300 C.3   800  JI5800      0.0452
      7  N1'        6.6850    1.7370   28.6530 N.3   800  JI5800     -0.2165
      8  C11       12.7030    1.6260   23.5080 C.ar  800  JI5800     -0.0185
      9  N11        5.0840    5.8550   26.7570 N.2   800  JI5800     -0.3924
     10  C12       12.9780    2.2990   22.3420 C.ar  800  JI5800      0.0254
     11  C13       14.1160    1.9670   21.6550 C.ar  800  JI5800      0.1398
     12  F13       14.3700    2.6450   20.5200 F     800  JI5800     -0.2042
     13  C14       14.9720    0.9720   22.1270 C.ar  800  JI5800      0.0296
     14  C15       14.7030    0.2720   23.2950 C.ar  800  JI5800      0.0020
     15  C16       13.5480    0.6080   23.9750 C.ar  800  JI5800     -0.0041
     16  C2'        6.2890    0.5230   27.9640 C.3   800  JI5800      0.1060
     17  C21        4.2370    4.7770   26.6520 C.2   800  JI5800      0.1098
     18  C3'        5.5570    1.0620   26.7320 C.3   800  JI5800      0.0919
     19  C31        2.9010    4.8810   27.0780 C.2   800  JI5800      0.0196
     20  C4'        4.9180    2.3820   27.1870 C.3   800  JI5800      0.0419
     21  C41        2.4330    6.0880   27.6050 C.2   800  JI5800     -0.0332
     22  C5'        5.8220    2.8690   28.3280 C.3   800  JI5800      0.0906
     23  C51        3.3260    7.1850   27.6970 C.3   800  JI5800      0.1001
     24  C61        4.6720    7.0560   27.2700 C.2   800  JI5800      0.2001
     25  N61        5.5570    8.1040   27.3420 N.pl3 800  JI5800     -0.0977
     26  C71        4.7360    3.4510   26.0790 C.3   800  JI5800      0.0619
     27  C81        0.9800    6.1650   28.0580 C.3   800  JI5800      0.0269
@<TRIPOS>BOND
     1    12    11    1
     2    11    13   ar
     3    11    10   ar
     4    13    14   ar
     5    10     8   ar
     6    14    15   ar
     7     8    15   ar
     8     8     6    1
     9     5     6    1
    10     5     4    1
    11     4     3    1
    12     3     1    1
    13     1     2    1
    14     2    18    1
    15    26    17    1
    16    26    20    1
    17    17     9    2
    18    17    19    1
    19    18    20    1
    20    18    16    1
    21     9    24    2
    22    19    21    2
    23    20    22    1
    24    24    25    1
    25    24    23    1
    26    21    23    1
    27    21    27    1
    28    16     7    1
    29    22     7    1
