@<TRIPOS>MOLECULE
3jx4_HEM_A_1.pdb
 43 50 0 0 0
SMALL
GASTEIGER

@<TRIPOS>ATOM
      1  CHA       12.5860    4.9400   26.7320 C.2   750  HEM750      0.0000
      2  CHB       16.1200    1.7760   26.2470 C.2   750  HEM750      0.0000
      3  CHC       17.4870    3.4980   21.9160 C.2   750  HEM750      0.0000
      4  CHD       14.3340    7.0950   22.7050 C.2   750  HEM750      0.0000
      5  C1A       13.3850    3.8680   26.9580 C.2   750  HEM750      0.0000
      6  C2A       13.2330    2.9180   28.0260 C.2   750  HEM750      0.0000
      7  C3A       14.2280    2.0380   27.8950 C.2   750  HEM750      0.0000
      8  C4A       15.0090    2.4130   26.7230 C.2   750  HEM750      0.0000
      9  CMA       14.4550    0.8260   28.8450 C.3   750  HEM750      0.0000
     10  CAA       12.1500    2.9050   29.1470 C.3   750  HEM750      0.0000
     11  CBA       10.7480    2.6350   28.5940 C.3   750  HEM750      0.0000
     12  CGA       10.0930    1.3610   29.1080 C.2   750  HEM750      0.0000
     13  O1A       10.7680    0.4780   29.7240 O.co2 750  HEM750      0.0000
     14  O2A        8.8460    1.2230   28.8860 O.co2 750  HEM750      0.0000
     15  C1B       16.7920    1.9940   25.0710 C.ar  750  HEM750      0.0000
     16  C2B       17.9340    1.2180   24.6300 C.ar  750  HEM750      0.0000
     17  C3B       18.3330    1.6570   23.4290 C.ar  750  HEM750      0.0000
     18  C4B       17.4560    2.7570   23.0820 C.ar  750  HEM750      0.0000
     19  CMB       18.5700    0.0420   25.3950 C.3   750  HEM750      0.0000
     20  CAB       19.5320    1.0590   22.6350 C.2   750  HEM750      0.0000
     21  CBB       19.8830    1.5020   21.4190 C.2   750  HEM750      0.0000
     22  C1C       16.6930    4.6180   21.7510 C.2   750  HEM750      0.0000
     23  C2C       16.6680    5.4650   20.5740 C.2   750  HEM750      0.0000
     24  C3C       15.7940    6.4580   20.8180 C.2   750  HEM750      0.0000
     25  C4C       15.2360    6.2610   22.1250 C.2   750  HEM750      0.0000
     26  CMC       17.4910    5.2190   19.2730 C.3   750  HEM750      0.0000
     27  CAC       15.4080    7.6130   19.8770 C.2   750  HEM750      0.0000
     28  CBC       16.3060    8.0930   19.0220 C.2   750  HEM750      0.0000
     29  C1D       13.5940    6.8580   23.8560 C.ar  750  HEM750      0.0000
     30  C2D       12.5770    7.7340   24.3450 C.ar  750  HEM750      0.0000
     31  C3D       12.0700    7.0580   25.5950 C.ar  750  HEM750      0.0000
     32  C4D       12.7950    5.8420   25.7200 C.ar  750  HEM750      0.0000
     33  CMD       12.1260    9.0970   23.7990 C.3   750  HEM750      0.0000
     34  CAD       10.9850    7.5560   26.5350 C.3   750  HEM750      0.0000
     35  CBD        9.7410    6.7790   26.1280 C.3   750  HEM750      0.0000
     36  CGD        8.6010    7.2270   26.9870 C.2   750  HEM750      0.0000
     37  O1D        8.7010    8.3330   27.6180 O.co2 750  HEM750      0.0000
     38  O2D        7.5890    6.4600   27.0100 O.co2 750  HEM750      0.0000
     39  NA        14.4630    3.5500   26.1740 N.2   750  HEM750      0.0000
     40  NB        16.5310    2.9420   24.1140 N.ar  750  HEM750      0.0000
     41  NC        15.7650    5.1120   22.6750 N.2   750  HEM750      0.0000
     42  ND        13.6920    5.7540   24.6880 N.ar  750  HEM750      0.0000
     43 FE         15.4180    4.6290   24.6490 Fe    750  HEM750      0.0000
@<TRIPOS>BOND
     1    28    27    2
     2    26    23    1
     3    27    24    1
     4    23    24    2
     5    23    22    1
     6    24    25    1
     7    21    20    2
     8    22     3    2
     9    22    41    1
    10     3    18    1
    11    25    41    2
    12    25     4    1
    13    20    17    1
    14    41    43    1
    15     4    29    2
    16    18    17   ar
    17    18    40   ar
    18    17    16   ar
    19    33    30    1
    20    29    30   ar
    21    29    42   ar
    22    40    43    1
    23    40    15   ar
    24    30    31   ar
    25    16    15   ar
    26    16    19    1
    27    43    42    1
    28    43    39    1
    29    42    32   ar
    30    15     2    1
    31    31    32   ar
    32    31    34    1
    33    32     1    2
    34    35    34    1
    35    35    36    1
    36    39     8    1
    37    39     5    2
    38     2     8    2
    39     8     7    1
    40     1     5    1
    41     5     6    1
    42    36    38   ar
    43    36    37   ar
    44     7     6    2
    45     7     9    1
    46     6    10    1
    47    11    12    1
    48    11    10    1
    49    14    12   ar
    50    12    13   ar
