@<TRIPOS>MOLECULE
3jx4_H4B_A_1.pdb
 17 18 0 0 0
SMALL
GASTEIGER

@<TRIPOS>ATOM
      1  N1         9.7240    2.7240   34.0900 N.2   760  H4B760     -0.2683
      2  C2         9.8930    2.3040   32.8310 C.1   760  H4B760      0.2608
      3  N2        11.1510    2.1880   32.3590 N.pl3 760  H4B760     -0.0220
      4  N3         8.8150    2.0330   32.0580 N.2   760  H4B760     -0.2474
      5  C4         7.5520    2.1760   32.5280 C.1   760  H4B760      0.2441
      6  O4         6.5780    1.9110   31.7570 O.2   760  H4B760     -0.2063
      7  C4A        7.3770    2.6190   33.8300 C.2   760  H4B760      0.2463
      8  C8A        8.4880    2.8940   34.5990 C.1   760  H4B760      0.1270
      9  N5         6.1670    2.7890   34.4070 N.2   760  H4B760     -0.2460
     10  N8         8.3780    3.2970   35.8800 N.2   760  H4B760     -0.2054
     11  C6         6.0480    3.7490   35.5040 C.3   760  H4B760      0.1627
     12  C7         7.0980    3.4810   36.5470 C.3   760  H4B760      0.1643
     13  C9         4.6770    3.7370   36.1660 C.3   760  H4B760      0.2063
     14  O9         4.3590    2.3980   36.5180 O.3   760  H4B760     -0.2183
     15  C10        4.6440    4.6140   37.4040 C.3   760  H4B760      0.1842
     16  C11        3.3110    4.5270   38.1410 C.3   760  H4B760      0.0383
     17  O10        4.8780    5.9680   37.0150 O.3   760  H4B760     -0.2204
@<TRIPOS>BOND
     1     6     5    2
     2     4     5    2
     3     4     2    2
     4     3     2    1
     5     5     7    1
     6     2     1    2
     7     7     9    2
     8     7     8    1
     9     1     8    2
    10     9    11    1
    11     8    10    2
    12    11    13    1
    13    11    12    1
    14    10    12    1
    15    13    14    1
    16    13    15    1
    17    17    15    1
    18    15    16    1
