@<TRIPOS>MOLECULE
3jx4_J11_A_1.pdb
 27 29 0 0 0
SMALL
GASTEIGER

@<TRIPOS>ATOM
      1  C1         7.7540    3.4600   24.8540 C.3   800  J11800      0.1075
      2  N1         7.6750    2.0200   24.8970 N.3   800  J11800     -0.2164
      3  C2         6.3590    4.0320   25.0230 C.3   800  J11800      0.1075
      4  N2         5.9540    3.9200   26.4120 N.3   800  J11800     -0.2162
      5  C3         4.5660    3.6920   26.7350 C.3   800  J11800      0.0934
      6  C4         4.2530    4.2390   28.1200 C.3   800  J11800      0.0452
      7  N1'        9.2320   -1.0200   25.3950 N.3   800  J11800     -0.2165
      8  C11        2.8380    4.7570   28.1050 C.ar  800  J11800     -0.0185
      9  N11       13.1730    0.6460   24.2890 N.2   800  J11800     -0.3924
     10  C12        2.6080    6.1270   28.2240 C.ar  800  J11800      0.0254
     11  C13        1.2980    6.6090   28.2070 C.ar  800  J11800      0.1398
     12  F13        1.0600    7.9310   28.3230 F     800  J11800     -0.2042
     13  C14        0.2350    5.7160   28.0640 C.ar  800  J11800      0.0296
     14  C15        0.4630    4.3430   27.9480 C.ar  800  J11800      0.0020
     15  C16        1.7690    3.8630   27.9690 C.ar  800  J11800     -0.0041
     16  C2'        8.3420   -0.0690   26.0270 C.3   800  J11800      0.1060
     17  C21       12.2670    1.5930   23.9310 C.2   800  J11800      0.1098
     18  C3'        8.7730    1.2880   25.4710 C.3   800  J11800      0.0919
     19  C31       12.4570    2.3480   22.7710 C.2   800  J11800      0.0196
     20  C4'        9.8260    1.0580   24.3930 C.3   800  J11800      0.0419
     21  C41       13.5710    2.0970   22.0040 C.2   800  J11800     -0.0332
     22  C5'       10.0150   -0.4550   24.2890 C.3   800  J11800      0.0906
     23  C51       14.4810    1.1280   22.3890 C.3   800  J11800      0.1001
     24  C61       14.2590    0.4090   23.5410 C.2   800  J11800      0.2001
     25  N61       15.1240   -0.5450   23.9240 N.pl3 800  J11800     -0.0977
     26  C71       11.0660    1.8310   24.8190 C.3   800  J11800      0.0619
     27  C81       13.8030    2.8580   20.7320 C.3   800  J11800      0.0269
@<TRIPOS>BOND
     1    27    21    1
     2    21    23    1
     3    21    19    2
     4    23    24    1
     5    19    17    1
     6    24    25    1
     7    24     9    2
     8    17     9    2
     9    17    26    1
    10    22    20    1
    11    22     7    1
    12    20    26    1
    13    20    18    1
    14     1     2    1
    15     1     3    1
    16     2    18    1
    17     3     4    1
    18     7    16    1
    19    18    16    1
    20     4     5    1
    21     5     6    1
    22    14    15   ar
    23    14    13   ar
    24    15     8   ar
    25    13    11   ar
    26     8     6    1
    27     8    10   ar
    28    11    10   ar
    29    11    12    1
