@<TRIPOS>MOLECULE
3jx5_J14_A_1.pdb
 27 29 0 0 0
SMALL
GASTEIGER

@<TRIPOS>ATOM
      1  C1         7.1180   -1.0120   25.7220 C.3   800  J14800      0.1075
      2  N1         7.9200   -0.2380   24.7660 N.3   800  J14800     -0.2164
      3  C2         5.6500   -1.2230   25.3080 C.3   800  J14800      0.1075
      4  N2         4.6680   -0.7580   26.2820 N.3   800  J14800     -0.2162
      5  C3         4.0640    0.5720   26.2190 C.3   800  J14800      0.0934
      6  C4         4.7680    1.5890   27.1290 C.3   800  J14800      0.0452
      7  N1'        7.9850    3.3270   24.8070 N.3   800  J14800     -0.2165
      8  C11        3.8250    2.5800   27.7900 C.ar  800  J14800     -0.0185
      9  N11       13.1630    0.4250   24.1810 N.2   800  J14800     -0.3922
     10  C12        3.5580    3.8230   27.1920 C.ar  800  J14800      0.0254
     11  C13        2.6850    4.7270   27.8180 C.ar  800  J14800      0.1398
     12  F13        2.4120    5.9210   27.2560 F     800  J14800     -0.2042
     13  C14        2.0870    4.3900   29.0370 C.ar  800  J14800      0.0296
     14  C15        2.3590    3.1570   29.6420 C.ar  800  J14800      0.0020
     15  C16        3.2280    2.2560   29.0190 C.ar  800  J14800     -0.0041
     16  C2'        7.3540    2.1000   25.2120 C.3   800  J14800      0.1060
     17  C21       12.2010    1.3170   23.8300 C.2   800  J14800      0.0925
     18  C3'        8.4710    1.0580   25.1430 C.3   800  J14800      0.0919
     19  C31       12.4260    2.0890   22.6830 C.3   800  J14800      0.0766
     20  C4'        9.5710    1.6270   24.2350 C.3   800  J14800      0.0415
     21  C41       13.5940    1.8980   21.9310 C.2   800  J14800     -0.0333
     22  C5'        9.3220    3.1310   24.2750 C.3   800  J14800      0.0906
     23  C51       14.5430    0.9690   22.3310 C.2   800  J14800      0.0427
     24  C61       14.2970    0.2380   23.4800 C.2   800  J14800      0.2178
     25  N61       15.1780   -0.6800   23.9140 N.pl3 800  J14800     -0.0932
     26  C71       10.9870    1.4110   24.7600 C.3   800  J14800      0.0577
     27  C81       13.8510    2.6810   20.6730 C.3   800  J14800      0.0269
@<TRIPOS>BOND
     1    27    21    1
     2    21    23    2
     3    21    19    1
     4    23    24    1
     5    19    17    1
     6    24    25    1
     7    24     9    2
     8    17     9    2
     9    17    26    1
    10    20    22    1
    11    20    26    1
    12    20    18    1
    13    22     7    1
    14     2    18    1
    15     2     1    1
    16     7    16    1
    17    18    16    1
    18     3     1    1
    19     3     4    1
    20     5     4    1
    21     5     6    1
    22     6     8    1
    23    10     8   ar
    24    10    11   ar
    25    12    11    1
    26     8    15   ar
    27    11    13   ar
    28    15    14   ar
    29    13    14   ar
