@<TRIPOS>MOLECULE
3jx5_H4B_A_1.pdb
 17 18 0 0 0
SMALL
GASTEIGER

@<TRIPOS>ATOM
      1  N1         9.7470    2.5460   33.9200 N.2   760  H4B760     -0.2683
      2  C2         9.9130    2.1290   32.6510 C.1   760  H4B760      0.2608
      3  N2        11.1810    2.0200   32.1500 N.pl3 760  H4B760     -0.0220
      4  N3         8.8350    1.8330   31.8990 N.2   760  H4B760     -0.2474
      5  C4         7.5770    1.9580   32.3770 C.1   760  H4B760      0.2441
      6  O4         6.6340    1.6370   31.5810 O.2   760  H4B760     -0.2063
      7  C4A        7.3920    2.4060   33.7080 C.2   760  H4B760      0.2463
      8  C8A        8.5290    2.7040   34.4680 C.1   760  H4B760      0.1270
      9  N5         6.1820    2.5500   34.3180 N.2   760  H4B760     -0.2460
     10  N8         8.4670    3.1200   35.7770 N.2   760  H4B760     -0.2054
     11  C6         6.0820    3.4760   35.4660 C.3   760  H4B760      0.1627
     12  C7         7.1960    3.2820   36.4890 C.3   760  H4B760      0.1643
     13  C9         4.6990    3.5160   36.1270 C.3   760  H4B760      0.2063
     14  O9         4.2730    2.1790   36.4190 O.3   760  H4B760     -0.2183
     15  C10        4.6480    4.3940   37.3830 C.3   760  H4B760      0.1842
     16  C11        3.2680    4.4250   38.0400 C.3   760  H4B760      0.0383
     17  O10        5.0120    5.7270   37.0330 O.3   760  H4B760     -0.2204
@<TRIPOS>BOND
     1     6     5    2
     2     4     5    2
     3     4     2    2
     4     3     2    1
     5     5     7    1
     6     2     1    2
     7     7     9    2
     8     7     8    1
     9     1     8    2
    10     9    11    1
    11     8    10    2
    12    11    13    1
    13    11    12    1
    14    10    12    1
    15    13    14    1
    16    13    15    1
    17    17    15    1
    18    15    16    1
