@<TRIPOS>MOLECULE
3jx5_HEM_A_1.pdb
 43 50 0 0 0
SMALL
GASTEIGER

@<TRIPOS>ATOM
      1  CHA       12.6490    4.8400   26.7280 C.2   750  HEM750      0.0000
      2  CHB       16.3700    1.8100   26.2660 C.2   750  HEM750      0.0000
      3  CHC       17.3700    3.4410   21.7930 C.2   750  HEM750      0.0000
      4  CHD       14.4280    7.1680   22.7370 C.2   750  HEM750      0.0000
      5  C1A       13.4860    3.7810   26.9400 C.2   750  HEM750      0.0000
      6  C2A       13.3510    2.7910   27.9590 C.2   750  HEM750      0.0000
      7  C3A       14.3700    1.9440   27.8420 C.2   750  HEM750      0.0000
      8  C4A       15.1950    2.3830   26.7290 C.2   750  HEM750      0.0000
      9  CMA       14.5840    0.6990   28.7360 C.3   750  HEM750      0.0000
     10  CAA       12.1680    2.6960   28.9660 C.3   750  HEM750      0.0000
     11  CBA       11.2720    1.7960   28.1080 C.3   750  HEM750      0.0000
     12  CGA       10.0650    1.1920   28.7440 C.2   750  HEM750      0.0000
     13  O1A       10.2440    0.5450   29.8100 O.co2 750  HEM750      0.0000
     14  O2A        8.9560    1.3410   28.1370 O.co2 750  HEM750      0.0000
     15  C1B       16.9270    1.9830   25.0270 C.ar  750  HEM750      0.0000
     16  C2B       18.0380    1.1920   24.5270 C.ar  750  HEM750      0.0000
     17  C3B       18.3160    1.6220   23.2990 C.ar  750  HEM750      0.0000
     18  C4B       17.4170    2.7310   22.9900 C.ar  750  HEM750      0.0000
     19  CMB       18.7420    0.0130   25.2590 C.3   750  HEM750      0.0000
     20  CAB       19.4230    1.0230   22.4000 C.2   750  HEM750      0.0000
     21  CBB       20.0060    1.7760   21.4690 C.2   750  HEM750      0.0000
     22  C1C       16.6530    4.6090   21.6350 C.2   750  HEM750      0.0000
     23  C2C       16.6810    5.4630   20.4800 C.2   750  HEM750      0.0000
     24  C3C       15.8620    6.4880   20.7780 C.2   750  HEM750      0.0000
     25  C4C       15.3120    6.3200   22.1020 C.2   750  HEM750      0.0000
     26  CMC       17.5050    5.1490   19.1740 C.3   750  HEM750      0.0000
     27  CAC       15.5170    7.6980   19.9220 C.2   750  HEM750      0.0000
     28  CBC       16.3590    7.9930   18.9550 C.2   750  HEM750      0.0000
     29  C1D       13.6360    6.8570   23.8390 C.ar  750  HEM750      0.0000
     30  C2D       12.5230    7.6440   24.3130 C.ar  750  HEM750      0.0000
     31  C3D       12.0270    6.9280   25.5610 C.ar  750  HEM750      0.0000
     32  C4D       12.8380    5.7600   25.7100 C.ar  750  HEM750      0.0000
     33  CMD       11.9460    8.9680   23.7560 C.3   750  HEM750      0.0000
     34  CAD       10.8450    7.3200   26.4500 C.3   750  HEM750      0.0000
     35  CBD        9.5820    6.6900   25.8510 C.3   750  HEM750      0.0000
     36  CGD        8.4250    6.9890   26.7940 C.2   750  HEM750      0.0000
     37  O1D        8.4940    8.0580   27.4830 O.co2 750  HEM750      0.0000
     38  O2D        7.4420    6.1730   26.8620 O.co2 750  HEM750      0.0000
     39  NA        14.6240    3.5200   26.2130 N.2   750  HEM750      0.0000
     40  NB        16.5990    2.9480   24.0840 N.ar  750  HEM750      0.0000
     41  NC        15.7890    5.1360   22.5750 N.2   750  HEM750      0.0000
     42  ND        13.8080    5.7580   24.6940 N.ar  750  HEM750      0.0000
     43 FE         15.4860    4.5940   24.5550 Fe    750  HEM750      0.0000
@<TRIPOS>BOND
     1    28    27    2
     2    26    23    1
     3    27    24    1
     4    23    24    2
     5    23    22    1
     6    24    25    1
     7    21    20    2
     8    22     3    2
     9    22    41    1
    10     3    18    1
    11    25    41    2
    12    25     4    1
    13    20    17    1
    14    41    43    1
    15     4    29    2
    16    18    17   ar
    17    18    40   ar
    18    17    16   ar
    19    33    30    1
    20    29    30   ar
    21    29    42   ar
    22    40    43    1
    23    40    15   ar
    24    30    31   ar
    25    16    15   ar
    26    16    19    1
    27    43    42    1
    28    43    39    1
    29    42    32   ar
    30    15     2    1
    31    31    32   ar
    32    31    34    1
    33    32     1    2
    34    35    34    1
    35    35    36    1
    36    39     8    1
    37    39     5    2
    38     2     8    2
    39     1     5    1
    40     8     7    1
    41    36    38   ar
    42    36    37   ar
    43     5     6    1
    44     7     6    2
    45     7     9    1
    46     6    10    1
    47    11    12    1
    48    11    10    1
    49    14    12   ar
    50    12    13   ar
