@<TRIPOS>MOLECULE
3jx6_JI5_A_1.pdb
 27 29 0 0 0
SMALL
GASTEIGER

@<TRIPOS>ATOM
      1  C1         7.0710   -0.0140   25.0550 C.3   800  JI5800      0.1075
      2  N1         6.4350    1.0990   25.7300 N.3   800  JI5800     -0.2164
      3  C2         8.5900   -0.0040   25.1360 C.3   800  JI5800      0.1075
      4  N2         9.1480    1.1560   24.4760 N.3   800  JI5800     -0.2162
      5  C3        10.4490    1.0180   23.8740 C.3   800  JI5800      0.0934
      6  C4        11.5070    2.0220   24.3380 C.3   800  JI5800      0.0452
      7  N1'        6.7600    1.7340   28.6790 N.3   800  JI5800     -0.2165
      8  C11       12.7610    1.6610   23.5360 C.ar  800  JI5800     -0.0185
      9  N11        5.0770    5.5560   26.6080 N.2   800  JI5800     -0.3924
     10  C12       13.0380    2.3120   22.3280 C.ar  800  JI5800      0.0254
     11  C13       14.1580    1.9590   21.5890 C.ar  800  JI5800      0.1398
     12  F13       14.4210    2.5890   20.4190 F     800  JI5800     -0.2042
     13  C14       15.0030    0.9490   22.0470 C.ar  800  JI5800      0.0296
     14  C15       14.7350    0.2850   23.2380 C.ar  800  JI5800      0.0020
     15  C16       13.6100    0.6310   23.9780 C.ar  800  JI5800     -0.0041
     16  C2'        6.4320    0.4580   28.0720 C.3   800  JI5800      0.1060
     17  C21        4.1870    4.5180   26.5560 C.2   800  JI5800      0.1098
     18  C3'        5.5710    0.8580   26.8780 C.3   800  JI5800      0.0919
     19  C31        2.8450    4.7230   26.8900 C.2   800  JI5800      0.0196
     20  C4'        4.8770    2.1590   27.2970 C.3   800  JI5800      0.0419
     21  C41        2.4220    5.9830   27.2870 C.2   800  JI5800     -0.0332
     22  C5'        5.7800    2.7730   28.3720 C.3   800  JI5800      0.0906
     23  C51        3.3490    7.0330   27.3410 C.3   800  JI5800      0.1001
     24  C61        4.6890    6.8010   26.9960 C.2   800  JI5800      0.2001
     25  N61        5.5960    7.8140   27.0430 N.pl3 800  JI5800     -0.0977
     26  C71        4.6330    3.1270   26.1250 C.3   800  JI5800      0.0619
     27  C81        0.9670    6.1860   27.6410 C.3   800  JI5800      0.0269
@<TRIPOS>BOND
     1    12    11    1
     2    11    13   ar
     3    11    10   ar
     4    13    14   ar
     5    10     8   ar
     6    14    15   ar
     7     8    15   ar
     8     8     6    1
     9     5     6    1
    10     5     4    1
    11     4     3    1
    12     1     3    1
    13     1     2    1
    14     2    18    1
    15    26    17    1
    16    26    20    1
    17    17     9    2
    18    17    19    1
    19     9    24    2
    20    18    20    1
    21    18    16    1
    22    19    21    2
    23    24    25    1
    24    24    23    1
    25    21    23    1
    26    21    27    1
    27    20    22    1
    28    16     7    1
    29    22     7    1
