@<TRIPOS>MOLECULE
3jx6_HEM_A_1.pdb
 43 50 0 0 0
SMALL
GASTEIGER

@<TRIPOS>ATOM
      1  CHA       12.9000    4.8420   26.4090 C.2   750  HEM750      0.0000
      2  CHB       16.6050    1.7580   26.0070 C.2   750  HEM750      0.0000
      3  CHC       17.6390    3.4910   21.5920 C.2   750  HEM750      0.0000
      4  CHD       14.7670    7.2570   22.6270 C.2   750  HEM750      0.0000
      5  C1A       13.7670    3.7980   26.6440 C.2   750  HEM750      0.0000
      6  C2A       13.6540    2.8080   27.6780 C.2   750  HEM750      0.0000
      7  C3A       14.6740    1.9480   27.5700 C.2   750  HEM750      0.0000
      8  C4A       15.4730    2.3750   26.4450 C.2   750  HEM750      0.0000
      9  CMA       14.9420    0.7180   28.4790 C.3   750  HEM750      0.0000
     10  CAA       12.5480    2.7360   28.7290 C.3   750  HEM750      0.0000
     11  CBA       11.2380    2.7300   27.9470 C.3   750  HEM750      0.0000
     12  CGA       10.4070    1.5510   28.3390 C.2   750  HEM750      0.0000
     13  O1A       10.8700    0.7800   29.2360 O.co2 750  HEM750      0.0000
     14  O2A        9.2870    1.4500   27.7520 O.co2 750  HEM750      0.0000
     15  C1B       17.2100    1.9690   24.8040 C.ar  750  HEM750      0.0000
     16  C2B       18.3810    1.2560   24.3420 C.ar  750  HEM750      0.0000
     17  C3B       18.6900    1.7090   23.1180 C.ar  750  HEM750      0.0000
     18  C4B       17.7230    2.7500   22.7720 C.ar  750  HEM750      0.0000
     19  CMB       19.1130    0.1590   25.1400 C.3   750  HEM750      0.0000
     20  CAB       19.8900    1.1830   22.2850 C.2   750  HEM750      0.0000
     21  CBB       20.2910    1.7180   21.1280 C.2   750  HEM750      0.0000
     22  C1C       16.8960    4.6650   21.4660 C.2   750  HEM750      0.0000
     23  C2C       16.8520    5.5630   20.3100 C.2   750  HEM750      0.0000
     24  C3C       16.0510    6.5810   20.6440 C.2   750  HEM750      0.0000
     25  C4C       15.5930    6.3770   21.9810 C.2   750  HEM750      0.0000
     26  CMC       17.5770    5.3450   18.9490 C.3   750  HEM750      0.0000
     27  CAC       15.6210    7.8140   19.8180 C.2   750  HEM750      0.0000
     28  CBC       16.1060    7.9910   18.5910 C.2   750  HEM750      0.0000
     29  C1D       13.9680    6.9490   23.6950 C.ar  750  HEM750      0.0000
     30  C2D       12.9000    7.7750   24.1420 C.ar  750  HEM750      0.0000
     31  C3D       12.3290    7.0110   25.3310 C.ar  750  HEM750      0.0000
     32  C4D       13.0930    5.8070   25.4490 C.ar  750  HEM750      0.0000
     33  CMD       12.4340    9.1350   23.5880 C.3   750  HEM750      0.0000
     34  CAD       11.1200    7.4310   26.1680 C.3   750  HEM750      0.0000
     35  CBD       10.0120    6.8370   25.2870 C.3   750  HEM750      0.0000
     36  CGD        8.7180    6.7500   26.0400 C.2   750  HEM750      0.0000
     37  O1D        8.4000    7.6840   26.8260 O.co2 750  HEM750      0.0000
     38  O2D        8.0140    5.7310   25.8430 O.co2 750  HEM750      0.0000
     39  NA        14.8950    3.5050   25.9020 N.2   750  HEM750      0.0000
     40  NB        16.8270    2.8780   23.8350 N.ar  750  HEM750      0.0000
     41  NC        16.1030    5.2020   22.4710 N.2   750  HEM750      0.0000
     42  ND        14.0710    5.8180   24.4820 N.ar  750  HEM750      0.0000
     43 FE         15.7300    4.5730   24.3710 Fe    750  HEM750      0.0000
@<TRIPOS>BOND
     1    28    27    2
     2    26    23    1
     3    27    24    1
     4    23    24    2
     5    23    22    1
     6    24    25    1
     7    21    20    2
     8    22     3    2
     9    22    41    1
    10     3    18    1
    11    25    41    2
    12    25     4    1
    13    20    17    1
    14    41    43    1
    15     4    29    2
    16    18    17   ar
    17    18    40   ar
    18    17    16   ar
    19    33    30    1
    20    29    30   ar
    21    29    42   ar
    22    40    43    1
    23    40    15   ar
    24    30    31   ar
    25    16    15   ar
    26    16    19    1
    27    43    42    1
    28    43    39    1
    29    42    32   ar
    30    15     2    1
    31    35    36    1
    32    35    34    1
    33    31    32   ar
    34    31    34    1
    35    32     1    2
    36    38    36   ar
    37    39     8    1
    38    39     5    2
    39     2     8    2
    40    36    37   ar
    41     1     5    1
    42     8     7    1
    43     5     6    1
    44     7     6    2
    45     7     9    1
    46     6    10    1
    47    14    12   ar
    48    11    12    1
    49    11    10    1
    50    12    13   ar
