@<TRIPOS>MOLECULE
3jx6_H4B_A_1.pdb
 17 18 0 0 0
SMALL
GASTEIGER

@<TRIPOS>ATOM
      1  N1         9.7730    2.6640   33.5910 N.2   760  H4B760     -0.2683
      2  C2         9.8810    2.2750   32.2940 C.1   760  H4B760      0.2608
      3  N2        11.1160    2.1730   31.6950 N.pl3 760  H4B760     -0.0220
      4  N3         8.7550    2.0050   31.5860 N.2   760  H4B760     -0.2474
      5  C4         7.5470    2.0790   32.1340 C.1   760  H4B760      0.2441
      6  O4         6.5710    1.7880   31.4030 O.2   760  H4B760     -0.2063
      7  C4A        7.4150    2.4730   33.4770 C.2   760  H4B760      0.2463
      8  C8A        8.5740    2.7640   34.1990 C.1   760  H4B760      0.1270
      9  N5         6.2070    2.5980   34.1100 N.2   760  H4B760     -0.2460
     10  N8         8.5290    3.1530   35.5030 N.2   760  H4B760     -0.2054
     11  C6         6.1830    3.5710   35.1980 C.3   760  H4B760      0.1627
     12  C7         7.2630    3.2770   36.2290 C.3   760  H4B760      0.1643
     13  C9         4.8100    3.6100   35.8390 C.3   760  H4B760      0.2063
     14  O9         4.5030    2.2900   36.2540 O.3   760  H4B760     -0.2183
     15  C10        4.7510    4.5150   37.0520 C.3   760  H4B760      0.1842
     16  C11        3.3540    4.4670   37.6420 C.3   760  H4B760      0.0383
     17  O10        5.1190    5.8410   36.6610 O.3   760  H4B760     -0.2204
@<TRIPOS>BOND
     1     6     5    2
     2     4     5    2
     3     4     2    2
     4     3     2    1
     5     5     7    1
     6     2     1    2
     7     7     9    2
     8     7     8    1
     9     1     8    2
    10     9    11    1
    11     8    10    2
    12    11    13    1
    13    11    12    1
    14    10    12    1
    15    13    14    1
    16    13    15    1
    17    17    15    1
    18    15    16    1
