@<TRIPOS>MOLECULE
3jxe_TYM_A_1.pdb
 37 41 0 0 0
SMALL
GASTEIGER

@<TRIPOS>ATOM
      1  P        -38.9950   29.4220   13.7960 P.3   400  TYM400      0.2723
      2  O1P      -39.8820   28.6870   14.7270 O.3   400  TYM400     -0.4273
      3  O2P      -38.2810   30.6280   14.2630 O.2   400  TYM400     -0.5082
      4  O5'      -39.8540   29.8560   12.4990 O.3   400  TYM400     -0.3024
      5  C5'      -40.7210   28.9130   11.8640 C.3   400  TYM400      0.1823
      6  C4'      -40.7270   29.0750   10.3280 C.3   400  TYM400      0.1822
      7  O4'      -41.2620   30.3700    9.9600 O.3   400  TYM400     -0.3135
      8  C1'      -40.2640   31.1070    9.1870 C.3   400  TYM400      0.3186
      9  N9       -40.4460   32.5020    9.6680 N.pl3 400  TYM400     -0.1439
     10  C4       -40.9980   33.5040    8.9840 C.2   400  TYM400      0.3518
     11  N3       -41.5050   33.6170    7.7430 N.2   400  TYM400     -0.0055
     12  C2       -41.9970   34.7740    7.3100 C.3   400  TYM400      0.5254
     13  N1       -42.0060   35.8570    8.0770 N.2   400  TYM400      0.0021
     14  C6       -41.5160   35.8130    9.3280 C.2   400  TYM400      0.4393
     15  N6       -41.5300   36.9000   10.0930 N.pl3 400  TYM400      0.2180
     16  C5       -40.9930   34.6170    9.8110 C.2   400  TYM400      0.2526
     17  N7       -40.4490   34.2500   10.9650 N.2   400  TYM400     -0.2095
     18  C8       -40.1210   32.9620   10.8790 C.3   400  TYM400      0.3377
     19  C2'      -38.9240   30.4520    9.5310 C.3   400  TYM400      0.2570
     20  O2'      -38.0250   30.5590    8.4260 O.3   400  TYM400     -0.2130
     21  C3'      -39.3200   28.9920    9.7250 C.3   400  TYM400      0.2184
     22  O3'      -39.4100   28.3240    8.4560 O.3   400  TYM400     -0.2174
     23  NH3      -34.9860   26.5840   14.3760 N.3   400  TYM400     -0.1206
     24  CA       -36.2310   26.6660   13.5990 C.3   400  TYM400      0.1946
     25  CB       -36.9940   25.3480   13.7200 C.3   400  TYM400      0.0584
     26  CG       -36.6870   24.3960   12.5270 C.2   400  TYM400      0.0001
     27  CD2      -36.8620   24.6320   11.1660 C.2   400  TYM400      0.0113
     28  CE2      -36.4490   23.4850   10.4750 C.2   400  TYM400      0.0804
     29  CE3      -37.3430   25.7320   10.4570 C.2   400  TYM400     -0.0202
     30  CD1      -36.1860   23.1440   12.6230 C.2   400  TYM400      0.0946
     31  NE1      -36.0340   22.5700   11.3480 N.2   400  TYM400     -0.2442
     32  CZ2      -36.5180   23.4440    9.0870 C.2   400  TYM400      0.0148
     33  CZ3      -37.4080   25.6880    9.0630 C.3   400  TYM400      0.0521
     34  CH2      -36.9970   24.5430    8.3780 C.2   400  TYM400     -0.0199
     35  C        -37.1060   27.8070   14.1270 C.2   400  TYM400      0.3389
     36  O        -37.0460   28.1390   15.3110 O.2   400  TYM400     -0.2482
     37  OPP      -37.9150   28.3810   13.1750 O.3   400  TYM400     -0.4091
@<TRIPOS>BOND
     1    12    11    1
     2    12    13    1
     3    11    10    2
     4    13    14    2
     5    34    33    1
     6    34    32    2
     7    20    19    1
     8    22    21    1
     9    10     9    1
    10    10    16    1
    11    33    29    1
    12    32    28    1
    13     8    19    1
    14     8     9    1
    15     8     7    1
    16    14    16    1
    17    14    15    1
    18    19    21    1
    19     9    18    1
    20    21     6    1
    21    16    17    2
    22     7     6    1
    23     6     5    1
    24    29    27    2
    25    28    27    1
    26    28    31    2
    27    18    17    1
    28    27    26    1
    29    31    30    1
    30     5     4    1
    31     4     1    1
    32    26    30    2
    33    26    25    1
    34    37     1    1
    35    37    35    1
    36    24    25    1
    37    24    35    1
    38    24    23    1
    39     1     3    2
    40     1     2    1
    41    35    36    2
