@<TRIPOS>MOLECULE
3jxu_ADP_A_1.pdb
 27 29 0 0 0
SMALL
GASTEIGER

@<TRIPOS>ATOM
      1  PB        -4.5500  -12.4830   17.9670 P.3   486  ADP486      0.5373
      2  O1B       -5.9600  -12.7380   17.4830 O.3   486  ADP486     -0.1143
      3  O2B       -3.7780  -11.3920   17.2540 O.2   486  ADP486     -0.2221
      4  O3B       -4.5880  -12.4300   19.4790 O.3   486  ADP486     -0.1143
      5  PA        -3.2660  -14.6510   16.3750 P.3   486  ADP486      0.2231
      6  O1A       -3.3270  -13.7550   15.1740 O.2   486  ADP486     -0.5169
      7  O2A       -2.0330  -15.3990   16.8240 O.3   486  ADP486     -0.4370
      8  O3A       -3.6620  -13.8120   17.7170 O.3   486  ADP486     -0.2261
      9  O5'       -4.4630  -15.7260   16.2700 O.3   486  ADP486     -0.3111
     10  C5'       -4.6840  -16.6740   17.3030 C.3   486  ADP486      0.1813
     11  C4'       -5.6770  -17.6710   16.7410 C.3   486  ADP486      0.1821
     12  O4'       -5.1000  -18.3310   15.5990 O.3   486  ADP486     -0.3135
     13  C3'       -6.0410  -18.7330   17.7670 C.3   486  ADP486      0.2184
     14  O3'       -7.4570  -18.8220   17.7980 O.3   486  ADP486     -0.2174
     15  C2'       -5.3390  -19.9630   17.2250 C.3   486  ADP486      0.2570
     16  O2'       -5.9160  -21.2210   17.5910 O.3   486  ADP486     -0.2130
     17  C1'       -5.4300  -19.6890   15.7370 C.3   486  ADP486      0.3186
     18  N9        -4.5210  -20.4650   14.8780 N.pl3 486  ADP486     -0.1439
     19  C8        -3.1760  -20.4770   14.9160 C.3   486  ADP486      0.3377
     20  N7        -2.7070  -21.3030   13.9600 N.2   486  ADP486     -0.2095
     21  C5        -3.7610  -21.7940   13.2980 C.2   486  ADP486      0.2526
     22  C6        -3.9490  -22.7300   12.1840 C.2   486  ADP486      0.4393
     23  N6        -2.8540  -23.2660   11.5870 N.pl3 486  ADP486      0.2180
     24  N1        -5.2070  -22.9880   11.7930 N.2   486  ADP486      0.0021
     25  C2        -6.2840  -22.4430   12.4040 C.3   486  ADP486      0.5254
     26  N3        -6.1890  -21.5800   13.4370 N.2   486  ADP486     -0.0055
     27  C4        -4.9630  -21.2350   13.9080 C.2   486  ADP486      0.3518
@<TRIPOS>BOND
     1    23    22    1
     2    24    22    2
     3    24    25    1
     4    22    21    1
     5    25    26    1
     6    21    27    1
     7    21    20    2
     8    26    27    2
     9    27    18    1
    10    20    19    1
    11    18    19    1
    12    18    17    1
    13     6     5    2
    14    12    17    1
    15    12    11    1
    16    17    15    1
    17     9     5    1
    18     9    10    1
    19     5     7    1
    20     5     8    1
    21    11    10    1
    22    11    13    1
    23    15    16    1
    24    15    13    1
    25     3     1    2
    26     2     1    1
    27     8     1    1
    28    13    14    1
    29     1     4    1
