@<TRIPOS>MOLECULE
3jxw_LXG_A_1.pdb
 23 26 0 0 0
SMALL
GASTEIGER

@<TRIPOS>ATOM
      1  C1       -23.8040  -30.7810   -2.2150 C.3   1000  LXG1000     0.0906
      2  N1       -22.3860  -30.7450   -2.6910 N.3   1000  LXG1000    -0.2557
      3  O1       -22.1930  -31.5690    2.5440 O.2   1000  LXG1000    -0.2122
      4  S1       -23.1440  -34.5910    2.5860 S.3   1000  LXG1000    -0.0895
      5  C2       -21.8330  -29.4130   -3.0940 C.3   1000  LXG1000     0.0906
      6  N2       -22.1860  -33.5700   -1.0310 N.2   1000  LXG1000    -0.3440
      7  C3       -21.3750  -31.6060   -2.0380 C.3   1000  LXG1000     0.2001
      8  N3       -21.7900  -31.6270    0.2900 N.2   1000  LXG1000    -0.2723
      9  C4       -21.8280  -32.3440   -0.8610 C.1   1000  LXG1000     0.1421
     10  C5       -22.5990  -34.2130    0.1530 C.2   1000  LXG1000     0.1484
     11  C6       -23.0350  -35.5720    0.2340 C.ar  1000  LXG1000     0.0340
     12  C7       -23.1460  -36.5070   -0.7790 C.ar  1000  LXG1000     0.0028
     13  C8       -23.6160  -37.7740   -0.4540 C.ar  1000  LXG1000    -0.0002
     14  C9       -23.7640  -38.8040   -1.5420 C.2   1000  LXG1000    -0.0046
     15  C10      -24.1970  -38.3980   -2.7600 C.2   1000  LXG1000    -0.0265
     16  C11      -24.4620  -39.0820   -4.0390 C.3   1000  LXG1000     0.0220
     17  C12      -25.2410  -38.3800   -5.1440 C.3   1000  LXG1000     0.0047
     18  C13      -23.7730  -38.6160   -5.2980 C.3   1000  LXG1000     0.0047
     19  C14      -23.9480  -38.0730    0.8640 C.ar  1000  LXG1000     0.0005
     20  C15      -23.8420  -37.1700    1.9080 C.ar  1000  LXG1000     0.0063
     21  C16      -23.3810  -35.9290    1.5360 C.ar  1000  LXG1000     0.0289
     22  C17      -22.5960  -33.5390    1.3380 C.3   1000  LXG1000     0.2229
     23  C18      -22.1910  -32.1800    1.4910 C.1   1000  LXG1000     0.2066
@<TRIPOS>BOND
     1    18    17    1
     2    18    16    1
     3    17    16    1
     4    16    15    1
     5     5     2    1
     6    15    14    2
     7     2     1    1
     8     2     7    1
     9     7     9    1
    10    14    13    1
    11     6     9    2
    12     6    10    2
    13     9     8    2
    14    12    13   ar
    15    12    11   ar
    16    13    19   ar
    17    10    11    1
    18    10    22    1
    19    11    21   ar
    20     8    23    2
    21    19    20   ar
    22    22    23    1
    23    22     4    1
    24    23     3    2
    25    21    20   ar
    26    21     4    1
