@<TRIPOS>MOLECULE
3jy0_LYG_A_1.pdb
 22 25 0 0 0
SMALL
GASTEIGER

@<TRIPOS>ATOM
      1  C1       -37.6130   -5.4470    4.2080 C.3   1000  LYG1000     0.1693
      2  N1       -37.6470   -3.5830    2.9950 N.3   1000  LYG1000    -0.2560
      3  O1       -36.5630   -6.2880    3.7830 O.3   1000  LYG1000    -0.2216
      4  S1       -41.3380   -2.9260   -2.6070 S.3   1000  LYG1000    -0.0895
      5 CL1       -45.6760   -1.0860    1.0960 Cl    1000  LYG1000    -0.0822
      6  C2       -36.8330   -4.2930    4.8730 C.3   1000  LYG1000     0.0517
      7  N2       -40.1570   -2.3540    1.0210 N.2   1000  LYG1000    -0.3440
      8  O2       -38.2560   -3.6080   -2.3870 O.2   1000  LYG1000    -0.2122
      9  C3       -36.2680   -3.5870    3.6200 C.3   1000  LYG1000     0.0758
     10  N3       -38.2250   -3.1170   -0.1740 N.2   1000  LYG1000    -0.2723
     11  C4       -38.0070   -2.5050    2.0840 C.3   1000  LYG1000     0.2001
     12  C5       -38.9010   -2.6680    0.9240 C.1   1000  LYG1000     0.1421
     13  C6       -40.8560   -2.4830   -0.1790 C.2   1000  LYG1000     0.1484
     14  C7       -42.2420   -2.1910   -0.3700 C.ar  1000  LYG1000     0.0349
     15  C8       -43.1680   -1.7470    0.5270 C.ar  1000  LYG1000     0.0142
     16  C9       -44.4390   -1.5930    0.0040 C.ar  1000  LYG1000     0.0578
     17  C10      -44.8330   -1.8330   -1.2860 C.ar  1000  LYG1000     0.0119
     18  C11      -43.9080   -2.2520   -2.2090 C.ar  1000  LYG1000     0.0071
     19  C12      -42.6660   -2.4160   -1.6790 C.ar  1000  LYG1000     0.0289
     20  C13      -40.2130   -2.8950   -1.3070 C.3   1000  LYG1000     0.2229
     21  C14      -38.8430   -3.2530   -1.3820 C.1   1000  LYG1000     0.2066
     22  C15      -38.1900   -4.9650    2.8720 C.3   1000  LYG1000     0.1062
@<TRIPOS>BOND
     1     4    19    1
     2     4    20    1
     3     8    21    2
     4    18    19   ar
     5    18    17   ar
     6    19    14   ar
     7    21    20    1
     8    21    10    2
     9    20    13    1
    10    17    16   ar
    11    14    13    1
    12    14    15   ar
    13    13     7    2
    14    10    12    2
    15    16    15   ar
    16    16     5    1
    17    12     7    2
    18    12    11    1
    19    11     2    1
    20    22     2    1
    21    22     1    1
    22     2     9    1
    23     9     6    1
    24     3     1    1
    25     1     6    1
