@<TRIPOS>MOLECULE
3jy9_JZH_A_1.pdb
 26 30 0 0 0
SMALL
GASTEIGER

@<TRIPOS>ATOM
      1  O1         9.0030   18.0650    0.2540 O.3     1  JZH1       -0.2866
      2  C2         9.7370   17.0140    0.7780 C.ar    1  JZH1        0.1957
      3  C3        10.0370   16.9850    2.1380 C.ar    1  JZH1        0.0417
      4  C4        10.8190   15.9780    2.6330 C.ar    1  JZH1        0.0004
      5  C5        11.2880   14.9490    1.7950 C.ar    1  JZH1       -0.0017
      6  C6        11.0130   14.9690    0.4170 C.ar    1  JZH1        0.0004
      7  C7        10.2250   16.0030   -0.0790 C.ar    1  JZH1        0.0417
      8  C8        12.2220   13.8130    2.1380 C.3     1  JZH1        0.1649
      9  C9        13.6830   14.2370    1.9240 C.1     1  JZH1        0.1876
     10  O10       13.9770   14.6030    0.7850 O.2     1  JZH1       -0.2135
     11  N11       14.7700   14.1490    2.7060 N.2     1  JZH1       -0.3359
     12  C12       14.8250   13.7160    4.0300 C.2     1  JZH1        0.1434
     13  C13       15.2470   14.6570    4.9760 C.2     1  JZH1        0.0288
     14  C14       15.3810   14.3160    6.3280 C.2     1  JZH1       -0.0188
     15  C15       15.0760   13.0050    6.7510 C.3     1  JZH1        0.0522
     16  C16       14.6380   12.0910    5.7840 C.2     1  JZH1       -0.0188
     17  C17       14.5230   12.3990    4.3860 C.2     1  JZH1        0.0273
     18  C18       13.9840   11.2760    3.5240 C.2     1  JZH1        0.0129
     19  C19       14.4950    9.9600    3.7360 C.2     1  JZH1        0.0222
     20  C20       13.9750    8.8690    3.0950 C.2     1  JZH1        0.1096
     21  N21       12.9430    8.9400    2.2500 N.2     1  JZH1       -0.1922
     22  C22       12.4010   10.1140    1.9710 C.1     1  JZH1        0.0350
     23  N23       11.3490   10.4070    1.0970 N.2     1  JZH1       -0.1925
     24  C25       11.1840   11.7680    1.1420 C.2     1  JZH1        0.1073
     25  C26       12.0420   12.3350    2.0560 C.2     1  JZH1        0.0274
     26  C27       12.9100   11.2990    2.6110 C.2     1  JZH1        0.0615
@<TRIPOS>BOND
     1     7     6   ar
     2     7     2   ar
     3     1     2    1
     4     6     5   ar
     5     2     3   ar
     6    10     9    2
     7    23    24    1
     8    23    22    2
     9    24    25    2
    10     5     8    1
    11     5     4   ar
    12     9     8    1
    13     9    11    2
    14    22    21    2
    15    22    26    1
    16    25     8    1
    17    25    26    1
    18     3     4   ar
    19    21    20    1
    20    26    18    2
    21    11    12    2
    22    20    19    2
    23    18    19    1
    24    18    17    1
    25    12    17    1
    26    12    13    1
    27    17    16    2
    28    13    14    2
    29    16    15    1
    30    14    15    1
