@<TRIPOS>MOLECULE
3jyj_JZI_A_1.pdb
 26 28 0 0 0
SMALL
GASTEIGER

@<TRIPOS>ATOM
      1  C1        15.1840    4.5590    0.8840 C.2   301  JZI301     -0.0045
      2  C2        15.0660    5.7450    1.7480 C.ar  301  JZI301     -0.0003
      3  C3        15.8890    5.8990    2.8590 C.ar  301  JZI301     -0.0000
      4  C4        15.7420    7.0350    3.6450 C.ar  301  JZI301     -0.0000
      5  C5        14.8170    8.0150    3.3670 C.ar  301  JZI301     -0.0000
      6  C6        13.9940    7.8690    2.2610 C.ar  301  JZI301     -0.0000
      7  C7        14.1300    6.7440    1.4740 C.ar  301  JZI301     -0.0000
      8  C8        14.8230    1.2240    0.6330 C.3   301  JZI301      0.2024
      9  C9        15.9100    2.2760    0.3190 C.3   301  JZI301      0.0593
     10  C10       15.0170    0.1230   -0.3900 C.2   301  JZI301      0.3846
     11  O11       14.1330    0.0750   -1.4000 O.co2 301  JZI301     -0.2437
     12  O12       15.9340   -0.6470   -0.2790 O.co2 301  JZI301     -0.2437
     13  C13       15.8160    3.4490    1.2510 C.2   301  JZI301     -0.0238
     14  C14        7.9000    3.9590   -2.1420 C.ar  301  JZI301      0.0000
     15  C15        7.3740    4.8600   -1.2110 C.ar  301  JZI301      0.0000
     16  C16        7.9610    5.0780    0.0020 C.ar  301  JZI301      0.0000
     17  C17        9.0400    3.2620   -1.8550 C.ar  301  JZI301      0.0000
     18  C18        9.6840    3.4530   -0.6180 C.ar  301  JZI301      0.0001
     19  C19        9.1360    4.3720    0.3220 C.ar  301  JZI301      0.0000
     20  C20        9.7780    4.5640    1.5630 C.ar  301  JZI301      0.0001
     21  C21       10.9120    3.8750    1.8530 C.ar  301  JZI301      0.0046
     22  C22       11.4690    2.9580    0.9320 C.ar  301  JZI301      0.0551
     23  C23       10.8570    2.7460   -0.2980 C.ar  301  JZI301      0.0046
     24  C24       12.7110    2.2420    1.3000 C.2   301  JZI301      0.2652
     25  N25       13.5480    1.8860    0.2970 N.am  301  JZI301     -0.1915
     26  O26       13.0850    2.0500    2.4370 O.2   301  JZI301     -0.2684
@<TRIPOS>BOND
     1    14    17   ar
     2    14    15   ar
     3    17    18   ar
     4    11    10   ar
     5    15    16   ar
     6    18    23   ar
     7    18    19   ar
     8    10    12   ar
     9    10     8    1
    10    23    22   ar
    11    16    19   ar
    12    25     8    1
    13    25    24   am
    14     9     8    1
    15     9    13    1
    16    19    20   ar
    17     1    13    2
    18     1     2    1
    19    22    24    1
    20    22    21   ar
    21    24    26    2
    22     7     2   ar
    23     7     6   ar
    24    20    21   ar
    25     2     3   ar
    26     6     5   ar
    27     3     4   ar
    28     5     4   ar
