@<TRIPOS>MOLECULE
3jyn_NDP_A_1.pdb
 48 52 0 0 0
SMALL
GASTEIGER

@<TRIPOS>ATOM
      1  PA        26.5920   -1.3510   14.5330 P.3   350  NDP350      0.2189
      2  O1A       27.3710   -0.2990   13.8290 O.2   350  NDP350     -0.5170
      3  O2A       25.7700   -0.9530   15.7200 O.3   350  NDP350     -0.4371
      4  O5B       27.5510   -2.5300   14.8950 O.3   350  NDP350     -0.3112
      5  C5B       27.1990   -3.5750   15.7780 C.3   350  NDP350      0.1813
      6  C4B       27.4910   -3.1150   17.1660 C.3   350  NDP350      0.1820
      7  O4B       26.7350   -4.0050   17.9910 O.3   350  NDP350     -0.3136
      8  C3B       28.9500   -3.1890   17.6360 C.3   350  NDP350      0.2157
      9  O3B       29.6140   -1.9480   17.2860 O.3   350  NDP350     -0.2175
     10  C2B       28.7890   -3.5440   19.1120 C.3   350  NDP350      0.2314
     11  O2B       28.8640   -2.3590   19.8980 O.3   350  NDP350     -0.2630
     12  C1B       27.3930   -4.3060   19.2080 C.3   350  NDP350      0.3158
     13  N9A       27.7200   -5.7260   19.5410 N.pl3 350  NDP350     -0.1439
     14  C8A       27.3850   -6.3730   20.6680 C.3   350  NDP350      0.3377
     15  N7A       27.8460   -7.6330   20.6380 N.2   350  NDP350     -0.2095
     16  C5A       28.4600   -7.7370   19.4820 C.2   350  NDP350      0.2526
     17  C6A       29.1130   -8.8870   19.0010 C.2   350  NDP350      0.4393
     18  N6A       29.1780  -10.0200   19.6900 N.pl3 350  NDP350      0.2180
     19  N1A       29.6860   -8.7760   17.7750 N.2   350  NDP350      0.0021
     20  C2A       29.6500   -7.6200   17.0180 C.3   350  NDP350      0.5254
     21  N3A       29.0190   -6.5210   17.4990 N.2   350  NDP350     -0.0055
     22  C4A       28.4120   -6.5690   18.7470 C.2   350  NDP350      0.3518
     23  O3        25.6280   -1.9020   13.4050 O.3   350  NDP350     -0.2703
     24  PN        24.4070   -1.3410   12.5870 P.3   350  NDP350      0.2189
     25  O1N       24.0580    0.0670   12.9890 O.3   350  NDP350     -0.4371
     26  O2N       24.7110   -1.5920   11.1160 O.2   350  NDP350     -0.5170
     27  O5D       23.3200   -2.4420   13.1190 O.3   350  NDP350     -0.3112
     28  C5D       22.8080   -2.5200   14.4450 C.3   350  NDP350      0.1813
     29  C4D       21.8830   -3.6860   14.5870 C.3   350  NDP350      0.1799
     30  O4D       20.6200   -3.4580   13.9300 O.3   350  NDP350     -0.3327
     31  C3D       22.4310   -4.9920   13.9910 C.3   350  NDP350      0.2158
     32  O3D       22.1340   -6.1010   14.8550 O.3   350  NDP350     -0.2175
     33  C2D       21.7120   -5.0260   12.6220 C.3   350  NDP350      0.2309
     34  O2D       21.7350   -6.2900   12.0070 O.3   350  NDP350     -0.2158
     35  C1D       20.3350   -4.5660   12.9690 C.3   350  NDP350      0.2263
     36  N1N       19.4560   -3.8570   11.9990 N.pl3 350  NDP350     -0.2787
     37  C2N       18.1110   -4.2020   11.9930 C.3   350  NDP350      0.1244
     38  C3N       17.2510   -3.5550   11.1070 C.2   350  NDP350      0.0544
     39  C7N       15.7610   -3.9090   11.0800 C.2   350  NDP350      0.2818
     40  O7N       14.9970   -3.3550   10.3140 O.2   350  NDP350     -0.2670
     41  N7N       15.3880   -4.8390   11.9390 N.am  350  NDP350     -0.0839
     42  C4N       17.7270   -2.5660   10.2200 C.2   350  NDP350      0.0033
     43  C5N       19.1130   -2.2170   10.2320 C.2   350  NDP350      0.0157
     44  C6N       19.9740   -2.8710   11.1300 C.2   350  NDP350      0.0633
     45  P2B       29.5210   -2.4190   21.4290 P.3   350  NDP350      0.5328
     46  O1X       29.2680   -1.0740   22.0020 O.3   350  NDP350     -0.1145
     47  O2X       28.7920   -3.4880   22.1240 O.3   350  NDP350     -0.1145
     48  O3X       30.9410   -2.7540   21.1790 O.2   350  NDP350     -0.2224
@<TRIPOS>BOND
     1    42    43    1
     2    42    38    2
     3    43    44    2
     4    40    39    2
     5    39    38    1
     6    39    41   am
     7    38    37    1
     8    26    24    2
     9    44    36    1
    10    37    36    1
    11    36    35    1
    12    34    33    1
    13    24    25    1
    14    24    27    1
    15    24    23    1
    16    33    35    1
    17    33    31    1
    18    35    30    1
    19    27    28    1
    20    23     1    1
    21     2     1    2
    22    30    29    1
    23    31    29    1
    24    31    32    1
    25    28    29    1
    26     1     4    1
    27     1     3    1
    28     4     5    1
    29     5     6    1
    30    20    21    1
    31    20    19    1
    32     6     8    1
    33     6     7    1
    34     9     8    1
    35    21    22    2
    36     8    10    1
    37    19    17    2
    38     7    12    1
    39    22    16    1
    40    22    13    1
    41    17    16    1
    42    17    18    1
    43    10    12    1
    44    10    11    1
    45    12    13    1
    46    16    15    2
    47    13    14    1
    48    11    45    1
    49    15    14    1
    50    48    45    2
    51    45    46    1
    52    45    47    1
