@<TRIPOS>MOLECULE
3jyo_NAD_A_1.pdb
 44 48 0 0 0
SMALL
GASTEIGER

@<TRIPOS>ATOM
      1  PA        29.2130   61.6250    1.1790 P.3   377  NAD377      0.2189
      2  O1A       29.7250   61.8510   -0.2440 O.2   377  NAD377     -0.5170
      3  O2A       28.2410   62.5850    1.8220 O.3   377  NAD377     -0.4371
      4  O5B       30.4450   61.4700    2.1620 O.3   377  NAD377     -0.3112
      5  C5B       31.6180   60.7420    1.8590 C.3   377  NAD377      0.1813
      6  C4B       32.7870   61.5080    2.4520 C.3   377  NAD377      0.1821
      7  O4B       33.9600   60.8230    2.0160 O.3   377  NAD377     -0.3135
      8  C3B       32.9150   62.9590    1.9680 C.3   377  NAD377      0.2184
      9  O3B       32.8310   63.9090    3.0360 O.3   377  NAD377     -0.2174
     10  C2B       34.2660   62.9870    1.2400 C.3   377  NAD377      0.2570
     11  O2B       35.0350   64.1970    1.3390 O.3   377  NAD377     -0.2130
     12  C1B       34.9610   61.8080    1.9000 C.3   377  NAD377      0.3186
     13  N9A       36.0500   61.2180    1.1170 N.pl3 377  NAD377     -0.1439
     14  C8A       36.0190   60.8400   -0.1780 C.3   377  NAD377      0.3377
     15  N7A       37.2260   60.3270   -0.5540 N.2   377  NAD377     -0.2095
     16  C5A       38.0130   60.3910    0.5510 C.2   377  NAD377      0.2526
     17  C6A       39.3200   59.9920    0.7510 C.2   377  NAD377      0.4393
     18  N6A       40.0610   59.4470   -0.2580 N.pl3 377  NAD377      0.2180
     19  N1A       39.8150   60.1630    1.9740 N.2   377  NAD377      0.0021
     20  C2A       39.0770   60.7150    2.9780 C.3   377  NAD377      0.5254
     21  N3A       37.7850   61.1300    2.8110 N.2   377  NAD377     -0.0055
     22  C4A       37.2730   60.9330    1.5670 C.2   377  NAD377      0.3518
     23  O3        28.6010   60.1240    1.0880 O.3   377  NAD377     -0.2703
     24  PN        27.7210   59.3710    2.1600 P.3   377  NAD377      0.2189
     25  O1N       28.1640   59.6220    3.5700 O.3   377  NAD377     -0.4371
     26  O2N       26.2710   59.6560    1.8840 O.2   377  NAD377     -0.5170
     27  O5D       28.0040   57.8730    1.6290 O.3   377  NAD377     -0.3112
     28  C5D       29.2940   57.2490    1.5990 C.3   377  NAD377      0.1813
     29  C4D       29.1180   55.8920    0.9090 C.3   377  NAD377      0.1799
     30  O4D       28.2910   55.1060    1.7630 O.3   377  NAD377     -0.3327
     31  C3D       28.3520   55.9390   -0.4140 C.3   377  NAD377      0.2158
     32  O3D       29.2250   56.2480   -1.4710 O.3   377  NAD377     -0.2175
     33  C2D       27.7670   54.5380   -0.4860 C.3   377  NAD377      0.2309
     34  O2D       28.6650   53.6610   -1.1710 O.3   377  NAD377     -0.2158
     35  C1D       27.6720   54.1020    0.9680 C.3   377  NAD377      0.2263
     36  N1N       26.3260   53.9290    1.5250 N.pl3 377  NAD377     -0.2787
     37  C2N       26.1550   52.8010    2.2320 C.3   377  NAD377      0.1244
     38  C3N       24.9510   52.4990    2.8370 C.2   377  NAD377      0.0544
     39  C7N       24.8140   51.2130    3.6290 C.2   377  NAD377      0.2818
     40  O7N       23.7080   51.0490    4.3240 O.2   377  NAD377     -0.2670
     41  N7N       25.7310   50.3090    3.6850 N.am  377  NAD377     -0.0839
     42  C4N       23.8990   53.4150    2.7060 C.2   377  NAD377      0.0033
     43  C5N       24.0900   54.5990    1.9910 C.2   377  NAD377      0.0157
     44  C6N       25.3380   54.8390    1.3900 C.2   377  NAD377      0.0633
@<TRIPOS>BOND
     1    32    31    1
     2    34    33    1
     3    15    14    1
     4    15    16    2
     5    33    31    1
     6    33    35    1
     7    31    29    1
     8    18    17    1
     9     2     1    2
    10    14    13    1
    11    16    17    1
    12    16    22    1
    13    17    19    2
    14    29    28    1
    15    29    30    1
    16    35    36    1
    17    35    30    1
    18    23     1    1
    19    23    24    1
    20    13    22    1
    21    13    12    1
    22     1     3    1
    23     1     4    1
    24    10    11    1
    25    10    12    1
    26    10     8    1
    27    44    36    1
    28    44    43    2
    29    36    37    1
    30    22    21    2
    31    28    27    1
    32    27    24    1
    33     5     4    1
    34     5     6    1
    35    26    24    2
    36    12     7    1
    37     8     6    1
    38     8     9    1
    39    19    20    1
    40    43    42    1
    41     7     6    1
    42    24    25    1
    43    37    38    1
    44    42    38    2
    45    21    20    1
    46    38    39    1
    47    39    41   am
    48    39    40    2
