@<TRIPOS>MOLECULE
3jyp_NAD_A_1.pdb
 44 48 0 0 0
SMALL
GASTEIGER

@<TRIPOS>ATOM
      1  PA        29.0560   61.4750    0.8890 P.3   377  NAD377      0.2189
      2  O1A       29.5780   61.7470   -0.5080 O.2   377  NAD377     -0.5170
      3  O2A       28.0450   62.4050    1.5230 O.3   377  NAD377     -0.4371
      4  O5B       30.2620   61.3420    1.9330 O.3   377  NAD377     -0.3112
      5  C5B       31.4510   60.6620    1.5710 C.3   377  NAD377      0.1813
      6  C4B       32.6240   61.3950    2.1850 C.3   377  NAD377      0.1821
      7  O4B       33.8120   60.6960    1.8350 O.3   377  NAD377     -0.3135
      8  C3B       32.7720   62.8330    1.6860 C.3   377  NAD377      0.2184
      9  O3B       32.6180   63.7630    2.7670 O.3   377  NAD377     -0.2174
     10  C2B       34.1440   62.8520    1.0220 C.3   377  NAD377      0.2570
     11  O2B       34.8720   64.0790    1.1820 O.3   377  NAD377     -0.2130
     12  C1B       34.8280   61.6760    1.6900 C.3   377  NAD377      0.3186
     13  N9A       35.9130   61.0310    0.9340 N.pl3 377  NAD377     -0.1439
     14  C8A       35.8910   60.5660   -0.3330 C.3   377  NAD377      0.3377
     15  N7A       37.0930   60.0120   -0.6070 N.2   377  NAD377     -0.2095
     16  C5A       37.8670   60.1310    0.5000 C.2   377  NAD377      0.2526
     17  C6A       39.1640   59.7660    0.8310 C.2   377  NAD377      0.4393
     18  N6A       39.9650   59.1340   -0.0680 N.pl3 377  NAD377      0.2180
     19  N1A       39.6300   60.0470    2.0640 N.2   377  NAD377      0.0021
     20  C2A       38.8650   60.6680    2.9790 C.3   377  NAD377      0.5254
     21  N3A       37.6060   61.0330    2.6910 N.2   377  NAD377     -0.0055
     22  C4A       37.1040   60.7730    1.4610 C.2   377  NAD377      0.3518
     23  O3        28.4920   59.9720    0.8180 O.3   377  NAD377     -0.2703
     24  PN        27.5670   59.2580    1.9020 P.3   377  NAD377      0.2189
     25  O1N       28.0990   59.4730    3.2860 O.3   377  NAD377     -0.4371
     26  O2N       26.1410   59.6150    1.5940 O.2   377  NAD377     -0.5170
     27  O5D       27.7380   57.7400    1.4680 O.3   377  NAD377     -0.3112
     28  C5D       29.0180   57.1160    1.4860 C.3   377  NAD377      0.1813
     29  C4D       28.8080   55.7330    0.9090 C.3   377  NAD377      0.1799
     30  O4D       27.9940   54.9660    1.7950 O.3   377  NAD377     -0.3327
     31  C3D       28.0250   55.7340   -0.3960 C.3   377  NAD377      0.2158
     32  O3D       28.8610   55.9940   -1.5230 O.3   377  NAD377     -0.2175
     33  C2D       27.4240   54.3510   -0.4270 C.3   377  NAD377      0.2309
     34  O2D       28.3000   53.4800   -1.1460 O.3   377  NAD377     -0.2158
     35  C1D       27.3720   53.9330    1.0360 C.3   377  NAD377      0.2263
     36  N1N       26.0400   53.7480    1.6080 N.pl3 377  NAD377     -0.2787
     37  C2N       25.8810   52.6600    2.3770 C.3   377  NAD377      0.1244
     38  C3N       24.6780   52.3790    2.9940 C.2   377  NAD377      0.0544
     39  C7N       24.5590   51.1360    3.8320 C.2   377  NAD377      0.2818
     40  O7N       23.4730   50.9510    4.5510 O.2   377  NAD377     -0.2670
     41  N7N       25.4760   50.2480    3.8760 N.am  377  NAD377     -0.0839
     42  C4N       23.6090   53.2660    2.8140 C.2   377  NAD377      0.0033
     43  C5N       23.7900   54.3960    2.0160 C.2   377  NAD377      0.0157
     44  C6N       25.0320   54.6300    1.4230 C.2   377  NAD377      0.0633
@<TRIPOS>BOND
     1    32    31    1
     2    34    33    1
     3    15    14    1
     4    15    16    2
     5     2     1    2
     6    33    31    1
     7    33    35    1
     8    31    29    1
     9    14    13    1
    10    18    17    1
    11    16    17    1
    12    16    22    1
    13    23     1    1
    14    23    24    1
    15    17    19    2
    16     1     3    1
    17     1     4    1
    18    29    28    1
    19    29    30    1
    20    13    22    1
    21    13    12    1
    22    10    11    1
    23    10     8    1
    24    10    12    1
    25    35    36    1
    26    35    30    1
    27    44    36    1
    28    44    43    2
    29    22    21    2
    30    27    28    1
    31    27    24    1
    32     5     4    1
    33     5     6    1
    34    26    24    2
    35    36    37    1
    36     8     6    1
    37     8     9    1
    38    12     7    1
    39     7     6    1
    40    24    25    1
    41    43    42    1
    42    19    20    1
    43    37    38    1
    44    21    20    1
    45    42    38    2
    46    38    39    1
    47    39    41   am
    48    39    40    2
