@<TRIPOS>MOLECULE
3jyp_QIC_A_1.pdb
 13 13 0 0 0
SMALL
GASTEIGER

@<TRIPOS>ATOM
      1  C1        18.0590   53.8660    2.0570 C.3   284  QIC284      0.2239
      2  O1        17.8790   55.2130    1.6230 O.3   284  QIC284     -0.2139
      3  C2        19.4770   53.7290    2.6000 C.3   284  QIC284      0.0773
      4  O2        19.7340   55.9510    3.5780 O.3   284  QIC284     -0.2202
      5  C3        19.6740   54.5480    3.8710 C.3   284  QIC284      0.1877
      6  O3        18.7690   55.0820    6.0010 O.3   284  QIC284     -0.2177
      7  C4        18.5640   54.2500    4.8730 C.3   284  QIC284      0.2123
      8  O4        16.1950   53.9010    5.2660 O.3   284  QIC284     -0.2202
      9  C5        17.1410   54.3830    4.3210 C.3   284  QIC284      0.1877
     10  O5        17.7490   53.4760   -0.2240 O.co2 284  QIC284     -0.2429
     11  C6        16.9880   53.5160    3.0820 C.3   284  QIC284      0.0773
     12  O6        17.9700   51.7030    1.0820 O.co2 284  QIC284     -0.2429
     13  C7        17.9140   52.9460    0.8880 C.2   284  QIC284      0.3918
@<TRIPOS>BOND
     1    10    13   ar
     2    13    12   ar
     3    13     1    1
     4     2     1    1
     5     1     3    1
     6     1    11    1
     7     3     5    1
     8    11     9    1
     9     4     5    1
    10     5     7    1
    11     9     7    1
    12     9     8    1
    13     7     6    1
