@<TRIPOS>MOLECULE
3jyq_NAD_A_1.pdb
 44 48 0 0 0
SMALL
GASTEIGER

@<TRIPOS>ATOM
      1  PA        29.1120   61.5940    0.8040 P.3   377  NAD377      0.2189
      2  O1A       29.6460   61.8160   -0.5940 O.2   377  NAD377     -0.5170
      3  O2A       28.1060   62.5450    1.4230 O.3   377  NAD377     -0.4371
      4  O5B       30.3260   61.4200    1.8340 O.3   377  NAD377     -0.3112
      5  C5B       31.5170   60.7520    1.4510 C.3   377  NAD377      0.1813
      6  C4B       32.6760   61.4970    2.0920 C.3   377  NAD377      0.1821
      7  O4B       33.8830   60.8260    1.7380 O.3   377  NAD377     -0.3135
      8  C3B       32.8010   62.9480    1.6220 C.3   377  NAD377      0.2184
      9  O3B       32.6640   63.8690    2.7050 O.3   377  NAD377     -0.2174
     10  C2B       34.1710   62.9920    0.9600 C.3   377  NAD377      0.2570
     11  O2B       34.8780   64.2380    1.1030 O.3   377  NAD377     -0.2130
     12  C1B       34.8720   61.8180    1.6170 C.3   377  NAD377      0.3186
     13  N9A       35.9390   61.1470    0.8580 N.pl3 377  NAD377     -0.1439
     14  C8A       35.9040   60.6650   -0.4000 C.3   377  NAD377      0.3377
     15  N7A       37.1000   60.0930   -0.6800 N.2   377  NAD377     -0.2095
     16  C5A       37.8810   60.2350    0.4180 C.2   377  NAD377      0.2526
     17  C6A       39.1730   59.8710    0.7630 C.2   377  NAD377      0.4393
     18  N6A       39.9850   59.2290   -0.1240 N.pl3 377  NAD377      0.2180
     19  N1A       39.6450   60.1950    1.9790 N.2   377  NAD377      0.0021
     20  C2A       38.8760   60.8320    2.8990 C.3   377  NAD377      0.5254
     21  N3A       37.6200   61.2100    2.5950 N.2   377  NAD377     -0.0055
     22  C4A       37.1240   60.8990    1.3740 C.2   377  NAD377      0.3518
     23  O3        28.5030   60.0930    0.7390 O.3   377  NAD377     -0.2703
     24  PN        27.5360   59.4190    1.8260 P.3   377  NAD377      0.2189
     25  O1N       27.9600   59.8020    3.2160 O.3   377  NAD377     -0.4371
     26  O2N       26.1090   59.7500    1.4440 O.2   377  NAD377     -0.5170
     27  O5D       27.7810   57.8770    1.4590 O.3   377  NAD377     -0.3112
     28  C5D       29.0740   57.2840    1.4230 C.3   377  NAD377      0.1813
     29  C4D       28.8610   55.9000    0.8490 C.3   377  NAD377      0.1799
     30  O4D       28.0430   55.1310    1.7330 O.3   377  NAD377     -0.3327
     31  C3D       28.0560   55.8820   -0.4380 C.3   377  NAD377      0.2158
     32  O3D       28.8980   56.1400   -1.5580 O.3   377  NAD377     -0.2175
     33  C2D       27.4570   54.4940   -0.4610 C.3   377  NAD377      0.2309
     34  O2D       28.3120   53.5920   -1.1560 O.3   377  NAD377     -0.2158
     35  C1D       27.4380   54.0700    0.9940 C.3   377  NAD377      0.2263
     36  N1N       26.1220   53.8340    1.5860 N.pl3 377  NAD377     -0.2787
     37  C2N       26.0100   52.7420    2.3540 C.3   377  NAD377      0.1244
     38  C3N       24.8280   52.4150    2.9880 C.2   377  NAD377      0.0544
     39  C7N       24.7370   51.1700    3.8480 C.2   377  NAD377      0.2818
     40  O7N       23.5660   51.0200    4.4360 O.2   377  NAD377     -0.2670
     41  N7N       25.6890   50.2930    4.0340 N.am  377  NAD377     -0.0839
     42  C4N       23.7340   53.2780    2.8020 C.2   377  NAD377      0.0033
     43  C5N       23.8670   54.4150    2.0150 C.2   377  NAD377      0.0157
     44  C6N       25.0920   54.6860    1.4080 C.2   377  NAD377      0.0633
@<TRIPOS>BOND
     1    32    31    1
     2    34    33    1
     3    15    14    1
     4    15    16    2
     5     2     1    2
     6    33    31    1
     7    33    35    1
     8    31    29    1
     9    14    13    1
    10    18    17    1
    11    16    17    1
    12    16    22    1
    13    23     1    1
    14    23    24    1
    15    17    19    2
    16     1     3    1
    17     1     4    1
    18    29    28    1
    19    29    30    1
    20    13    22    1
    21    13    12    1
    22    10    11    1
    23    10    12    1
    24    10     8    1
    25    35    36    1
    26    35    30    1
    27    22    21    2
    28    44    36    1
    29    44    43    2
    30    28    27    1
    31    26    24    2
    32     5     4    1
    33     5     6    1
    34    27    24    1
    35    36    37    1
    36    12     7    1
    37     8     6    1
    38     8     9    1
    39     7     6    1
    40    24    25    1
    41    19    20    1
    42    43    42    1
    43    37    38    1
    44    21    20    1
    45    42    38    2
    46    38    39    1
    47    39    41   am
    48    39    40    2
