@<TRIPOS>MOLECULE
3jyq_SKM_A_1.pdb
 12 12 0 0 0
SMALL
GASTEIGER

@<TRIPOS>ATOM
      1  O12       18.6970   55.0200    5.9190 O.3   378  SKM378     -0.2173
      2  C8        18.5430   54.4040    4.6380 C.3   378  SKM378      0.2167
      3  C6        17.0860   54.4190    4.1180 C.3   378  SKM378      0.1896
      4  O7        16.2130   53.8890    5.0730 O.3   378  SKM378     -0.2200
      5  C5        16.9730   53.5310    2.8480 C.3   378  SKM378      0.0684
      6  C4        18.0400   53.9560    1.8250 C.2   378  SKM378      0.0584
      7  C1        17.8870   53.6390    0.3390 C.2   378  SKM378      0.3837
      8  O2        18.2730   52.5390   -0.0980 O.co2 378  SKM378     -0.2409
      9  O3        17.4080   54.5360   -0.3600 O.co2 378  SKM378     -0.2409
     10  C10       19.1870   54.6550    2.1960 C.2   378  SKM378      0.0111
     11  C9        19.4990   55.0620    3.6400 C.3   378  SKM378      0.2066
     12  O11       19.4090   56.4800    3.7450 O.3   378  SKM378     -0.2155
@<TRIPOS>BOND
     1     9     7   ar
     2     8     7   ar
     3     7     6    1
     4     6    10    2
     5     6     5    1
     6    10    11    1
     7     5     3    1
     8    11    12    1
     9    11     2    1
    10     3     2    1
    11     3     4    1
    12     2     1    1
