@<TRIPOS>MOLECULE
3jyr_ACR_A_1.pdb
 44 47 0 0 0
SMALL
GASTEIGER

@<TRIPOS>ATOM
      1  C1A       22.3770   -8.7970   17.0440 C.3   371  ACR371      0.1273
      2  C2A       23.4350   -7.7180   17.3630 C.3   371  ACR371      0.2049
      3  C3A       24.6690   -7.8500   16.4820 C.3   371  ACR371      0.2179
      4  C4A       25.3240   -9.2300   16.5740 C.3   371  ACR371      0.2053
      5  C5A       24.3120  -10.3310   16.4460 C.2   371  ACR371      0.0180
      6  C6A       24.7850  -11.7240   16.1080 C.3   371  ACR371      0.2066
      7  C7A       22.9960  -10.1250   16.6280 C.2   371  ACR371     -0.0100
      8  O2A       22.9240   -6.3910   17.1640 O.3   371  ACR371     -0.2184
      9  O3A       25.6190   -6.8420   16.8600 O.3   371  ACR371     -0.2172
     10  O4A       26.3010   -9.3380   15.5240 O.3   371  ACR371     -0.2157
     11  O6A       24.9570  -12.4460   17.3300 O.3   371  ACR371     -0.2155
     12  C1B       17.3090   -8.1560   15.2270 C.3   371  ACR371      0.2694
     13  C2B       17.6650   -8.0190   16.7110 C.3   371  ACR371      0.2394
     14  C3B       19.1810   -7.8220   16.8860 C.3   371  ACR371      0.2054
     15  C4B       20.0340   -8.8340   16.1080 C.3   371  ACR371      0.1333
     16  C5B       19.5150   -9.0210   14.6760 C.3   371  ACR371      0.1364
     17  C6B       20.1640  -10.2520   14.0300 C.3   371  ACR371      0.0337
     18  N4B       21.4270   -8.3680   16.0280 N.3   371  ACR371     -0.2087
     19  O2B       16.9600   -6.9210   17.3060 O.3   371  ACR371     -0.2149
     20  O3B       19.4990   -7.8650   18.2920 O.3   371  ACR371     -0.2186
     21  O5B       18.0900   -9.1850   14.6270 O.3   371  ACR371     -0.3295
     22  C1C       15.6510   -4.1670   12.1430 C.3   371  ACR371      0.2695
     23  C2C       14.8650   -4.6500   13.3580 C.3   371  ACR371      0.2404
     24  C3C       15.8500   -5.2780   14.3420 C.3   371  ACR371      0.2167
     25  C4C       16.5660   -6.4740   13.6900 C.3   371  ACR371      0.1804
     26  C5C       17.2260   -6.0320   12.3750 C.3   371  ACR371      0.1803
     27  C6C       17.7110   -7.2420   11.5760 C.3   371  ACR371      0.2141
     28  O2C       14.1970   -3.5200   13.9460 O.3   371  ACR371     -0.2149
     29  O3C       15.1500   -5.6700   15.5440 O.3   371  ACR371     -0.2175
     30  O4C       17.5970   -6.9430   14.5420 O.3   371  ACR371     -0.3257
     31  O5C       16.2760   -5.3130   11.5660 O.3   371  ACR371     -0.3257
     32  O6C       18.7060   -6.7910   10.6440 O.3   371  ACR371     -0.2176
     33  C1D       17.9050    0.5850   11.5080 C.3   371  ACR371      0.3023
     34  C2D       16.4010    0.3700   11.6360 C.3   371  ACR371      0.2433
     35  C3D       16.0800   -0.9150   12.4030 C.3   371  ACR371      0.2168
     36  C4D       16.7810   -2.0850   11.7170 C.3   371  ACR371      0.1804
     37  C5D       18.2810   -1.7940   11.5870 C.3   371  ACR371      0.1804
     38  C6D       19.0190   -2.9350   10.8620 C.3   371  ACR371      0.2141
     39  O1D       18.4780    0.7960   12.7940 O.3   371  ACR371     -0.1869
     40  O2D       15.8780    1.5110   12.3160 O.3   371  ACR371     -0.2148
     41  O3D       14.6710   -1.1520   12.4370 O.3   371  ACR371     -0.2175
     42  O4D       16.6340   -3.2180   12.5570 O.3   371  ACR371     -0.3257
     43  O5D       18.5240   -0.5460   10.8930 O.3   371  ACR371     -0.3237
     44  O6D       20.4440   -2.7750   11.0140 O.3   371  ACR371     -0.2176
@<TRIPOS>BOND
     1    32    27    1
     2    38    44    1
     3    38    37    1
     4    43    33    1
     5    43    37    1
     6    33    34    1
     7    33    39    1
     8    31    22    1
     9    31    26    1
    10    27    26    1
    11    37    36    1
    12    34    40    1
    13    34    35    1
    14    36    35    1
    15    36    42    1
    16    22    42    1
    17    22    23    1
    18    26    25    1
    19    35    41    1
    20    23    28    1
    21    23    24    1
    22    25    24    1
    23    25    30    1
    24    17    16    1
    25    24    29    1
    26    30    12    1
    27    21    16    1
    28    21    12    1
    29    16    15    1
    30    12    13    1
    31    10     4    1
    32    18    15    1
    33    18     1    1
    34     6     5    1
    35     6    11    1
    36    15    14    1
    37     5     4    1
    38     5     7    2
    39     3     4    1
    40     3     9    1
    41     3     2    1
    42     7     1    1
    43    13    14    1
    44    13    19    1
    45    14    20    1
    46     1     2    1
    47     8     2    1
