@<TRIPOS>MOLECULE
3jyt_DDG_P_1.pdb
 21 23 0 0 0
SMALL
GASTEIGER

@<TRIPOS>ATOM
      1  P         67.3490   55.9080  -56.0470 P.3   823  DDG823      0.3942
      2  OP1       67.5650   57.3840  -55.9980 O.3   823  DDG823     -0.1425
      3  OP2       68.4860   54.9780  -55.8400 O.3   823  DDG823     -0.1425
      4  O5'       66.6850   55.5600  -57.4520 O.3   823  DDG823     -0.2927
      5  C5'       66.5830   54.2050  -57.8840 C.3   823  DDG823      0.1803
      6  C4'       65.8960   54.1280  -59.2270 C.3   823  DDG823      0.1472
      7  O4'       64.5760   54.6970  -59.1230 O.3   823  DDG823     -0.3374
      8  C3'       66.5630   54.9110  -60.3490 C.3   823  DDG823      0.0366
      9  C2'       65.4100   55.1350  -61.3010 C.3   823  DDG823      0.0536
     10  C1'       64.2330   55.3200  -60.3510 C.3   823  DDG823      0.1954
     11  N9        63.9690   56.7240  -60.0890 N.pl3 823  DDG823     -0.2375
     12  C8        64.5380   57.5300  -59.1320 C.3   823  DDG823      0.2245
     13  N7        64.1550   58.7740  -59.2200 N.2   823  DDG823     -0.2322
     14  C5        63.2720   58.7780  -60.2890 C.2   823  DDG823      0.2182
     15  C6        62.5730   59.8360  -60.8800 C.1   823  DDG823      0.2372
     16  O6        62.6110   61.0330  -60.5870 O.2   823  DDG823     -0.2069
     17  N1        61.7760   59.3980  -61.9370 N.2   823  DDG823     -0.2485
     18  C2        61.6860   58.1020  -62.3750 C.1   823  DDG823      0.2531
     19  N2        60.8710   57.8710  -63.4160 N.pl3 823  DDG823     -0.0226
     20  N3        62.3520   57.1050  -61.8370 N.2   823  DDG823     -0.3074
     21  C4        63.1240   57.5130  -60.8090 C.2   823  DDG823      0.2299
@<TRIPOS>BOND
     1    19    18    1
     2    18    17    2
     3    18    20    2
     4    17    15    2
     5    20    21    2
     6     9    10    1
     7     9     8    1
     8    15    16    2
     9    15    14    1
    10    21    14    1
    11    21    11    1
    12    10    11    1
    13    10     7    1
    14     8     6    1
    15    14    13    2
    16    11    12    1
    17     6     7    1
    18     6     5    1
    19    13    12    1
    20     5     4    1
    21     4     1    1
    22     1     2    1
    23     1     3    1
