@<TRIPOS>MOLECULE
3jyt_DTP_A_1.pdb
 30 32 0 0 0
SMALL
GASTEIGER

@<TRIPOS>ATOM
      1  PG        73.4990   56.4810  -65.2910 P.3   700  DTP700      0.5373
      2  O1G       73.8230   54.8750  -65.0550 O.3   700  DTP700     -0.1143
      3  O2G       74.9460   57.2410  -65.7340 O.2   700  DTP700     -0.2221
      4  O3G       73.0240   57.1130  -63.8110 O.3   700  DTP700     -0.1143
      5  PB        70.7410   56.5080  -65.8970 P.3   700  DTP700      0.2277
      6  O1B       69.6960   57.3570  -66.8850 O.2   700  DTP700     -0.5168
      7  O2B       70.2880   54.8950  -65.9740 O.3   700  DTP700     -0.4368
      8  O3B       72.3200   56.6760  -66.5310 O.3   700  DTP700     -0.2258
      9  PA        69.3480   56.5970  -63.4470 P.3   700  DTP700      0.2189
     10  O1A       69.5420   55.0020  -62.9730 O.2   700  DTP700     -0.5170
     11  O2A       69.2610   57.5010  -62.0420 O.3   700  DTP700     -0.4371
     12  O3A       70.6500   57.1740  -64.3400 O.3   700  DTP700     -0.2700
     13  O5'       67.9360   56.8130  -64.2860 O.3   700  DTP700     -0.3112
     14  C5'       67.4380   55.5740  -64.7270 C.3   700  DTP700      0.1813
     15  C4'       66.1710   55.8160  -65.5370 C.3   700  DTP700      0.1795
     16  O4'       65.1990   56.2230  -64.6390 O.3   700  DTP700     -0.3155
     17  C3'       66.3640   56.9100  -66.5230 C.3   700  DTP700      0.1883
     18  O3'       66.8840   56.4610  -67.7330 O.3   700  DTP700     -0.2202
     19  C2'       65.0210   57.5230  -66.5940 C.3   700  DTP700      0.1151
     20  C1'       64.4240   57.2930  -65.1820 C.3   700  DTP700      0.2873
     21  N9        64.6360   58.5580  -64.4150 N.pl3 700  DTP700     -0.1460
     22  C8        65.4430   58.7940  -63.3300 C.3   700  DTP700      0.3377
     23  N7        65.4000   60.0620  -62.8740 N.2   700  DTP700     -0.2095
     24  C5        64.5250   60.6250  -63.6920 C.2   700  DTP700      0.2526
     25  C6        63.9920   62.0110  -63.7830 C.2   700  DTP700      0.4393
     26  N6        64.3940   62.9690  -62.9000 N.pl3 700  DTP700      0.2180
     27  N1        63.1050   62.3000  -64.7260 N.2   700  DTP700      0.0021
     28  C2        62.7170   61.3300  -65.5890 C.3   700  DTP700      0.5254
     29  N3        63.2060   60.0080  -65.5370 N.2   700  DTP700     -0.0055
     30  C4        64.0660   59.7330  -64.6140 C.2   700  DTP700      0.3518
@<TRIPOS>BOND
     1    18    17    1
     2     6     5    2
     3    19    17    1
     4    19    20    1
     5     8     5    1
     6     8     1    1
     7    17    15    1
     8     7     5    1
     9     5    12    1
    10     3     1    2
    11    28    29    1
    12    28    27    1
    13    29    30    2
    14    15    14    1
    15    15    16    1
    16     1     2    1
    17     1     4    1
    18    20    16    1
    19    20    21    1
    20    14    13    1
    21    27    25    2
    22    30    21    1
    23    30    24    1
    24    21    22    1
    25    12     9    1
    26    13     9    1
    27    25    24    1
    28    25    26    1
    29    24    23    2
    30     9    10    2
    31     9    11    1
    32    22    23    1
