@<TRIPOS>MOLECULE
3jyu_1PS_B_1.pdb
 13 13 0 0 0
SMALL
GASTEIGER

@<TRIPOS>ATOM
      1  N1        97.9130   23.3370   38.6220 N.3   1001  1PS1001    -0.2726
      2  C1        97.2200   22.8500   39.8040 C.3   1001  1PS1001     0.0721
      3  C2        97.2580   23.6890   41.0840 C.3   1001  1PS1001     0.0174
      4  C3        98.6650   24.5610   38.6820 C.3   1001  1PS1001     0.0721
      5  C4        99.0780   25.1560   40.0360 C.3   1001  1PS1001     0.0174
      6  C5        98.2680   24.8340   41.3070 C.3   1001  1PS1001     0.0029
      7  C6        97.9090   22.5600   37.4230 C.3   1001  1PS1001     0.0738
      8  C7        96.9180   21.4560   37.3700 C.3   1001  1PS1001     0.0388
      9  C8        97.3900   20.1410   36.8600 C.3   1001  1PS1001     0.1067
     10  S1        96.8820   19.5460   35.2660 S.3   1001  1PS1001    -0.1960
     11  O1        97.9720   19.7690   34.3080 O.3   1001  1PS1001    -0.3075
     12  O2        95.6750   20.2280   34.7690 O.3   1001  1PS1001    -0.3075
     13  O3        96.5830   18.1200   35.4430 O.3   1001  1PS1001    -0.3075
@<TRIPOS>BOND
     1    11    10    1
     2    12    10    1
     3    10    13    1
     4    10     9    1
     5     9     8    1
     6     8     7    1
     7     7     1    1
     8     1     4    1
     9     1     2    1
    10     4     5    1
    11     2     3    1
    12     5     6    1
    13     3     6    1
