@<TRIPOS>MOLECULE
3jz0_APC_A_1.pdb
 31 33 0 0 0
SMALL
GASTEIGER

@<TRIPOS>ATOM
      1  PG        16.4610   16.9520   25.8070 P.3   738  APC738      0.5389
      2  O1G       17.0360   16.3960   24.5620 O.2   738  APC738     -0.2220
      3  O2G       17.4820   17.9090   26.5880 O.3   738  APC738     -0.1143
      4  O3G       16.0600   15.7950   26.8560 O.3   738  APC738     -0.1143
      5  PB        14.4520   18.0340   24.0940 P.3   738  APC738      0.3895
      6  O1B       13.3150   18.9750   24.3000 O.3   738  APC738     -0.1388
      7  O2B       15.4850   18.3540   23.1070 O.2   738  APC738     -0.2544
      8  O3B       15.1250   17.8390   25.5620 O.3   738  APC738     -0.2026
      9  PA        14.1420   15.6690   22.1170 P.3   738  APC738      0.3820
     10  O1A       15.6030   15.7830   21.8510 O.2   738  APC738     -0.2548
     11  O2A       13.5200   14.3440   22.0060 O.3   738  APC738     -0.1392
     12  C3A       13.7430   16.3820   23.7350 C.3   738  APC738      0.2357
     13  O5'       13.3070   16.6250   21.1170 O.3   738  APC738     -0.2896
     14  C5'       13.8830   17.7410   20.4420 C.3   738  APC738      0.1836
     15  C4'       12.7870   18.7570   20.0210 C.3   738  APC738      0.1822
     16  O4'       11.9080   18.0800   19.1100 O.3   738  APC738     -0.3135
     17  C3'       11.8870   19.1270   21.2040 C.3   738  APC738      0.2184
     18  O3'       12.4500   20.1760   21.9970 O.3   738  APC738     -0.2174
     19  C2'       10.6280   19.5860   20.4740 C.3   738  APC738      0.2570
     20  O2'       10.7990   20.9010   19.9470 O.3   738  APC738     -0.2130
     21  C1'       10.5610   18.5870   19.3140 C.3   738  APC738      0.3186
     22  N9         9.6940   17.4150   19.6140 N.pl3 738  APC738     -0.1439
     23  C8         9.7220   16.6560   20.7120 C.3   738  APC738      0.3377
     24  N7         8.8010   15.7030   20.6120 N.2   738  APC738     -0.2095
     25  C5         8.1930   15.8420   19.4410 C.2   738  APC738      0.2526
     26  C6         7.1760   15.1460   18.8050 C.2   738  APC738      0.4393
     27  N6         6.6050   14.1000   19.3980 N.pl3 738  APC738      0.2180
     28  N1         6.7740   15.5570   17.5940 N.2   738  APC738      0.0021
     29  C2         7.3420   16.6040   17.0010 C.3   738  APC738      0.5254
     30  N3         8.3230   17.2880   17.5810 N.2   738  APC738     -0.0055
     31  C4         8.7620   16.9280   18.8010 C.2   738  APC738      0.3518
@<TRIPOS>BOND
     1    29    30    1
     2    29    28    1
     3    30    31    2
     4    28    26    2
     5    31    25    1
     6    31    22    1
     7    26    27    1
     8    26    25    1
     9    16    21    1
    10    16    15    1
    11    21    22    1
    12    21    19    1
    13    25    24    2
    14    22    23    1
    15    20    19    1
    16    15    14    1
    17    15    17    1
    18    14    13    1
    19    19    17    1
    20    24    23    1
    21    13     9    1
    22    17    18    1
    23    10     9    2
    24    11     9    1
    25     9    12    1
    26     7     5    2
    27    12     5    1
    28     5     6    1
    29     5     8    1
    30     2     1    2
    31     8     1    1
    32     1     3    1
    33     1     4    1
