@<TRIPOS>MOLECULE
3jz0_CLY_A_1.pdb
 27 28 0 0 0
SMALL
GASTEIGER

@<TRIPOS>ATOM
      1  O4        13.1960   12.5630   19.9710 O.3   900  CLY900     -0.2167
      2  C1        13.0530   12.9410   18.6020 C.3   900  CLY900      0.2219
      3  C2        13.1140   14.4640   18.4640 C.3   900  CLY900      0.2181
      4  C3        12.7590   14.8730   17.0310 C.3   900  CLY900      0.2134
      5  C4        11.4700   14.2130   16.5110 C.3   900  CLY900      0.1702
      6  O5        11.4950   12.7840   16.7200 O.3   900  CLY900     -0.3407
      7  C5        11.7500   12.3570   18.0670 C.3   900  CLY900      0.1955
      8  O6        14.4550   14.8810   18.7860 O.3   900  CLY900     -0.2175
      9  O7        13.8470   14.4660   16.2090 O.3   900  CLY900     -0.2176
     10  S1        10.4340   12.8220   19.1500 S.3   900  CLY900     -0.1085
     11  C6         9.1380   12.0560   18.2350 C.3   900  CLY900      0.0716
     12  C7        11.2100   14.4850   15.0190 C.3   900  CLY900      0.1399
     13  C8        10.0780   13.6050   14.4670 C.3   900  CLY900      0.1023
     14  C9         9.9260   13.7050   12.9530 C.3   900  CLY900      0.0194
     15 CL1         8.5120   14.0370   15.2270 Cl    900  CLY900     -0.1131
     16  N1        10.9460   15.9010   14.7770 N.am  900  CLY900     -0.2022
     17  C10       11.5110   16.5920   13.7830 C.2   900  CLY900      0.2559
     18  O8        12.4470   16.1650   13.1150 O.2   900  CLY900     -0.2719
     19  C11       10.9470   17.9620   13.4950 C.3   900  CLY900      0.1365
     20  C12       11.9500   19.0270   13.9460 C.3   900  CLY900      0.0268
     21  C13       11.2600   19.7990   15.0660 C.3   900  CLY900      0.0178
     22  C14        9.7770   19.5090   14.8740 C.3   900  CLY900      0.0725
     23  N2         9.7090   18.1750   14.2670 N.3   900  CLY900     -0.2653
     24  C15        8.5070   18.0340   13.4270 C.3   900  CLY900      0.0900
     25  C16       11.5600   21.2920   14.9720 C.3   900  CLY900      0.0014
     26  C17       11.0100   22.0810   16.1550 C.3   900  CLY900      0.0000
     27  C18       11.4760   23.5180   16.0720 C.3   900  CLY900      0.0000
@<TRIPOS>BOND
     1    14    13    1
     2    18    17    2
     3    24    23    1
     4    19    17    1
     5    19    20    1
     6    19    23    1
     7    17    16   am
     8    20    21    1
     9    23    22    1
    10    13    12    1
    11    13    15    1
    12    16    12    1
    13    22    21    1
    14    25    21    1
    15    25    26    1
    16    12     5    1
    17    27    26    1
    18     9     4    1
    19     5     6    1
    20     5     4    1
    21     6     7    1
    22     4     3    1
    23     7     2    1
    24     7    10    1
    25    11    10    1
    26     3     2    1
    27     3     8    1
    28     2     1    1
