@<TRIPOS>MOLECULE
3jz4_NAP_A_1.pdb
 48 52 0 0 0
SMALL
GASTEIGER

@<TRIPOS>ATOM
      1  PA       -26.0570   42.5160    6.5730 P.3   482  NAP482      0.2189
      2  O1A      -26.0610   42.1530    5.1440 O.2   482  NAP482     -0.5170
      3  O2A      -27.0380   41.7530    7.3780 O.3   482  NAP482     -0.4371
      4  O5B      -24.5880   42.2810    7.1470 O.3   482  NAP482     -0.3112
      5  C5B      -24.2490   42.4820    8.5030 C.3   482  NAP482      0.1813
      6  C4B      -22.8260   41.9570    8.6440 C.3   482  NAP482      0.1820
      7  O4B      -22.8090   40.5760    8.3190 O.3   482  NAP482     -0.3136
      8  C3B      -21.9130   42.6660    7.6410 C.3   482  NAP482      0.2157
      9  O3B      -20.7820   43.2190    8.2870 O.3   482  NAP482     -0.2175
     10  C2B      -21.5310   41.6030    6.6150 C.3   482  NAP482      0.2314
     11  O2B      -20.1550   41.6090    6.3360 O.3   482  NAP482     -0.2630
     12  C1B      -21.8650   40.2870    7.2960 C.3   482  NAP482      0.3158
     13  N9A      -22.3860   39.2570    6.3770 N.pl3 482  NAP482     -0.1439
     14  C8A      -23.3500   39.3920    5.4060 C.3   482  NAP482      0.3377
     15  N7A      -23.5270   38.1880    4.8050 N.2   482  NAP482     -0.2095
     16  C5A      -22.6960   37.2810    5.3770 C.2   482  NAP482      0.2526
     17  C6A      -22.4640   35.9140    5.1580 C.2   482  NAP482      0.4393
     18  N6A      -23.1190   35.2300    4.2240 N.pl3 482  NAP482      0.2180
     19  N1A      -21.5170   35.2640    5.9240 N.2   482  NAP482      0.0021
     20  C2A      -20.8140   35.9510    6.8970 C.3   482  NAP482      0.5254
     21  N3A      -21.0470   37.2920    7.1080 N.2   482  NAP482     -0.0055
     22  C4A      -21.9710   37.9480    6.3650 C.2   482  NAP482      0.3518
     23  O3       -26.2040   44.1140    6.7880 O.3   482  NAP482     -0.2703
     24  PN       -26.3360   45.4180    5.8310 P.3   482  NAP482      0.2189
     25  O1N      -26.0530   46.5780    6.7100 O.3   482  NAP482     -0.4371
     26  O2N      -25.5550   45.2440    4.5850 O.2   482  NAP482     -0.5170
     27  O5D      -27.9040   45.3160    5.4310 O.3   482  NAP482     -0.3112
     28  C5D      -28.7840   46.4230    5.4450 C.3   482  NAP482      0.1813
     29  C4D      -29.8200   46.3180    6.5620 C.3   482  NAP482      0.1799
     30  O4D      -29.5780   45.3040    7.5440 O.3   482  NAP482     -0.3327
     31  C3D      -29.8620   47.6110    7.3570 C.3   482  NAP482      0.2158
     32  O3D      -30.5130   48.6570    6.6770 O.3   482  NAP482     -0.2175
     33  C2D      -30.5450   47.1720    8.6470 C.3   482  NAP482      0.2309
     34  O2D      -31.9590   47.2720    8.5840 O.3   482  NAP482     -0.2158
     35  C1D      -30.0510   45.7260    8.8300 C.3   482  NAP482      0.2263
     36  N1N      -28.9880   45.7410    9.8770 N.pl3 482  NAP482     -0.2787
     37  C2N      -29.3130   45.5390   11.2050 C.3   482  NAP482      0.1244
     38  C3N      -28.3110   45.5780   12.1980 C.2   482  NAP482      0.0544
     39  C7N      -28.6580   45.4040   13.6580 C.2   482  NAP482      0.2818
     40  O7N      -29.4440   44.2940   14.0240 O.2   482  NAP482     -0.2670
     41  N7N      -28.2270   46.2720   14.5780 N.am  482  NAP482     -0.0839
     42  C4N      -26.9890   45.8230   11.8310 C.2   482  NAP482      0.0033
     43  C5N      -26.6690   46.0350   10.4930 C.2   482  NAP482      0.0157
     44  C6N      -27.6730   45.9900    9.5320 C.2   482  NAP482      0.0633
     45  P2B      -19.4740   42.6830    5.3560 P.3   482  NAP482      0.5328
     46  O1X      -19.3350   43.9660    6.1490 O.3   482  NAP482     -0.1145
     47  O2X      -20.2890   42.9320    4.0930 O.2   482  NAP482     -0.2224
     48  O3X      -18.1450   42.0630    4.9900 O.3   482  NAP482     -0.1145
@<TRIPOS>BOND
     1    47    45    2
     2    18    17    1
     3    26    24    2
     4    15    16    2
     5    15    14    1
     6    48    45    1
     7     2     1    2
     8    17    16    1
     9    17    19    2
    10    45    46    1
    11    45    11    1
    12    16    22    1
    13    14    13    1
    14    27    28    1
    15    27    24    1
    16    28    29    1
    17    24    25    1
    18    24    23    1
    19    19    20    1
    20    11    10    1
    21    22    13    1
    22    22    21    2
    23    13    12    1
    24    29    31    1
    25    29    30    1
    26     1    23    1
    27     1     4    1
    28     1     3    1
    29    10    12    1
    30    10     8    1
    31    32    31    1
    32    20    21    1
    33     4     5    1
    34    12     7    1
    35    31    33    1
    36    30    35    1
    37     8     9    1
    38     8     6    1
    39     7     6    1
    40     5     6    1
    41    34    33    1
    42    33    35    1
    43    35    36    1
    44    44    36    1
    45    44    43    2
    46    36    37    1
    47    43    42    1
    48    37    38    1
    49    42    38    2
    50    38    39    1
    51    39    40    2
    52    39    41   am
