@<TRIPOS>MOLECULE
3jz6_PLP_A_1.pdb
 15 15 0 0 0
SMALL
GASTEIGER

@<TRIPOS>ATOM
      1  N1         2.7910  -15.3970    6.8220 N.ar  369  PLP369     -0.2452
      2  C2         3.2690  -14.6970    7.9370 C.ar  369  PLP369      0.0978
      3  C2A        2.2820  -14.3470    9.0030 C.3   369  PLP369      0.0555
      4  C3         4.6430  -14.3860    7.9930 C.ar  369  PLP369      0.2049
      5  O3         5.1690  -13.7000    9.0600 O.3   369  PLP369     -0.2857
      6  C4         5.5210  -14.7800    6.8610 C.ar  369  PLP369      0.0182
      7  C4A        6.9540  -14.4580    6.9010 C.3   369  PLP369      0.0342
      8  C5         4.9530  -15.5030    5.7450 C.ar  369  PLP369      0.0261
      9  C6         3.5680  -15.7930    5.7430 C.ar  369  PLP369      0.0965
     10  C5A        5.6700  -15.9890    4.5150 C.3   369  PLP369      0.1815
     11  O4P        6.3380  -15.0590    3.7680 O.3   369  PLP369     -0.2653
     12  P          7.4650  -15.5570    2.7840 P.3   369  PLP369      0.5329
     13  O1P        6.8220  -16.4220    1.7290 O.2   369  PLP369     -0.2224
     14  O2P        8.5860  -16.1130    3.4760 O.3   369  PLP369     -0.1145
     15  O3P        7.8900  -14.1900    2.2240 O.3   369  PLP369     -0.1145
@<TRIPOS>BOND
     1    13    12    2
     2    15    12    1
     3    12    14    1
     4    12    11    1
     5    11    10    1
     6    10     8    1
     7     9     8   ar
     8     9     1   ar
     9     8     6   ar
    10     1     2   ar
    11     6     7    1
    12     6     4   ar
    13     2     4   ar
    14     2     3    1
    15     4     5    1
