@<TRIPOS>MOLECULE
3jzb_4HY_A_1.pdb
 21 22 0 0 0
SMALL
GASTEIGER

@<TRIPOS>ATOM
      1  C1        25.2850   37.4200   34.4250 C.ar    1  4HY1       -0.0133
      2  C2        27.8220   39.0230   30.3480 C.ar    1  4HY1        0.1460
      3  C3        25.8560   38.8320   34.4270 C.ar    1  4HY1        0.0049
      4  C4        28.1110   40.1440   29.3190 C.ar    1  4HY1        0.0465
      5  C5        26.6850   39.2400   33.2280 C.ar    1  4HY1        0.0647
      6  C6        29.4720   40.1500   28.7260 C.ar    1  4HY1        0.0720
      7  C7        26.9030   38.2820   32.0950 C.ar    1  4HY1        0.1558
      8  C8        30.5140   39.1780   29.0610 C.ar    1  4HY1        0.2012
      9  C9        26.3640   36.8310   32.1160 C.ar    1  4HY1        0.0647
     10  C10       30.1980   38.0660   30.1120 C.ar    1  4HY1        0.0456
     11  C11       25.5310   36.3950   33.3040 C.ar    1  4HY1        0.0049
     12  C12       28.8290   37.9970   30.7480 C.ar    1  4HY1        0.0408
     13  C13       25.0340   36.8900   35.8050 C.3     1  4HY1        0.1262
     14  C14       23.6530   36.9530   36.2710 C.3     1  4HY1        0.4302
     15  I1        26.8940   41.3110   32.9000 I       1  4HY1       -0.0393
     16  I2        30.0480   41.5810   27.3320 I       1  4HY1       -0.0391
     17  I3        25.9820   35.8530   30.3270 I       1  4HY1       -0.0393
     18  O3        22.9020   36.6920   35.3870 O.2     1  4HY1       -0.2667
     19  O2        26.5940   38.8780   30.9100 O.3     1  4HY1       -0.4526
     20  O1        31.7790   39.2920   28.4610 O.3     1  4HY1       -0.2861
     21  O4        23.5720   36.3750   37.5600 O.2     1  4HY1       -0.2667
@<TRIPOS>BOND
     1    16     6    1
     2    20     8    1
     3     6     8   ar
     4     6     4   ar
     5     8    10   ar
     6     4     2   ar
     7    10    12   ar
     8    17     9    1
     9     2    12   ar
    10     2    19    1
    11    19     7    1
    12     7     9   ar
    13     7     5   ar
    14     9    11   ar
    15    15     5    1
    16     5     3   ar
    17    11     1   ar
    18     1     3   ar
    19     1    13    1
    20    18    14    1
    21    13    14    1
    22    14    21    1
