@<TRIPOS>MOLECULE
3jzc_4HY_A_1.pdb
 21 22 0 0 0
SMALL
GASTEIGER

@<TRIPOS>ATOM
      1  C1       -15.1780  -16.1660  -27.1220 C.ar    1  4HY1       -0.0099
      2  C2       -14.1820  -12.1380  -29.7980 C.ar    1  4HY1        0.1460
      3  C3       -14.7800  -16.2920  -28.4460 C.ar    1  4HY1        0.0051
      4  C4       -13.6610  -11.4270  -30.8670 C.ar    1  4HY1        0.0465
      5  C5       -14.1640  -15.2250  -29.1020 C.ar    1  4HY1        0.0647
      6  C6       -14.4820  -10.6100  -31.6330 C.ar    1  4HY1        0.0720
      7  C7       -13.9630  -14.0110  -28.4400 C.ar    1  4HY1        0.1558
      8  C8       -15.8340  -10.5030  -31.3360 C.ar    1  4HY1        0.2012
      9  C9       -14.3880  -13.8850  -27.1200 C.ar    1  4HY1        0.0647
     10  C10      -16.3610  -11.2140  -30.2720 C.ar    1  4HY1        0.0456
     11  C11      -14.9870  -14.9570  -26.4690 C.ar    1  4HY1        0.0051
     12  C12      -15.5390  -12.0330  -29.5080 C.ar    1  4HY1        0.0408
     13  C13      -15.8870  -17.3080  -26.3710 C.3     1  4HY1        0.1404
     14  C14      -15.0610  -18.5540  -26.0240 C.2     1  4HY1        0.3692
     15  I1       -13.5550  -15.4750  -31.1120 I       1  4HY1       -0.0393
     16  I2       -13.6400   -9.5340  -33.2320 I       1  4HY1       -0.0391
     17  I3       -14.0740  -12.0760  -26.0930 I       1  4HY1       -0.0393
     18  O3       -13.8870  -18.3880  -25.6230 O.co2   1  4HY1       -0.2453
     19  O2       -13.3600  -12.9450  -29.0620 O.3     1  4HY1       -0.4526
     20  O1       -16.6350   -9.7060  -32.0820 O.3     1  4HY1       -0.2861
     21  O4       -15.6830  -19.6470  -26.0880 O.co2   1  4HY1       -0.2453
@<TRIPOS>BOND
     1    16     6    1
     2    20     8    1
     3     6     8   ar
     4     6     4   ar
     5     8    10   ar
     6    15     5    1
     7     4     2   ar
     8    10    12   ar
     9     2    12   ar
    10     2    19    1
    11     5     3   ar
    12     5     7   ar
    13    19     7    1
    14     3     1   ar
    15     7     9   ar
    16     1    11   ar
    17     1    13    1
    18     9    11   ar
    19     9    17    1
    20    13    14    1
    21    21    14   ar
    22    14    18   ar
