@<TRIPOS>MOLECULE
3jzd_NAD_A_1.pdb
 44 48 0 0 0
SMALL
GASTEIGER

@<TRIPOS>ATOM
      1  PA         0.8540   76.7780   11.9750 P.3   400  NAD400      0.2189
      2  O1A        1.7300   76.7050   10.7590 O.2   400  NAD400     -0.5170
      3  O2A        1.6820   76.5450   13.1640 O.3   400  NAD400     -0.4371
      4  O5B       -0.4640   75.8770   11.7800 O.3   400  NAD400     -0.3112
      5  C5B       -1.2630   75.5060   12.9010 C.3   400  NAD400      0.1813
      6  C4B       -2.0220   74.2340   12.5690 C.3   400  NAD400      0.1821
      7  O4B       -2.9830   74.4460   11.5540 O.3   400  NAD400     -0.3135
      8  C3B       -1.0850   73.1630   12.0230 C.3   400  NAD400      0.2184
      9  O3B       -1.3970   71.9060   12.5520 O.3   400  NAD400     -0.2174
     10  C2B       -1.3840   73.1130   10.5440 C.3   400  NAD400      0.2570
     11  O2B       -1.1130   71.8480    9.9860 O.3   400  NAD400     -0.2130
     12  C1B       -2.8650   73.4770   10.5360 C.3   400  NAD400      0.3186
     13  N9A       -3.2850   74.0790    9.2710 N.pl3 400  NAD400     -0.1439
     14  C8A       -2.6330   75.1160    8.6540 C.3   400  NAD400      0.3377
     15  N7A       -3.3160   75.4280    7.5410 N.2   400  NAD400     -0.2095
     16  C5A       -4.3770   74.6190    7.4150 C.2   400  NAD400      0.2526
     17  C6A       -5.3680   74.4900    6.4310 C.2   400  NAD400      0.4393
     18  N6A       -5.6220   75.4320    5.5450 N.pl3 400  NAD400      0.2180
     19  N1A       -6.3080   73.4990    6.5770 N.2   400  NAD400      0.0021
     20  C2A       -6.2780   72.6530    7.6600 C.3   400  NAD400      0.5254
     21  N3A       -5.3080   72.7860    8.6370 N.2   400  NAD400     -0.0055
     22  C4A       -4.3510   73.7460    8.5050 C.2   400  NAD400      0.3518
     23  O3         0.1240   78.1970   12.2070 O.3   400  NAD400     -0.2703
     24  PN         0.5680   79.6280   11.6170 P.3   400  NAD400      0.2189
     25  O1N       -0.1640   80.6080   12.5330 O.3   400  NAD400     -0.4371
     26  O2N        0.4110   79.6400   10.1490 O.2   400  NAD400     -0.5170
     27  O5D        2.1120   79.7540   11.8350 O.3   400  NAD400     -0.3112
     28  C5D        2.6190   80.2910   13.0210 C.3   400  NAD400      0.1813
     29  C4D        4.0960   79.9530   13.0600 C.3   400  NAD400      0.1799
     30  O4D        4.7040   80.6340   11.9910 O.3   400  NAD400     -0.3327
     31  C3D        4.7680   80.4580   14.3220 C.3   400  NAD400      0.2158
     32  O3D        5.8980   79.6740   14.5530 O.3   400  NAD400     -0.2175
     33  C2D        5.1640   81.8500   13.9430 C.3   400  NAD400      0.2309
     34  O2D        6.1670   82.3640   14.7830 O.3   400  NAD400     -0.2158
     35  C1D        5.6050   81.6010   12.4990 C.3   400  NAD400      0.2263
     36  N1N        5.6050   82.8440   11.7100 N.pl3 400  NAD400     -0.2787
     37  C2N        6.8060   83.2940   11.2250 C.3   400  NAD400      0.1244
     38  C3N        6.8640   84.4570   10.4700 C.2   400  NAD400      0.0544
     39  C7N        8.1710   84.9060    9.8560 C.2   400  NAD400      0.2818
     40  O7N        8.2040   86.0460    9.0520 O.2   400  NAD400     -0.2670
     41  N7N        9.2930   84.2300   10.0160 N.am  400  NAD400     -0.0839
     42  C4N        5.6770   85.1600   10.2090 C.2   400  NAD400      0.0033
     43  C5N        4.4630   84.6900   10.6980 C.2   400  NAD400      0.0157
     44  C6N        4.4360   83.5040   11.4350 C.2   400  NAD400      0.0633
@<TRIPOS>BOND
     1    18    17    1
     2    17    19    2
     3    17    16    1
     4    19    20    1
     5    16    15    2
     6    16    22    1
     7    15    14    1
     8    20    21    1
     9    22    21    2
    10    22    13    1
    11    14    13    1
    12    40    39    2
    13    13    12    1
    14    39    41   am
    15    39    38    1
    16    11    10    1
    17    26    24    2
    18    42    38    2
    19    42    43    1
    20    38    37    1
    21    12    10    1
    22    12     7    1
    23    10     8    1
    24    43    44    2
    25     2     1    2
    26    37    36    1
    27    44    36    1
    28     7     6    1
    29    24    27    1
    30    24    23    1
    31    24    25    1
    32    36    35    1
    33     4     1    1
    34     4     5    1
    35    27    28    1
    36     1    23    1
    37     1     3    1
    38    30    35    1
    39    30    29    1
    40     8     9    1
    41     8     6    1
    42    35    33    1
    43     6     5    1
    44    28    29    1
    45    29    31    1
    46    33    31    1
    47    33    34    1
    48    31    32    1
