@<TRIPOS>MOLECULE
3jzf_JZK_B_1.pdb
 28 31 0 0 0
SMALL
GASTEIGER

@<TRIPOS>ATOM
      1  N1        39.9820  -27.6550   36.7180 N.am  466  JZK466     -0.0840
      2  C2        40.1150  -26.2650   36.5810 C.2   466  JZK466      0.2806
      3  O3        40.9710  -25.7210   35.8460 O.2   466  JZK466     -0.2670
      4  C4        39.0290  -25.4170   37.2110 C.2   466  JZK466      0.0414
      5  C5        39.1520  -23.9970   37.1780 C.3   466  JZK466      0.0585
      6  C6        38.1470  -23.0000   37.6620 C.2   466  JZK466     -0.0038
      7  C7        36.9990  -23.7620   38.2120 C.2   466  JZK466      0.0805
      8  N8        35.8270  -23.2900   38.7690 N.pl3 466  JZK466     -0.2474
      9  C9        35.3700  -21.9010   38.7320 C.3   466  JZK466      0.0992
     10  C10       34.4470  -21.6970   37.5120 C.3   466  JZK466      0.0203
     11  C11       33.6200  -20.4390   37.7710 C.3   466  JZK466      0.0017
     12  C12       34.2450  -19.1770   37.1830 C.3   466  JZK466      0.0001
     13  C13       34.5900  -19.2830   35.6920 C.3   466  JZK466      0.0000
     14  C14       34.6090  -20.7220   35.1540 C.3   466  JZK466      0.0001
     15  C15       35.2950  -21.6080   36.2130 C.3   466  JZK466      0.0017
     16  C16       35.0690  -24.3610   39.1520 C.cat 466  JZK466      0.2619
     17  N17       33.8710  -24.1730   39.7400 N.pl3 466  JZK466     -0.1914
     18  C18       33.2170  -25.2700   40.4110 C.3   466  JZK466      0.1433
     19  C19       33.7590  -25.6410   41.7890 C.ar  466  JZK466      0.0101
     20  C20       34.4820  -24.7670   42.6420 C.ar  466  JZK466     -0.0017
     21  C21       34.9130  -25.2450   43.9210 C.ar  466  JZK466     -0.0002
     22  C22       34.6340  -26.5750   44.3540 C.ar  466  JZK466      0.0008
     23  C23       33.9190  -27.4460   43.5110 C.ar  466  JZK466      0.0111
     24  C24       33.4940  -26.9670   42.2390 C.ar  466  JZK466      0.0554
     25 CL25       32.6250  -28.0110   41.1810 Cl    466  JZK466     -0.0825
     26  N26       35.6730  -25.4870   38.8410 N.2   466  JZK466     -0.3703
     27  C27       36.8480  -25.1590   38.2600 C.2   466  JZK466      0.1476
     28  C28       37.8530  -26.0050   37.7620 C.2   466  JZK466      0.0341
@<TRIPOS>BOND
     1    14    13    1
     2    14    15    1
     3    13    12    1
     4     3     2    2
     5    15    10    1
     6     2     1   am
     7     2     4    1
     8     5     4    1
     9     5     6    1
    10    12    11    1
    11     4    28    2
    12    10    11    1
    13    10     9    1
    14     6     7    2
    15    28    27    1
    16     7    27    1
    17     7     8    1
    18    27    26    2
    19     9     8    1
    20     8    16    1
    21    26    16    2
    22    16    17    1
    23    17    18    1
    24    18    19    1
    25    25    24    1
    26    19    24   ar
    27    19    20   ar
    28    24    23   ar
    29    20    21   ar
    30    23    22   ar
    31    21    22   ar
