@<TRIPOS>MOLECULE
3jzg_III_B_1.pdb
 34 33 0 0 0
SMALL
GASTEIGER

@<TRIPOS>ATOM
      1  N        -21.2400   36.2310  -26.1160 N.3    25  ALA25      -0.1231
      2  CA       -19.8770   35.6570  -26.2660 C.3    25  ALA25       0.1694
      3  C        -19.9800   34.2120  -26.7680 C.2    25  ALA25       0.2595
      4  O        -20.5700   33.3660  -26.0840 O.2    25  ALA25      -0.2718
      5  CB       -19.1170   35.6950  -24.9340 C.3    25  ALA25       0.0304
      6  N        -19.3950   33.9080  -27.9320 N.am   26  ARG26      -0.1920
      7  CA       -19.4240   32.5270  -28.4270 C.3    26  ARG26       0.1945
      8  C        -18.1530   31.7680  -28.0420 C.2    26  ARG26       0.2659
      9  O        -17.0690   32.3710  -27.9240 O.2    26  ARG26      -0.2711
     10  CB       -19.7650   32.3920  -29.9380 C.2    26  ARG26       0.0033
     11  CG       -18.8480   33.1910  -30.9920 C.2    26  ARG26       0.0179
     12  CD       -18.9620   32.6910  -32.5060 C.3    26  ARG26       0.2464
     13  NE       -20.1200   31.8190  -32.7020 N.pl3  26  ARG26      -0.0815
     14  CZ       -21.3780   32.2600  -32.8060 C.cat  26  ARG26       0.5349
     15  NH1      -21.6460   33.5710  -32.7680 N.pl3  26  ARG26       0.1354
     16  NH2      -22.3800   31.3980  -32.9420 N.pl3  26  ARG26       0.1354
     17  N        -18.3440   30.4560  -27.8270 N.am   27  LYS27      -0.1961
     18  CA       -17.2870   29.4840  -27.5180 C.3    27  LYS27       0.1728
     19  CB       -17.8310   28.1860  -26.8670 C.3    27  LYS27       0.0310
     20  CG       -16.7790   27.4960  -25.9920 C.3    27  LYS27       0.0001
     21  CD       -17.1180   26.0490  -25.6340 C.3    27  LYS27      -0.0222
     22  CE       -16.1070   25.3950  -24.6450 C.3    27  LYS27      -0.0733
     23  NZ       -16.5280   24.1140  -23.9770 N.4    27  LYS27       0.3857
     24  C        -16.3470   29.1670  -28.6700 C.2    27  LYS27       0.2616
     25  O        -15.1720   28.8160  -28.3980 O.2    27  LYS27      -0.2715
     26  CM1      -17.3190   24.2860  -22.7490 C.3    27  LYS27      -0.0960
     27  CM2      -15.3020   23.4170  -23.5350 C.3    27  LYS27      -0.0960
     28  CM3      -17.3120   23.2570  -24.9200 C.3    27  LYS27      -0.0960
     29  N        -16.8250   29.2750  -29.9410 N.am   28  SER28      -0.1950
     30  CA       -15.9250   29.1730  -31.1770 C.3    28  SER28       0.1924
     31  C        -16.0410   30.2100  -32.3350 C.2    28  SER28       0.2314
     32  O        -17.1170   30.7140  -32.6440 O.2    28  SER28      -0.2863
     33  CB       -15.9620   27.7630  -31.7710 C.3    28  SER28       0.2116
     34  OG       -17.3000   27.3250  -31.8430 O.3    28  SER28      -0.2180
@<TRIPOS>BOND
     1    16    14    1
     2    14    15    1
     3    14    13    2
     4    13    12    1
     5    32    31    2
     6    12    11    1
     7    31    30    1
     8    34    33    1
     9    33    30    1
    10    30    29    1
    11    11    10    2
    12    29    24   am
    13    10     7    1
    14    24    25    2
    15    24    18    1
    16     7     8    1
    17     7     6    1
    18     8     9    2
    19     8    17   am
    20     6     3   am
    21    17    18    1
    22    18    19    1
    23    19    20    1
    24     3     2    1
    25     3     4    2
    26     2     1    1
    27     2     5    1
    28    20    21    1
    29    21    22    1
    30    28    23    1
    31    22    23    1
    32    23    27    1
    33    23    26    1
