@<TRIPOS>MOLECULE
3jzh_III_B_1.pdb
 46 46 0 0 0
SMALL
GASTEIGER

@<TRIPOS>ATOM
      1  N         21.6060    6.3190  -26.2990 N.3    77  ASP77      -0.1225
      2  CA        20.2710    6.9640  -26.2520 C.3    77  ASP77       0.1805
      3  C         20.1640    8.4390  -26.7600 C.2    77  ASP77       0.2598
      4  O         20.6760    9.3430  -26.1250 O.2    77  ASP77      -0.2718
      5  CB        19.7880    6.8800  -24.8200 C.3    77  ASP77       0.1424
      6  CG        18.3640    7.2800  -24.6870 C.2    77  ASP77       0.3668
      7  OD1       17.6420    7.2150  -25.7320 O.co2  77  ASP77      -0.2456
      8  OD2       17.9490    7.6700  -23.5550 O.co2  77  ASP77      -0.2456
      9  N         19.4270    8.6470  -27.8610 N.am   78  PHE78      -0.1962
     10  CA        19.2960    9.9010  -28.6660 C.3    78  PHE78       0.1771
     11  C         18.1430   10.8050  -28.0820 C.2    78  PHE78       0.2619
     12  O         17.0520   10.3010  -27.8270 O.2    78  PHE78      -0.2715
     13  CB        18.8840    9.4700  -30.1090 C.3    78  PHE78       0.0574
     14  CG        19.9290    9.6900  -31.2470 C.ar   78  PHE78      -0.0200
     15  CD1       21.3430    9.7410  -31.0150 C.ar   78  PHE78      -0.0042
     16  CD2       19.4610    9.7930  -32.6070 C.ar   78  PHE78      -0.0042
     17  CE1       22.2780    9.9320  -32.1330 C.ar   78  PHE78      -0.0003
     18  CE2       20.3660    9.9940  -33.7290 C.ar   78  PHE78      -0.0003
     19  CZ        21.7660   10.0580  -33.4930 C.ar   78  PHE78      -0.0000
     20  N         18.3740   12.1130  -27.8840 N.am   79  LYS79      -0.1963
     21  CA        17.3300   13.0570  -27.3810 C.3    79  LYS79       0.1728
     22  CB        17.8750   14.3360  -26.6880 C.3    79  LYS79       0.0310
     23  CG        16.7980   15.1740  -25.9720 C.3    79  LYS79       0.0001
     24  CD        17.2470   16.5260  -25.3950 C.3    79  LYS79      -0.0222
     25  CE        16.1340   17.2780  -24.6190 C.3    79  LYS79      -0.0733
     26  NZ        16.5730   18.5190  -23.9080 N.4    79  LYS79       0.3857
     27  C         16.3990   13.4150  -28.5260 C.2    79  LYS79       0.2617
     28  O         15.2310   13.7690  -28.3410 O.2    79  LYS79      -0.2715
     29  CM1       17.2930   18.2800  -22.6270 C.3    79  LYS79      -0.0960
     30  CM2       15.3410   19.2220  -23.5270 C.3    79  LYS79      -0.0960
     31  CM3       17.4110   19.3380  -24.8330 C.3    79  LYS79      -0.0960
     32  N         16.9540   13.2500  -29.7240 N.am   80  THR80      -0.1937
     33  CA        16.3640   13.6370  -31.0060 C.3    80  THR80       0.2028
     34  C         16.6500   12.6260  -32.1590 C.2    80  THR80       0.2642
     35  O         17.6440   11.9070  -32.1420 O.2    80  THR80      -0.2714
     36  CB        16.9440   15.0070  -31.4070 C.3    80  THR80       0.1808
     37  OG1       16.3060   15.4230  -32.5890 O.3    80  THR80      -0.2208
     38  CG2       18.5340   14.9550  -31.6510 C.3    80  THR80       0.0379
     39  N         15.8160   12.6100  -33.1880 N.am   81  ASP81      -0.1971
     40  CA        16.1260   11.8020  -34.3830 C.3    81  ASP81       0.1709
     41  C         16.8640   12.5810  -35.4590 C.2    81  ASP81       0.2293
     42  O         17.3280   11.9610  -36.4120 O.2    81  ASP81      -0.2864
     43  CB        14.8540   11.1410  -34.9560 C.3    81  ASP81       0.1436
     44  CG        13.5640   11.8310  -34.4880 C.2    81  ASP81       0.3671
     45  OD1       12.5140   11.1500  -34.4960 O.co2  81  ASP81      -0.2456
     46  OD2       13.5940   13.0280  -34.0900 O.co2  81  ASP81      -0.2456
@<TRIPOS>BOND
     1    42    41    2
     2    41    40    1
     3    43    44    1
     4    43    40    1
     5    45    44   ar
     6    44    46   ar
     7    40    39    1
     8    18    19   ar
     9    18    16   ar
    10    19    17   ar
    11    39    34   am
    12    16    14   ar
    13    37    36    1
    14    34    35    2
    15    34    33    1
    16    17    15   ar
    17    38    36    1
    18    36    33    1
    19    14    15   ar
    20    14    13    1
    21    33    32    1
    22    13    10    1
    23    32    27   am
    24    10    11    1
    25    10     9    1
    26    27    28    2
    27    27    21    1
    28    11    20   am
    29    11    12    2
    30    20    21    1
    31     9     3   am
    32    21    22    1
    33     3     2    1
    34     3     4    2
    35    22    23    1
    36     1     2    1
    37     2     5    1
    38    23    24    1
    39     7     6   ar
    40    24    25    1
    41    31    26    1
    42     5     6    1
    43     6     8   ar
    44    25    26    1
    45    26    30    1
    46    26    29    1
