@<TRIPOS>MOLECULE
3jzi_JZL_A_1.pdb
 31 34 0 0 0
SMALL
GASTEIGER

@<TRIPOS>ATOM
      1  N1       -15.1330   -2.0860   -1.8480 N.am  466  JZL466     -0.0840
      2  C2       -15.2760   -1.9930   -0.4970 C.2   466  JZL466      0.2806
      3  O3       -16.1540   -2.5870    0.1130 O.2   466  JZL466     -0.2670
      4  C4       -14.3240   -1.1100    0.2190 C.2   466  JZL466      0.0428
      5  C5       -14.5980   -0.8590    1.5810 C.3   466  JZL466      0.0772
      6  C6       -13.7900   -0.0110    2.3630 C.2   466  JZL466      0.0874
      7  N7       -14.1360    0.1790    3.7150 N.pl3 466  JZL466     -0.1310
      8  C8       -12.6730    0.5530    1.6860 C.2   466  JZL466      0.0975
      9  N9       -11.6900    1.3960    2.0710 N.pl3 466  JZL466     -0.2462
     10  C10      -11.5940    1.9870    3.3740 C.3   466  JZL466      0.1021
     11  C11      -10.7160    1.3160    4.3720 C.3   466  JZL466      0.0549
     12  C12      -10.6120    1.8320    5.8020 C.3   466  JZL466      0.0049
     13  C13      -10.6320    0.6870    6.7860 C.3   466  JZL466      0.0048
     14  C14      -11.4110   -0.4950    6.2780 C.3   466  JZL466      0.0258
     15  C15      -10.6190   -1.4790    5.4190 C.2   466  JZL466     -0.0282
     16  C16       -9.6120   -0.9610    4.3690 C.2   466  JZL466      0.0016
     17  C17       -9.5550    0.4880    3.8840 C.3   466  JZL466      0.1753
     18  O18       -8.3060    1.1370    4.2190 O.3   466  JZL466     -0.2183
     19  C19      -10.8460    1.6360    1.0130 C.cat 466  JZL466      0.2620
     20  N20       -9.7810    2.4690    1.1850 N.pl3 466  JZL466     -0.1914
     21  C21       -9.0000    2.9530    0.1020 C.3   466  JZL466      0.1433
     22  C22       -9.6430    4.1030   -0.6160 C.ar  466  JZL466      0.0101
     23  C23      -10.4530    5.0780    0.0580 C.ar  466  JZL466     -0.0017
     24  C24      -11.0300    6.1410   -0.6710 C.ar  466  JZL466     -0.0002
     25  C25      -10.8070    6.2610   -2.0600 C.ar  466  JZL466      0.0008
     26  C26      -10.0090    5.3020   -2.7340 C.ar  466  JZL466      0.0111
     27  C27       -9.4260    4.2290   -2.0100 C.ar  466  JZL466      0.0554
     28 CL28       -8.4580    3.0750   -2.8710 Cl    466  JZL466     -0.0825
     29  N29      -11.2410    0.9590   -0.0370 N.2   466  JZL466     -0.3703
     30  C30      -12.3640    0.3050    0.3500 C.2   466  JZL466      0.1489
     31  C31      -13.1850   -0.5440   -0.4020 C.2   466  JZL466      0.0342
@<TRIPOS>BOND
     1    28    27    1
     2    26    25   ar
     3    26    27   ar
     4    25    24   ar
     5    27    22   ar
     6     1     2   am
     7    24    23   ar
     8    22    23   ar
     9    22    21    1
    10     2     3    2
    11     2     4    1
    12    31     4    2
    13    31    30    1
    14    29    30    2
    15    29    19    2
    16    21    20    1
    17     4     5    1
    18    30     8    1
    19    19    20    1
    20    19     9    1
    21     5     6    1
    22     8     9    1
    23     8     6    2
    24     9    10    1
    25     6     7    1
    26    10    11    1
    27    17    18    1
    28    17    16    1
    29    17    11    1
    30    16    15    2
    31    11    12    1
    32    15    14    1
    33    12    13    1
    34    14    13    1
