@<TRIPOS>MOLECULE
3jzj_ACR_A_1.pdb
 44 47 0 0 0
SMALL
GASTEIGER

@<TRIPOS>ATOM
      1  C1A       -6.0420  -11.6920   22.0660 C.3   405  ACR405      0.1273
      2  C2A       -5.2600  -12.6370   21.1710 C.3   405  ACR405      0.2049
      3  C3A       -5.6700  -12.3930   19.7070 C.3   405  ACR405      0.2179
      4  C4A       -7.1690  -12.7090   19.5240 C.3   405  ACR405      0.2053
      5  C5A       -8.0380  -12.2100   20.6470 C.2   405  ACR405      0.0180
      6  C6A       -9.5270  -12.1680   20.3750 C.3   405  ACR405      0.2066
      7  C7A       -7.5200  -11.8330   21.8210 C.2   405  ACR405     -0.0100
      8  O2A       -3.8390  -12.4280   21.3010 O.3   405  ACR405     -0.2184
      9  O3A       -4.8460  -13.1240   18.7690 O.3   405  ACR405     -0.2172
     10  O4A       -7.6040  -12.1590   18.2570 O.3   405  ACR405     -0.2157
     11  O6A      -10.3360  -11.7450   21.4930 O.3   405  ACR405     -0.2155
     12  C1B       -4.5980   -6.7660   23.9230 C.3   405  ACR405      0.2694
     13  C2B       -3.7890   -7.9900   24.3240 C.3   405  ACR405      0.2394
     14  C3B       -3.8910   -8.9920   23.1810 C.3   405  ACR405      0.2054
     15  C4B       -5.3420   -9.4350   23.0530 C.3   405  ACR405      0.1333
     16  C5B       -6.2490   -8.2080   22.9010 C.3   405  ACR405      0.1364
     17  C6B       -7.7240   -8.5720   23.1490 C.3   405  ACR405      0.0337
     18  N4B       -5.5310  -10.3080   21.8860 N.3   405  ACR405     -0.2087
     19  O2B       -2.4350   -7.6590   24.6230 O.3   405  ACR405     -0.2149
     20  O3B       -3.1000  -10.1810   23.3960 O.3   405  ACR405     -0.2186
     21  O5B       -5.9650   -7.2100   23.8940 O.3   405  ACR405     -0.3295
     22  C1C       -4.2140   -2.6780   20.4680 C.3   405  ACR405      0.2695
     23  C2C       -3.0140   -2.9620   21.3470 C.3   405  ACR405      0.2404
     24  C3C       -2.9370   -4.4540   21.6900 C.3   405  ACR405      0.2167
     25  C4C       -4.2280   -4.8550   22.3780 C.3   405  ACR405      0.1804
     26  C5C       -5.3940   -4.5070   21.4620 C.3   405  ACR405      0.1803
     27  C6C       -6.7320   -4.7780   22.1450 C.3   405  ACR405      0.2141
     28  O2C       -1.8450   -2.5070   20.6680 O.3   405  ACR405     -0.2149
     29  O3C       -1.8450   -4.6210   22.5750 O.3   405  ACR405     -0.2175
     30  O4C       -4.1280   -6.2500   22.6310 O.3   405  ACR405     -0.3257
     31  O5C       -5.3850   -3.1160   21.1120 O.3   405  ACR405     -0.3257
     32  O6C       -7.8250   -4.6390   21.1900 O.3   405  ACR405     -0.2176
     33  C1D       -4.1030   -2.6350   15.1440 C.3   405  ACR405      0.3023
     34  C2D       -3.3320   -1.6570   15.9970 C.3   405  ACR405      0.2433
     35  C3D       -3.0410   -2.2360   17.3670 C.3   405  ACR405      0.2168
     36  C4D       -4.3590   -2.6120   18.0290 C.3   405  ACR405      0.1804
     37  C5D       -5.2370   -3.4850   17.1480 C.3   405  ACR405      0.1804
     38  C6D       -6.6510   -3.6990   17.7060 C.3   405  ACR405      0.2141
     39  O1D       -3.3370   -3.8050   15.0840 O.3   405  ACR405     -0.1869
     40  O2D       -2.0960   -1.2480   15.3730 O.3   405  ACR405     -0.2148
     41  O3D       -2.3730   -1.2460   18.1530 O.3   405  ACR405     -0.2175
     42  O4D       -4.0600   -3.3850   19.2310 O.3   405  ACR405     -0.3257
     43  O5D       -5.3640   -2.9470   15.7900 O.3   405  ACR405     -0.3237
     44  O6D       -7.2850   -2.4180   17.6550 O.3   405  ACR405     -0.2176
@<TRIPOS>BOND
     1    39    33    1
     2    33    43    1
     3    33    34    1
     4    40    34    1
     5    43    37    1
     6    34    35    1
     7    37    38    1
     8    37    36    1
     9    35    36    1
    10    35    41    1
    11    44    38    1
    12    36    42    1
    13    10     4    1
    14     9     3    1
    15    42    22    1
    16     4     3    1
    17     4     5    1
    18     3     2    1
    19     6     5    1
    20     6    11    1
    21    22    31    1
    22    22    23    1
    23     5     7    2
    24    28    23    1
    25    31    26    1
    26     2     8    1
    27     2     1    1
    28    32    27    1
    29    23    24    1
    30    26    27    1
    31    26    25    1
    32    24    25    1
    33    24    29    1
    34     7     1    1
    35    18     1    1
    36    18    15    1
    37    25    30    1
    38    30    12    1
    39    16    15    1
    40    16    17    1
    41    16    21    1
    42    15    14    1
    43    14    20    1
    44    14    13    1
    45    21    12    1
    46    12    13    1
    47    13    19    1
