@<TRIPOS>MOLECULE
3jzk_YIN_A_1.pdb
 31 36 0 0 0
SMALL
GASTEIGER

@<TRIPOS>ATOM
      1  C1        10.0160  -15.8340   25.9040 C.ar    1  YIN1       -0.0010
      2  N1        11.3370  -16.6150   24.0060 N.pl3   1  YIN1       -0.1397
      3  O1         6.7510  -15.3200   22.7390 O.3     1  YIN1       -0.4742
      4 BR1        10.3610  -13.8190   30.0390 Br      1  YIN1       -0.0490
      5  C2         9.4980  -16.6000   27.0400 C.ar    1  YIN1       -0.0021
      6  N2        13.0110  -16.4650   22.7090 N.2     1  YIN1       -0.1458
      7 BR2         6.0780  -10.4650   27.3190 Br      1  YIN1       -0.0490
      8  C3         9.5530  -16.0100   28.3530 C.ar    1  YIN1        0.0064
      9  N3        10.8510  -15.3140   21.9490 N.2     1  YIN1       -0.3404
     10  C4        10.1260  -14.7080   28.3830 C.ar    1  YIN1        0.0345
     11  N4        12.2740  -17.2910   24.6340 N.2     1  YIN1       -0.1446
     12  C5        10.6280  -13.9280   27.3240 C.ar    1  YIN1        0.0064
     13  C6        10.5760  -14.5140   26.0360 C.ar    1  YIN1       -0.0021
     14  C7         7.5570  -15.2740   23.9390 C.3     1  YIN1        0.1967
     15  C8        13.3460  -17.1960   23.8070 C.2     1  YIN1        0.2295
     16  C9         9.0140  -15.5700   23.5600 C.3     1  YIN1        0.1227
     17  C10        9.9510  -16.4060   24.5430 C.3     1  YIN1        0.1405
     18  C11       11.7460  -16.0910   22.8150 C.1     1  YIN1        0.1693
     19  C12        9.4760  -15.1150   22.3550 C.2     1  YIN1        0.1301
     20  C13        9.1340  -13.6140   20.3190 C.ar    1  YIN1        0.0053
     21  C14        8.1400  -12.9550   19.4880 C.ar    1  YIN1        0.0003
     22  C15        6.7380  -13.1050   19.7220 C.ar    1  YIN1        0.0031
     23  C16        6.2480  -13.9250   20.8090 C.ar    1  YIN1        0.0370
     24  C17        7.2080  -14.5800   21.6480 C.ar    1  YIN1        0.1410
     25  C18        8.6210  -14.4320   21.4110 C.ar    1  YIN1        0.0605
     26  C19        6.2730  -14.1710   25.6790 C.ar    1  YIN1       -0.0003
     27  C20        7.3350  -13.9900   24.7200 C.ar    1  YIN1        0.0177
     28  C21        8.0400  -12.7240   24.5300 C.ar    1  YIN1       -0.0003
     29  C22        7.6610  -11.5880   25.3260 C.ar    1  YIN1        0.0065
     30  C23        6.5900  -11.7940   26.2730 C.ar    1  YIN1        0.0345
     31  C24        5.8780  -13.0410   26.4820 C.ar    1  YIN1        0.0065
@<TRIPOS>BOND
     1    21    22   ar
     2    21    20   ar
     3    22    23   ar
     4    20    25   ar
     5    23    24   ar
     6    25    24   ar
     7    25    19    1
     8    24     3    1
     9     9    19    2
    10     9    18    2
    11    19    16    1
    12     6    18    2
    13     6    15    1
    14     3    14    1
    15    18     2    1
    16    16    14    1
    17    16    17    1
    18    15    11    2
    19    14    27    1
    20     2    17    1
    21     2    11    1
    22    28    27   ar
    23    28    29   ar
    24    17     1    1
    25    27    26   ar
    26    29    30   ar
    27    26    31   ar
    28     1    13   ar
    29     1     5   ar
    30    13    12   ar
    31    30    31   ar
    32    30     7    1
    33     5     8   ar
    34    12    10   ar
    35     8    10   ar
    36    10     4    1
