@<TRIPOS>MOLECULE
3jzm_ATP_A_1.pdb
 31 33 0 0 0
SMALL
GASTEIGER

@<TRIPOS>ATOM
      1  PG       126.9450   82.1900   17.2010 P.3   901  ATP901      0.5373
      2  O1G      125.9080   81.2090   16.9420 O.3   901  ATP901     -0.1143
      3  O2G      127.6500   81.7370   18.4780 O.3   901  ATP901     -0.1143
      4  O3G      127.8870   82.1960   16.0190 O.2   901  ATP901     -0.2221
      5  PB       126.5480   84.9210   16.2440 P.3   901  ATP901      0.2277
      6  O1B      125.7140   86.0460   16.6730 O.3   901  ATP901     -0.4368
      7  O2B      126.3430   84.5510   14.8170 O.2   901  ATP901     -0.5168
      8  O3B      126.2810   83.7080   17.2700 O.3   901  ATP901     -0.2258
      9  PA       129.3790   85.5700   15.6060 P.3   901  ATP901      0.2189
     10  O1A      129.6080   87.0250   15.5050 O.2   901  ATP901     -0.5170
     11  O2A      130.5510   84.8070   16.2380 O.3   901  ATP901     -0.4371
     12  O3A      128.0620   85.3890   16.5140 O.3   901  ATP901     -0.2700
     13  O5'      129.0850   85.0440   14.1210 O.3   901  ATP901     -0.3112
     14  C5'      130.1950   84.6820   13.2550 C.3   901  ATP901      0.1813
     15  C4'      129.8650   85.0400   11.7930 C.3   901  ATP901      0.1821
     16  O4'      130.7240   86.0530   11.3080 O.3   901  ATP901     -0.3135
     17  C3'      129.9950   83.8510   10.8510 C.3   901  ATP901      0.2184
     18  O3'      128.6900   83.4110   10.5010 O.3   901  ATP901     -0.2174
     19  C2'      130.8080   84.3480    9.6470 C.3   901  ATP901      0.2570
     20  O2'      130.1340   84.5000    8.4420 O.3   901  ATP901     -0.2130
     21  C1'      131.3800   85.6600   10.0870 C.3   901  ATP901      0.3186
     22  N9       132.8560   85.7880   10.3830 N.pl3 901  ATP901     -0.1439
     23  C8       133.5120   85.3090   11.5030 C.3   901  ATP901      0.3377
     24  N7       134.7950   85.6290   11.3810 N.2   901  ATP901     -0.2095
     25  C5       135.0290   86.3070   10.2180 C.2   901  ATP901      0.2526
     26  C6       136.1380   86.8900    9.5470 C.2   901  ATP901      0.4393
     27  N6       137.3930   86.8930    9.9610 N.pl3 901  ATP901      0.2180
     28  N1       135.9460   87.5170    8.3230 N.2   901  ATP901      0.0021
     29  C2       134.6990   87.5820    7.7400 C.3   901  ATP901      0.5254
     30  N3       133.6010   87.0230    8.3690 N.2   901  ATP901     -0.0055
     31  C4       133.7710   86.4000    9.5840 C.2   901  ATP901      0.3518
@<TRIPOS>BOND
     1    29    28    1
     2    29    30    1
     3    28    26    2
     4    30    31    2
     5    20    19    1
     6    26    27    1
     7    26    25    1
     8    31    25    1
     9    31    22    1
    10    19    21    1
    11    19    17    1
    12    21    22    1
    13    21    16    1
    14    25    24    2
    15    22    23    1
    16    18    17    1
    17    17    15    1
    18    16    15    1
    19    24    23    1
    20    15    14    1
    21    14    13    1
    22    13     9    1
    23     7     5    2
    24    10     9    2
    25     9    11    1
    26     9    12    1
    27     4     1    2
    28     5    12    1
    29     5     6    1
    30     5     8    1
    31     2     1    1
    32     1     8    1
    33     1     3    1
