@<TRIPOS>MOLECULE
3jzt_APR_B_1.pdb
 36 39 0 0 0
SMALL
GASTEIGER

@<TRIPOS>ATOM
      1  N1       -45.7120  -72.1820   31.5990 N.2   477  APR477      0.0021
      2  C2       -45.9690  -72.9100   30.4630 C.3   477  APR477      0.5254
      3  N3       -45.9350  -74.2820   30.3950 N.2   477  APR477     -0.0055
      4  C4       -45.6530  -75.0620   31.5360 C.2   477  APR477      0.3518
      5  C5       -45.3790  -74.2930   32.7920 C.2   477  APR477      0.2526
      6  C6       -45.4170  -72.8100   32.7700 C.2   477  APR477      0.4393
      7  N6       -45.1370  -72.1540   33.9140 N.pl3 477  APR477      0.2180
      8  N7       -45.1140  -75.2080   33.7510 N.2   477  APR477     -0.2095
      9  C8       -45.2150  -76.4670   33.1930 C.3   477  APR477      0.3377
     10  N9       -45.5320  -76.4270   31.8810 N.pl3 477  APR477     -0.1439
     11  C1'      -45.7370  -77.6720   31.0120 C.3   477  APR477      0.3186
     12  C2'      -45.0160  -78.9650   31.3910 C.3   477  APR477      0.2570
     13  O2'      -43.9340  -79.2180   30.5120 O.3   477  APR477     -0.2130
     14  C3'      -45.9950  -80.0900   31.0990 C.3   477  APR477      0.2184
     15  O3'      -45.9190  -80.4810   29.7140 O.3   477  APR477     -0.2174
     16  O4'      -47.1220  -78.0700   31.0530 O.3   477  APR477     -0.3135
     17  C4'      -47.3550  -79.4630   31.2880 C.3   477  APR477      0.1821
     18  C5'      -48.0080  -79.6640   32.6740 C.3   477  APR477      0.1813
     19  O5'      -47.1170  -79.5310   33.8120 O.3   477  APR477     -0.3112
     20  PA       -47.5510  -80.0810   35.2910 P.3   477  APR477      0.2189
     21  O1A      -48.5110  -79.0090   35.8480 O.2   477  APR477     -0.5170
     22  O2A      -46.2230  -80.5400   35.9250 O.3   477  APR477     -0.4371
     23  O3A      -48.4350  -81.4240   34.8930 O.3   477  APR477     -0.2703
     24  PB       -48.8530  -82.7090   35.8150 P.3   477  APR477      0.2189
     25  O1B      -50.3340  -82.8970   35.5810 O.3   477  APR477     -0.4371
     26  O2B      -47.9530  -83.8970   35.5530 O.2   477  APR477     -0.5170
     27  O5D      -48.6320  -82.1640   37.3370 O.3   477  APR477     -0.3112
     28  C5D      -49.6680  -81.4130   37.9880 C.3   477  APR477      0.1813
     29  O4D      -48.4850  -80.5920   39.9040 O.3   477  APR477     -0.3237
     30  O1D      -48.5630  -78.2810   39.3620 O.3   477  APR477     -0.1869
     31  C1D      -49.0000  -79.3050   40.3120 C.3   477  APR477      0.3023
     32  O2D      -51.1370  -78.9280   41.6870 O.3   477  APR477     -0.2148
     33  C2D      -50.5370  -79.4290   40.4430 C.3   477  APR477      0.2433
     34  O3D      -50.7220  -81.4620   41.5060 O.3   477  APR477     -0.2175
     35  C3D      -50.7540  -80.9100   40.2170 C.3   477  APR477      0.2168
     36  C4D      -49.5290  -81.4670   39.5000 C.3   477  APR477      0.1807
@<TRIPOS>BOND
     1    15    14    1
     2     3     2    1
     3     3     4    2
     4     2     1    1
     5    13    12    1
     6    11    16    1
     7    11    12    1
     8    11    10    1
     9    16    17    1
    10    14    17    1
    11    14    12    1
    12    17    18    1
    13     4    10    1
    14     4     5    1
    15     1     6    2
    16    10     9    1
    17    18    19    1
    18     6     5    1
    19     6     7    1
    20     5     8    2
    21     9     8    1
    22    19    20    1
    23    23    20    1
    24    23    24    1
    25    20    21    2
    26    20    22    1
    27    26    24    2
    28    25    24    1
    29    24    27    1
    30    27    28    1
    31    28    36    1
    32    30    31    1
    33    36    29    1
    34    36    35    1
    35    29    31    1
    36    35    33    1
    37    35    34    1
    38    31    33    1
    39    33    32    1
