@<TRIPOS>MOLECULE
3jzu_TYR_A_1.pdb
 13 13 0 0 0
SMALL
GASTEIGER

@<TRIPOS>ATOM
      1  N        -27.0270  -14.1260   14.9090 N.3   356  TYR356     -0.1205
      2  CA       -26.8810  -15.1320   15.9640 C.3   356  TYR356      0.1986
      3  C        -27.9140  -16.2590   15.8940 C.2   356  TYR356      0.3822
      4  O        -28.2500  -16.6810   14.7680 O.co2 356  TYR356     -0.2440
      5  CB       -26.9680  -14.4590   17.3370 C.3   356  TYR356      0.0569
      6  CG       -25.9330  -13.3780   17.5820 C.ar  356  TYR356     -0.0200
      7  CD1      -26.2910  -12.1810   18.1980 C.ar  356  TYR356     -0.0009
      8  CD2      -24.5930  -13.5630   17.2350 C.ar  356  TYR356     -0.0009
      9  CE1      -25.3450  -11.1900   18.4640 C.ar  356  TYR356      0.0417
     10  CE2      -23.6340  -12.5770   17.5030 C.ar  356  TYR356      0.0417
     11  CZ       -24.0200  -11.3930   18.1180 C.ar  356  TYR356      0.1957
     12  OH       -23.0890  -10.4100   18.4040 O.3   356  TYR356     -0.2866
     13  OXT      -28.3610  -16.7130   16.9750 O.co2 356  TYR356     -0.2440
@<TRIPOS>BOND
     1     4     3   ar
     2     1     2    1
     3     3     2    1
     4     3    13   ar
     5     2     5    1
     6     8    10   ar
     7     8     6   ar
     8     5     6    1
     9    10    11   ar
    10     6     7   ar
    11    11    12    1
    12    11     9   ar
    13     7     9   ar
