@<TRIPOS>MOLECULE
3k00_MTT_A_1.pdb
 45 48 0 0 0
SMALL
GASTEIGER

@<TRIPOS>ATOM
      1  O14       -4.7180  -13.2830   18.8360 O.3   405  MTT405     -0.2176
      2  C14       -5.0250  -12.2290   19.7610 C.3   405  MTT405      0.2144
      3  C13       -6.4210  -11.6180   19.5530 C.3   405  MTT405      0.2198
      4  O13       -7.2330  -12.4900   18.7620 O.3   405  MTT405     -0.2174
      5  C12       -7.1620  -11.2190   20.8530 C.3   405  MTT405      0.2406
      6  O12       -8.3170  -12.0380   21.1110 O.3   405  MTT405     -0.2149
      7  C11       -6.2830  -11.2750   22.1020 C.3   405  MTT405      0.2695
      8  C15       -4.7330  -12.7990   21.1510 C.3   405  MTT405      0.1835
      9  O15       -5.7370  -12.5790   22.1550 O.3   405  MTT405     -0.3256
     10  C16       -3.3780  -12.3070   21.6330 C.3   405  MTT405      0.2142
     11  O16       -3.2580  -12.5890   23.0260 O.3   405  MTT405     -0.2176
     12  O24       -5.2100  -10.3100   22.0650 O.3   405  MTT405     -0.3257
     13  C24       -5.1330   -9.4900   23.2420 C.3   405  MTT405      0.1804
     14  C23       -3.6940   -8.9900   23.4380 C.3   405  MTT405      0.2167
     15  O23       -2.8000  -10.0270   23.8830 O.3   405  MTT405     -0.2175
     16  C22       -3.6790   -7.8580   24.4530 C.3   405  MTT405      0.2404
     17  O22       -2.3650   -7.3860   24.7410 O.3   405  MTT405     -0.2149
     18  C21       -4.5210   -6.7140   23.9200 C.3   405  MTT405      0.2695
     19  C25       -6.1320   -8.3330   23.0780 C.3   405  MTT405      0.1803
     20  O25       -5.8810   -7.1990   23.9250 O.3   405  MTT405     -0.3257
     21  C26       -7.5580   -8.7900   23.4140 C.3   405  MTT405      0.2141
     22  O26       -8.3610   -8.1740   22.4440 O.3   405  MTT405     -0.2176
     23  O34       -4.0160   -6.3090   22.6290 O.3   405  MTT405     -0.3257
     24  C34       -4.1140   -4.8880   22.3690 C.3   405  MTT405      0.1804
     25  C33       -2.7790   -4.4010   21.7630 C.3   405  MTT405      0.2167
     26  O33       -1.6980   -4.5270   22.6780 O.3   405  MTT405     -0.2175
     27  C32       -2.9310   -2.9170   21.4060 C.3   405  MTT405      0.2404
     28  O32       -1.7700   -2.4100   20.7370 O.3   405  MTT405     -0.2149
     29  C31       -4.1580   -2.6610   20.5390 C.3   405  MTT405      0.2695
     30  C35       -5.3000   -4.5660   21.4660 C.3   405  MTT405      0.1803
     31  O35       -5.3320   -3.1590   21.1690 O.3   405  MTT405     -0.3257
     32  C36       -6.6810   -4.8890   22.0440 C.3   405  MTT405      0.2141
     33  O36       -7.7200   -4.6520   21.0880 O.3   405  MTT405     -0.2176
     34  O44       -3.9810   -3.2900   19.2620 O.3   405  MTT405     -0.3257
     35  C44       -4.3130   -2.5380   18.0970 C.3   405  MTT405      0.1804
     36  C43       -3.0180   -2.0930   17.4210 C.3   405  MTT405      0.2168
     37  O43       -2.2980   -1.1290   18.2100 O.3   405  MTT405     -0.2175
     38  C42       -3.3410   -1.5120   16.0350 C.3   405  MTT405      0.2433
     39  O42       -2.1160   -1.1450   15.3910 O.3   405  MTT405     -0.2148
     40  C41       -4.0980   -2.5480   15.2090 C.3   405  MTT405      0.3023
     41  O41       -3.2930   -3.7200   15.0990 O.3   405  MTT405     -0.1869
     42  C45       -5.1470   -3.4310   17.1750 C.3   405  MTT405      0.1804
     43  O45       -5.3430   -2.8730   15.8540 O.3   405  MTT405     -0.3237
     44  C46       -6.5540   -3.6730   17.7150 C.3   405  MTT405      0.2141
     45  O46       -7.2620   -2.4220   17.8070 O.3   405  MTT405     -0.2176
@<TRIPOS>BOND
     1    41    40    1
     2    40    43    1
     3    40    38    1
     4    39    38    1
     5    43    42    1
     6    38    36    1
     7    42    44    1
     8    42    35    1
     9    36    35    1
    10    36    37    1
    11    44    45    1
    12    35    34    1
    13     4     3    1
    14     1     2    1
    15    34    29    1
    16     3     2    1
    17     3     5    1
    18     2     8    1
    19    29    31    1
    20    29    27    1
    21    28    27    1
    22     5     6    1
    23     5     7    1
    24    33    32    1
    25     8    10    1
    26     8     9    1
    27    31    30    1
    28    27    25    1
    29    30    32    1
    30    30    24    1
    31    10    11    1
    32    25    24    1
    33    25    26    1
    34    12     7    1
    35    12    13    1
    36     7     9    1
    37    24    23    1
    38    22    21    1
    39    23    18    1
    40    19    13    1
    41    19    21    1
    42    19    20    1
    43    13    14    1
    44    14    15    1
    45    14    16    1
    46    18    20    1
    47    18    16    1
    48    16    17    1
