@<TRIPOS>MOLECULE
3k05_III_C_1.pdb
 41 41 0 0 0
SMALL
GASTEIGER

@<TRIPOS>ATOM
      1  N          8.6600  -15.6940  -30.6370 N.3   139  SER139     -0.1203
      2  CA         8.7300  -14.3420  -30.0070 C.3   139  SER139      0.1992
      3  CB         8.7880  -14.4390  -28.4870 C.3   139  SER139      0.1820
      4  OG         7.5530  -14.9800  -28.0550 O.3   139  SER139     -0.2682
      5  C          9.9110  -13.5510  -30.5040 C.2   139  SER139      0.2618
      6  O         10.9190  -14.1170  -30.9210 O.2   139  SER139     -0.2717
      7  P          7.4610  -15.4760  -26.5380 P.3   139  SER139      0.5327
      8  O1P        8.0890  -14.3840  -25.5990 O.3   139  SER139     -0.1145
      9  O2P        8.1980  -16.8710  -26.4330 O.2   139  SER139     -0.2224
     10  O3P        5.8840  -15.6660  -26.3260 O.3   139  SER139     -0.1145
     11  N          9.7520  -12.2350  -30.4920 N.am  140  GLN140     -0.1965
     12  CA        10.7830  -11.3280  -30.9340 C.3   140  GLN140      0.1733
     13  C         11.7040  -10.9140  -29.7920 C.2   140  GLN140      0.2616
     14  O         11.2500  -10.7040  -28.6670 O.2   140  GLN140     -0.2715
     15  CB        10.1430  -10.0870  -31.5510 C.3   140  GLN140      0.0408
     16  CG         9.2880  -10.4120  -32.7670 C.3   140  GLN140      0.0908
     17  CD        10.1060  -11.0230  -33.8810 C.2   140  GLN140      0.2608
     18  OE1       10.3340  -12.2440  -33.9410 O.2   140  GLN140     -0.2717
     19  NE2       10.5800  -10.1710  -34.7720 N.am  140  GLN140     -0.0878
     20  N         12.9880  -10.7900  -30.1120 N.am  141  GLU141     -0.1963
     21  CA        13.9940  -10.2280  -29.2210 C.3   141  GLU141      0.1733
     22  C         14.4580   -8.8860  -29.7690 C.2   141  GLU141      0.2616
     23  O         14.4270   -8.6510  -30.9760 O.2   141  GLU141     -0.2715
     24  CB        15.1780  -11.1960  -29.0700 C.3   141  GLU141      0.0429
     25  CG        14.7890  -12.4510  -28.3240 C.3   141  GLU141      0.1163
     26  CD        15.8900  -13.4900  -28.2680 C.2   141  GLU141      0.3649
     27  OE1       17.0620  -13.1410  -28.0440 O.co2 141  GLU141     -0.2457
     28  OE2       15.5610  -14.6780  -28.4260 O.co2 141  GLU141     -0.2457
     29  N         14.8800   -8.0190  -28.8550 N.am  142  TYR142     -0.1959
     30  CA        15.1960   -6.6220  -29.1410 C.3   142  TYR142      0.1787
     31  C         16.5690   -6.2360  -28.5710 C.2   142  TYR142      0.2809
     32  O         17.1120   -6.9090  -27.7080 O.2   142  TYR142     -0.2698
     33  CB        14.1130   -5.6940  -28.5330 C.3   142  TYR142      0.0575
     34  CG        12.7610   -5.9740  -29.1080 C.ar  142  TYR142     -0.0198
     35  CD1       11.9280   -6.9290  -28.5320 C.ar  142  TYR142     -0.0009
     36  CD2       12.3210   -5.3170  -30.2510 C.ar  142  TYR142     -0.0009
     37  CE1       10.7090   -7.2180  -29.0760 C.ar  142  TYR142      0.0417
     38  CE2       11.1010   -5.6080  -30.8200 C.ar  142  TYR142      0.0417
     39  CZ        10.2810   -6.5480  -30.2120 C.ar  142  TYR142      0.1957
     40  OH         9.0570   -6.8310  -30.7620 O.3   142  TYR142     -0.2866
     41  N         17.1080   -5.1170  -29.0240 N.am  143  NH2143     -0.0863
@<TRIPOS>BOND
     1    19    17   am
     2    18    17    2
     3    17    16    1
     4    16    15    1
     5    15    12    1
     6    23    22    2
     7    12    11    1
     8    12    13    1
     9     6     5    2
    10    38    36   ar
    11    38    39   ar
    12    40    39    1
    13     1     2    1
    14     5    11   am
    15     5     2    1
    16    36    34   ar
    17    39    37   ar
    18    20    13   am
    19    20    21    1
    20     2     3    1
    21    13    14    2
    22    22    21    1
    23    22    29   am
    24    21    24    1
    25    30    29    1
    26    30    31    1
    27    30    33    1
    28    34    33    1
    29    34    35   ar
    30    37    35   ar
    31    24    25    1
    32    41    31   am
    33    31    32    2
    34     3     4    1
    35    28    26   ar
    36    25    26    1
    37    26    27   ar
    38     4     7    1
    39     7     9    2
    40     7    10    1
    41     7     8    1
