@<TRIPOS>MOLECULE
3k09_ATP_A_1.pdb
 31 33 0 0 0
SMALL
GASTEIGER

@<TRIPOS>ATOM
      1  PG       127.7240   82.6090   17.1920 P.3   901  ATP901      0.5373
      2  O1G      127.2750   82.1980   15.8310 O.2   901  ATP901     -0.2221
      3  O2G      127.4740   81.5050   18.2330 O.3   901  ATP901     -0.1143
      4  O3G      129.2220   82.9570   17.1350 O.3   901  ATP901     -0.1143
      5  PB       126.9170   85.2590   16.7280 P.3   901  ATP901      0.2277
      6  O1B      126.1380   86.2150   17.5020 O.3   901  ATP901     -0.4368
      7  O2B      126.3890   85.0360   15.3300 O.2   901  ATP901     -0.5168
      8  O3B      126.9580   83.9650   17.6070 O.3   901  ATP901     -0.2258
      9  PA       129.5680   86.1200   15.6640 P.3   901  ATP901      0.2189
     10  O1A      129.5460   87.5740   15.4740 O.2   901  ATP901     -0.5170
     11  O2A      130.9220   85.6360   16.1790 O.3   901  ATP901     -0.4371
     12  O3A      128.4380   85.7670   16.7520 O.3   901  ATP901     -0.2700
     13  O5'      129.2450   85.4240   14.2540 O.3   901  ATP901     -0.3112
     14  C5'      130.3540   85.0440   13.3950 C.3   901  ATP901      0.1813
     15  C4'      130.0450   85.3000   11.8940 C.3   901  ATP901      0.1821
     16  O4'      130.7910   86.3950   11.3740 O.3   901  ATP901     -0.3135
     17  C3'      130.3670   84.1020   11.0200 C.3   901  ATP901      0.2184
     18  O3'      129.1480   83.4150   10.7510 O.3   901  ATP901     -0.2174
     19  C2'      131.0410   84.6670    9.7670 C.3   901  ATP901      0.2570
     20  O2'      130.2900   84.7490    8.6000 O.3   901  ATP901     -0.2130
     21  C1'      131.5300   86.0210   10.1940 C.3   901  ATP901      0.3186
     22  N9       132.9800   86.1990   10.5580 N.pl3 901  ATP901     -0.1439
     23  C8       133.5560   85.8900   11.7700 C.3   901  ATP901      0.3377
     24  N7       134.8450   86.1840   11.6930 N.2   901  ATP901     -0.2095
     25  C5       135.1660   86.6820   10.4690 C.2   901  ATP901      0.2526
     26  C6       136.3230   87.1520    9.8040 C.2   901  ATP901      0.4393
     27  N6       137.5320   87.2270   10.3120 N.pl3 901  ATP901      0.2180
     28  N1       136.2300   87.5930    8.4920 N.2   901  ATP901      0.0021
     29  C2       135.0370   87.5870    7.8170 C.3   901  ATP901      0.5254
     30  N3       133.8890   87.1320    8.4440 N.2   901  ATP901     -0.0055
     31  C4       133.9600   86.6900    9.7410 C.2   901  ATP901      0.3518
@<TRIPOS>BOND
     1    29    30    1
     2    29    28    1
     3    30    31    2
     4    28    26    2
     5    20    19    1
     6    31    25    1
     7    31    22    1
     8    19    21    1
     9    19    17    1
    10    26    27    1
    11    26    25    1
    12    21    22    1
    13    21    16    1
    14    25    24    2
    15    22    23    1
    16    18    17    1
    17    17    15    1
    18    16    15    1
    19    24    23    1
    20    15    14    1
    21    14    13    1
    22    13     9    1
    23     7     5    2
    24    10     9    2
    25     9    11    1
    26     9    12    1
    27     2     1    2
    28     5    12    1
    29     5     6    1
    30     5     8    1
    31     4     1    1
    32     1     8    1
    33     1     3    1
