@<TRIPOS>MOLECULE
3k0a_ATP_A_1.pdb
 31 33 0 0 0
SMALL
GASTEIGER

@<TRIPOS>ATOM
      1  PG       127.4290   82.3950   17.0020 P.3   901  ATP901      0.5373
      2  O1G      126.6580   81.9240   15.8140 O.2   901  ATP901     -0.2221
      3  O2G      127.3010   81.4160   18.1890 O.3   901  ATP901     -0.1143
      4  O3G      128.9080   82.5640   16.6120 O.3   901  ATP901     -0.1143
      5  PB       127.1120   85.1760   16.6240 P.3   901  ATP901      0.2277
      6  O1B      126.4320   86.1770   17.4150 O.3   901  ATP901     -0.4368
      7  O2B      126.6640   85.1590   15.1930 O.2   901  ATP901     -0.5168
      8  O3B      126.8820   83.8440   17.4130 O.3   901  ATP901     -0.2258
      9  PA       129.8360   85.7210   15.7340 P.3   901  ATP901      0.2189
     10  O1A      129.8470   87.1610   15.4580 O.2   901  ATP901     -0.5170
     11  O2A      131.1560   85.2390   16.3160 O.3   901  ATP901     -0.4371
     12  O3A      128.6670   85.4440   16.7730 O.3   901  ATP901     -0.2700
     13  O5'      129.4990   84.9910   14.3720 O.3   901  ATP901     -0.3112
     14  C5'      130.5840   84.7650   13.4670 C.3   901  ATP901      0.1813
     15  C4'      130.1540   84.9420   11.9970 C.3   901  ATP901      0.1821
     16  O4'      130.8320   86.0440   11.4010 O.3   901  ATP901     -0.3135
     17  C3'      130.4950   83.7190   11.1780 C.3   901  ATP901      0.2184
     18  O3'      129.3210   82.9210   11.0450 O.3   901  ATP901     -0.2174
     19  C2'      131.0410   84.2680    9.8590 C.3   901  ATP901      0.2570
     20  O2'      130.1790   84.3310    8.7770 O.3   901  ATP901     -0.2130
     21  C1'      131.5620   85.6330   10.2270 C.3   901  ATP901      0.3186
     22  N9       133.0380   85.8070   10.5700 N.pl3 901  ATP901     -0.1439
     23  C8       133.6240   85.5550   11.7930 C.3   901  ATP901      0.3377
     24  N7       134.9100   85.8380   11.6880 N.2   901  ATP901     -0.2095
     25  C5       135.2310   86.2650   10.4380 C.2   901  ATP901      0.2526
     26  C6       136.3810   86.7150    9.7490 C.2   901  ATP901      0.4393
     27  N6       137.6010   86.8040   10.2460 N.pl3 901  ATP901      0.2180
     28  N1       136.2790   87.0860    8.4130 N.2   901  ATP901      0.0021
     29  C2       135.0720   87.0560    7.7600 C.3   901  ATP901      0.5254
     30  N3       133.9370   86.6280    8.4160 N.2   901  ATP901     -0.0055
     31  C4       134.0130   86.2670    9.7320 C.2   901  ATP901      0.3518
@<TRIPOS>BOND
     1    29    28    1
     2    29    30    1
     3    28    26    2
     4    30    31    2
     5    20    19    1
     6    31    25    1
     7    31    22    1
     8    26    27    1
     9    26    25    1
    10    19    21    1
    11    19    17    1
    12    21    22    1
    13    21    16    1
    14    25    24    2
    15    22    23    1
    16    18    17    1
    17    17    15    1
    18    16    15    1
    19    24    23    1
    20    15    14    1
    21    14    13    1
    22    13     9    1
    23     7     5    2
    24    10     9    2
    25     9    11    1
    26     9    12    1
    27     2     1    2
    28     4     1    1
    29     5    12    1
    30     5     8    1
    31     5     6    1
    32     1     8    1
    33     1     3    1
