@<TRIPOS>MOLECULE
3k0c_ATP_A_1.pdb
 31 33 0 0 0
SMALL
GASTEIGER

@<TRIPOS>ATOM
      1  PG       127.0180   82.2480   16.6970 P.3   901  ATP901      0.5373
      2  O1G      126.3350   81.9800   15.4020 O.2   901  ATP901     -0.2221
      3  O2G      126.7880   81.1190   17.7150 O.3   901  ATP901     -0.1143
      4  O3G      128.5210   82.4360   16.4340 O.3   901  ATP901     -0.1143
      5  PB       126.7730   85.0300   16.5970 P.3   901  ATP901      0.2277
      6  O1B      126.0950   85.9950   17.4640 O.3   901  ATP901     -0.4368
      7  O2B      126.3740   85.1210   15.1400 O.2   901  ATP901     -0.5168
      8  O3B      126.4920   83.6420   17.2620 O.3   901  ATP901     -0.2258
      9  PA       129.5150   85.6010   15.7480 P.3   901  ATP901      0.2189
     10  O1A      129.5040   87.0650   15.5630 O.2   901  ATP901     -0.5170
     11  O2A      130.8510   85.0810   16.2850 O.3   901  ATP901     -0.4371
     12  O3A      128.3390   85.2660   16.7790 O.3   901  ATP901     -0.2700
     13  O5'      129.1690   84.9210   14.3470 O.3   901  ATP901     -0.3112
     14  C5'      130.2490   84.6510   13.4390 C.3   901  ATP901      0.1813
     15  C4'      129.8820   85.0550   12.0020 C.3   901  ATP901      0.1821
     16  O4'      130.7290   86.0880   11.5200 O.3   901  ATP901     -0.3135
     17  C3'      129.9970   83.8820   11.0590 C.3   901  ATP901      0.2184
     18  O3'      128.6830   83.4860   10.6970 O.3   901  ATP901     -0.2174
     19  C2'      130.8400   84.3520    9.8700 C.3   901  ATP901      0.2570
     20  O2'      130.2170   84.4220    8.6280 O.3   901  ATP901     -0.2130
     21  C1'      131.3750   85.7050   10.2840 C.3   901  ATP901      0.3186
     22  N9       132.8530   85.8810   10.5610 N.pl3 901  ATP901     -0.1439
     23  C8       133.4920   85.5620   11.7430 C.3   901  ATP901      0.3377
     24  N7       134.7750   85.8640   11.6030 N.2   901  ATP901     -0.2095
     25  C5       135.0390   86.3750   10.3650 C.2   901  ATP901      0.2526
     26  C6       136.1660   86.8650    9.6500 C.2   901  ATP901      0.4393
     27  N6       137.4050   86.9560   10.0970 N.pl3 901  ATP901      0.2180
     28  N1       136.0040   87.3130    8.3460 N.2   901  ATP901      0.0021
     29  C2       134.7740   87.2970    7.7310 C.3   901  ATP901      0.5254
     30  N3       133.6560   86.8310    8.4020 N.2   901  ATP901     -0.0055
     31  C4       133.7890   86.3830    9.6950 C.2   901  ATP901      0.3518
@<TRIPOS>BOND
     1    29    28    1
     2    29    30    1
     3    28    26    2
     4    30    31    2
     5    20    19    1
     6    26    27    1
     7    26    25    1
     8    31    25    1
     9    31    22    1
    10    19    21    1
    11    19    17    1
    12    21    22    1
    13    21    16    1
    14    25    24    2
    15    22    23    1
    16    18    17    1
    17    17    15    1
    18    16    15    1
    19    24    23    1
    20    15    14    1
    21    14    13    1
    22    13     9    1
    23     7     5    2
    24     2     1    2
    25    10     9    2
    26     9    11    1
    27     9    12    1
    28     4     1    1
    29     5    12    1
    30     5     8    1
    31     5     6    1
    32     1     8    1
    33     1     3    1
