@<TRIPOS>MOLECULE
3k0e_ATP_A_1.pdb
 31 33 0 0 0
SMALL
GASTEIGER

@<TRIPOS>ATOM
      1  PG       127.1050   83.1350   17.5950 P.3   901  ATP901      0.5373
      2  O1G      126.9300   82.4230   16.3050 O.2   901  ATP901     -0.2221
      3  O2G      126.7280   82.2320   18.7780 O.3   901  ATP901     -0.1143
      4  O3G      128.5610   83.5940   17.7330 O.3   901  ATP901     -0.1143
      5  PB       126.3620   85.6310   16.4960 P.3   901  ATP901      0.2277
      6  O1B      125.3710   86.6480   16.8710 O.3   901  ATP901     -0.4368
      7  O2B      126.2370   85.1380   15.0830 O.2   901  ATP901     -0.5168
      8  O3B      126.2280   84.4900   17.5730 O.3   901  ATP901     -0.2258
      9  PA       129.0850   86.5080   15.8460 P.3   901  ATP901      0.2189
     10  O1A      129.3660   87.9600   15.8540 O.2   901  ATP901     -0.5170
     11  O2A      130.2590   85.6920   16.3920 O.3   901  ATP901     -0.4371
     12  O3A      127.7910   86.2790   16.7650 O.3   901  ATP901     -0.2700
     13  O5'      128.7510   86.0840   14.3350 O.3   901  ATP901     -0.3112
     14  C5'      129.8540   85.7630   13.4750 C.3   901  ATP901      0.1813
     15  C4'      129.4790   85.8410   11.9850 C.3   901  ATP901      0.1821
     16  O4'      130.3090   86.7700   11.3150 O.3   901  ATP901     -0.3135
     17  C3'      129.6580   84.5050   11.3020 C.3   901  ATP901      0.2184
     18  O3'      128.3650   83.9670   11.0930 O.3   901  ATP901     -0.2174
     19  C2'      130.4160   84.7890   10.0110 C.3   901  ATP901      0.2570
     20  O2'      129.7100   84.7260    8.8240 O.3   901  ATP901     -0.2130
     21  C1'      130.9990   86.1550   10.2150 C.3   901  ATP901      0.3186
     22  N9       132.4680   86.3060   10.5480 N.pl3 901  ATP901     -0.1439
     23  C8       133.0710   85.9370   11.7330 C.3   901  ATP901      0.3377
     24  N7       134.3550   86.2290   11.6320 N.2   901  ATP901     -0.2095
     25  C5       134.6490   86.7810   10.4200 C.2   901  ATP901      0.2526
     26  C6       135.7930   87.2800    9.7420 C.2   901  ATP901      0.4393
     27  N6       137.0290   87.3360   10.2190 N.pl3 901  ATP901      0.2180
     28  N1       135.6560   87.7770    8.4470 N.2   901  ATP901      0.0021
     29  C2       134.4380   87.8000    7.8090 C.3   901  ATP901      0.5254
     30  N3       133.3110   87.3240    8.4490 N.2   901  ATP901     -0.0055
     31  C4       133.4220   86.8240    9.7280 C.2   901  ATP901      0.3518
@<TRIPOS>BOND
     1    29    28    1
     2    29    30    1
     3    28    26    2
     4    30    31    2
     5    20    19    1
     6    31    25    1
     7    31    22    1
     8    26    27    1
     9    26    25    1
    10    19    21    1
    11    19    17    1
    12    21    22    1
    13    21    16    1
    14    25    24    2
    15    22    23    1
    16    18    17    1
    17    17    15    1
    18    16    15    1
    19    24    23    1
    20    15    14    1
    21    14    13    1
    22    13     9    1
    23     7     5    2
    24     9    10    2
    25     9    11    1
    26     9    12    1
    27     2     1    2
    28     5    12    1
    29     5     6    1
    30     5     8    1
    31     8     1    1
    32     1     4    1
    33     1     3    1
