@<TRIPOS>MOLECULE
3k0f_ATP_A_1.pdb
 31 33 0 0 0
SMALL
GASTEIGER

@<TRIPOS>ATOM
      1  PG       127.2380   82.3820   17.2340 P.3   901  ATP901      0.5373
      2  O1G      126.5410   81.8540   16.0410 O.2   901  ATP901     -0.2221
      3  O2G      126.9860   81.4840   18.4570 O.3   901  ATP901     -0.1143
      4  O3G      128.7390   82.4740   16.9250 O.3   901  ATP901     -0.1143
      5  PB       126.9140   85.1780   16.6340 P.3   901  ATP901      0.2277
      6  O1B      126.2020   86.2440   17.3350 O.3   901  ATP901     -0.4368
      7  O2B      126.4820   85.0420   15.1940 O.2   901  ATP901     -0.5168
      8  O3B      126.6970   83.8860   17.5170 O.3   901  ATP901     -0.2258
      9  PA       129.7190   85.8250   15.8330 P.3   901  ATP901      0.2189
     10  O1A      129.8060   87.2910   15.6470 O.2   901  ATP901     -0.5170
     11  O2A      130.9870   85.2350   16.4620 O.3   901  ATP901     -0.4371
     12  O3A      128.4680   85.5360   16.8140 O.3   901  ATP901     -0.2700
     13  O5'      129.4490   85.1930   14.3860 O.3   901  ATP901     -0.3112
     14  C5'      130.5770   85.0370   13.5080 C.3   901  ATP901      0.1813
     15  C4'      130.1870   85.2240   12.0290 C.3   901  ATP901      0.1821
     16  O4'      130.8900   86.3110   11.4410 O.3   901  ATP901     -0.3135
     17  C3'      130.5010   83.9960   11.2000 C.3   901  ATP901      0.2184
     18  O3'      129.2950   83.2650   11.0290 O.3   901  ATP901     -0.2174
     19  C2'      131.0890   84.5240    9.8930 C.3   901  ATP901      0.2570
     20  O2'      130.2550   84.5730    8.7860 O.3   901  ATP901     -0.2130
     21  C1'      131.5980   85.8930   10.2520 C.3   901  ATP901      0.3186
     22  N9       133.0770   86.0950   10.5510 N.pl3 901  ATP901     -0.1439
     23  C8       133.7340   85.7520   11.7230 C.3   901  ATP901      0.3377
     24  N7       135.0070   86.0880   11.5810 N.2   901  ATP901     -0.2095
     25  C5       135.2460   86.6460   10.3580 C.2   901  ATP901      0.2526
     26  C6       136.3510   87.1810    9.6450 C.2   901  ATP901      0.4393
     27  N6       137.5950   87.2730   10.0840 N.pl3 901  ATP901      0.2180
     28  N1       136.1640   87.6710    8.3510 N.2   901  ATP901      0.0021
     29  C2       134.9290   87.6520    7.7500 C.3   901  ATP901      0.5254
     30  N3       133.8360   87.1380    8.4220 N.2   901  ATP901     -0.0055
     31  C4       133.9960   86.6460    9.6990 C.2   901  ATP901      0.3518
@<TRIPOS>BOND
     1    29    28    1
     2    29    30    1
     3    28    26    2
     4    30    31    2
     5    20    19    1
     6    26    27    1
     7    26    25    1
     8    31    25    1
     9    31    22    1
    10    19    21    1
    11    19    17    1
    12    21    22    1
    13    21    16    1
    14    25    24    2
    15    22    23    1
    16    18    17    1
    17    17    15    1
    18    16    15    1
    19    24    23    1
    20    15    14    1
    21    14    13    1
    22    13     9    1
    23     7     5    2
    24    10     9    2
    25     9    11    1
    26     9    12    1
    27     2     1    2
    28     5    12    1
    29     5     6    1
    30     5     8    1
    31     4     1    1
    32     1     8    1
    33     1     3    1
