@<TRIPOS>MOLECULE
3k0h_III_B_1.pdb
 36 37 0 0 0
SMALL
GASTEIGER

@<TRIPOS>ATOM
      1  N        -27.5940   54.7170    6.2350 N.3     1  SER1       -0.1204
      2  CA       -26.2340   54.5760    5.6640 C.3     1  SER1        0.1977
      3  CB       -26.2340   53.5200    4.5790 C.3     1  SER1        0.1820
      4  OG       -26.3590   52.2540    5.1630 O.3     1  SER1       -0.2682
      5  C        -25.7600   55.8920    5.0790 C.2     1  SER1        0.2460
      6  O        -26.5640   56.6960    4.6220 O.2     1  SER1       -0.2732
      7  P        -27.5890   51.5100    4.4900 P.3     1  SER1        0.5327
      8  O1P      -27.2330   51.0480    2.9980 O.2     1  SER1       -0.2224
      9  O2P      -28.7530   52.6170    4.5700 O.3     1  SER1       -0.1145
     10  O3P      -27.9690   50.1700    5.2720 O.3     1  SER1       -0.1145
     11  N        -24.4460   56.1280    5.1060 N.am    2  PRO2       -0.2717
     12  CA       -23.9510   57.2970    4.4040 C.3     2  PRO2        0.1536
     13  C        -24.0330   57.0350    2.9160 C.2     2  PRO2        0.2599
     14  O        -23.8880   55.8920    2.4880 O.2     2  PRO2       -0.2715
     15  CB       -22.4910   57.3780    4.8530 C.3     2  PRO2        0.0310
     16  CG       -22.4550   56.6000    6.1630 C.3     2  PRO2        0.0237
     17  CD       -23.4040   55.4760    5.9150 C.3     2  PRO2        0.0939
     18  N        -24.2990   58.0740    2.1350 N.am    3  THR3       -0.1937
     19  CA       -24.2380   57.9630    0.6880 C.3     3  THR3        0.2028
     20  C        -23.0450   58.7790    0.2320 C.2     3  THR3        0.2642
     21  O        -22.6130   59.7120    0.9190 O.2     3  THR3       -0.2714
     22  CB       -25.4860   58.5450    0.0200 C.3     3  THR3        0.1808
     23  OG1      -25.9510   59.6630    0.7860 O.3     3  THR3       -0.2208
     24  CG2      -26.6040   57.5060   -0.0810 C.3     3  THR3        0.0379
     25  N        -22.5000   58.4170   -0.9220 N.am    4  PHE4       -0.1959
     26  CA       -21.3760   59.1370   -1.4930 C.3     4  PHE4        0.1787
     27  C        -21.7660   59.5680   -2.8950 C.2     4  PHE4        0.2809
     28  O        -21.7330   58.7710   -3.8460 O.2     4  PHE4       -0.2698
     29  CB       -20.1400   58.2360   -1.5290 C.3     4  PHE4        0.0575
     30  CG       -19.8580   57.5590   -0.2230 C.ar    4  PHE4       -0.0200
     31  CD1      -20.5080   56.3790    0.1100 C.ar    4  PHE4       -0.0042
     32  CD2      -18.9630   58.1130    0.6780 C.ar    4  PHE4       -0.0042
     33  CE1      -20.2800   55.7620    1.3020 C.ar    4  PHE4       -0.0003
     34  CE2      -18.7180   57.4920    1.8950 C.ar    4  PHE4       -0.0003
     35  CZ       -19.3850   56.3140    2.2070 C.ar    4  PHE4       -0.0000
     36  N        -22.1610   60.8260   -3.0140 N.am    5  NH25       -0.0863
@<TRIPOS>BOND
     1    28    27    2
     2    36    27   am
     3    27    26    1
     4    29    26    1
     5    29    30    1
     6    26    25    1
     7    25    20   am
     8    30    31   ar
     9    30    32   ar
    10    24    22    1
    11    22    19    1
    12    22    23    1
    13    31    33   ar
    14    20    19    1
    15    20    21    2
    16    32    34   ar
    17    19    18    1
    18    33    35   ar
    19    34    35   ar
    20    18    13   am
    21    14    13    2
    22    13    12    1
    23     8     7    2
    24    12    15    1
    25    12    11    1
    26     7     9    1
    27     7     4    1
    28     7    10    1
    29     3     4    1
    30     3     2    1
    31     6     5    2
    32    15    16    1
    33     5    11   am
    34     5     2    1
    35    11    17    1
    36     2     1    1
    37    17    16    1
