@<TRIPOS>MOLECULE
3k0k_III_B_1.pdb
 36 37 0 0 0
SMALL
GASTEIGER

@<TRIPOS>ATOM
      1  N        -27.7900   54.9330    6.0630 N.3     1  SER1       -0.1204
      2  CA       -26.3780   54.6480    5.6870 C.3     1  SER1        0.1977
      3  CB       -26.3120   53.4960    4.6930 C.3     1  SER1        0.1820
      4  OG       -26.5210   52.2770    5.3560 O.3     1  SER1       -0.2682
      5  C        -25.7920   55.8950    5.0620 C.2     1  SER1        0.2460
      6  O        -26.5300   56.7390    4.5650 O.2     1  SER1       -0.2732
      7  P        -27.4470   51.3100    4.4940 P.3     1  SER1        0.5327
      8  O1P      -26.8170   50.9630    3.0650 O.2     1  SER1       -0.2224
      9  O2P      -28.8040   52.1510    4.3360 O.3     1  SER1       -0.1145
     10  O3P      -27.7010   49.8900    5.1870 O.3     1  SER1       -0.1145
     11  N        -24.4640   56.0320    5.1000 N.am    2  PRO2       -0.2717
     12  CA       -23.8760   57.1850    4.4320 C.3     2  PRO2        0.1536
     13  C        -23.8620   56.9600    2.9370 C.2     2  PRO2        0.2599
     14  O        -23.7860   55.8180    2.4980 O.2     2  PRO2       -0.2715
     15  CB       -22.4470   57.2160    4.9860 C.3     2  PRO2        0.0310
     16  CG       -22.5060   56.3850    6.2640 C.3     2  PRO2        0.0237
     17  CD       -23.4820   55.3050    5.9190 C.3     2  PRO2        0.0939
     18  N        -23.9630   58.0330    2.1590 N.am    3  THR3       -0.1937
     19  CA       -23.8190   57.9290    0.7100 C.3     3  THR3        0.2028
     20  C        -22.5280   58.5980    0.2610 C.2     3  THR3        0.2643
     21  O        -21.9410   59.3930    0.9910 O.2     3  THR3       -0.2714
     22  CB       -24.9890   58.5790   -0.0280 C.3     3  THR3        0.1808
     23  OG1      -25.1270   59.9450    0.3940 O.3     3  THR3       -0.2208
     24  CG2      -26.2830   57.8270    0.2500 C.3     3  THR3        0.0379
     25  N        -22.0780   58.2720   -0.9420 N.am    4  PHE4       -0.1937
     26  CA       -20.8370   58.8400   -1.4460 C.3     4  PHE4        0.2021
     27  C        -21.0110   59.2750   -2.8900 C.2     4  PHE4        0.3845
     28  O        -21.2770   58.4580   -3.7880 O.co2   4  PHE4       -0.2437
     29  CB       -19.6950   57.8170   -1.3450 C.3     4  PHE4        0.0596
     30  CG       -19.6360   57.1050   -0.0290 C.ar    4  PHE4       -0.0199
     31  CD1      -20.3170   55.9170    0.1560 C.ar    4  PHE4       -0.0042
     32  CD2      -18.9100   57.6310    1.0220 C.ar    4  PHE4       -0.0042
     33  CE1      -20.2780   55.2660    1.3530 C.ar    4  PHE4       -0.0003
     34  CE2      -18.8610   56.9810    2.2400 C.ar    4  PHE4       -0.0003
     35  CZ       -19.5520   55.7990    2.4050 C.ar    4  PHE4       -0.0000
     36  OXT      -20.8760   60.4620   -3.1800 O.co2   4  PHE4       -0.2437
@<TRIPOS>BOND
     1    28    27   ar
     2    36    27   ar
     3    27    26    1
     4    26    29    1
     5    26    25    1
     6    29    30    1
     7    25    20   am
     8    30    31   ar
     9    30    32   ar
    10    22    24    1
    11    22    23    1
    12    22    19    1
    13    31    33   ar
    14    20    19    1
    15    20    21    2
    16    19    18    1
    17    32    34   ar
    18    33    35   ar
    19    18    13   am
    20    34    35   ar
    21    14    13    2
    22    13    12    1
    23     8     7    2
    24     9     7    1
    25    12    15    1
    26    12    11    1
    27     7    10    1
    28     7     4    1
    29     6     5    2
    30     3     4    1
    31     3     2    1
    32    15    16    1
    33     5    11   am
    34     5     2    1
    35    11    17    1
    36     2     1    1
    37    17    16    1
