@<TRIPOS>MOLECULE
3k0s_ADP_A_1.pdb
 27 29 0 0 0
SMALL
GASTEIGER

@<TRIPOS>ATOM
      1  PB        -0.8440   45.8540    8.1650 P.3   1801  ADP1801     0.5373
      2  O1B       -2.1850   46.0470    7.4940 O.2   1801  ADP1801    -0.2221
      3  O2B       -0.3900   44.4140    8.2280 O.3   1801  ADP1801    -0.1143
      4  O3B        0.2190   46.8180    7.6800 O.3   1801  ADP1801    -0.1143
      5  PA        -0.8520   45.4790   11.0400 P.3   1801  ADP1801     0.2231
      6  O1A        0.6290   45.2820   11.2710 O.3   1801  ADP1801    -0.4370
      7  O2A       -1.7910   44.3000   11.1000 O.2   1801  ADP1801    -0.5169
      8  O3A       -1.0740   46.3370    9.6950 O.3   1801  ADP1801    -0.2261
      9  O5'       -1.3520   46.4990   12.1680 O.3   1801  ADP1801    -0.3111
     10  C5'       -0.8650   47.8330   12.2250 C.3   1801  ADP1801     0.1813
     11  C4'       -0.9060   48.2350   13.6930 C.3   1801  ADP1801     0.1821
     12  O4'       -2.2480   48.5620   14.0530 O.3   1801  ADP1801    -0.3135
     13  C3'       -0.4560   47.0770   14.5700 C.3   1801  ADP1801     0.2184
     14  O3'        0.7600   47.4060   15.2420 O.3   1801  ADP1801    -0.2174
     15  C2'       -1.5520   46.8870   15.5910 C.3   1801  ADP1801     0.2570
     16  O2'       -1.0540   47.1820   16.8980 O.3   1801  ADP1801    -0.2130
     17  C1'       -2.6360   47.8890   15.2450 C.3   1801  ADP1801     0.3186
     18  N9        -3.8980   47.1390   15.0470 N.pl3 1801  ADP1801    -0.1439
     19  C8        -4.0720   46.0890   14.2220 C.3   1801  ADP1801     0.3377
     20  N7        -5.3450   45.6190   14.2860 N.2   1801  ADP1801    -0.2095
     21  C5        -6.0010   46.3770   15.1750 C.2   1801  ADP1801     0.2526
     22  C6        -7.3700   46.4220   15.7130 C.2   1801  ADP1801     0.4393
     23  N6        -8.2990   45.5350   15.2900 N.pl3 1801  ADP1801     0.2180
     24  N1        -7.6510   47.3740   16.6300 N.2   1801  ADP1801     0.0021
     25  C2        -6.7260   48.2540   17.0470 C.3   1801  ADP1801     0.5254
     26  N3        -5.4570   48.2740   16.5970 N.2   1801  ADP1801    -0.0055
     27  C4        -5.0450   47.3730   15.6800 C.2   1801  ADP1801     0.3518
@<TRIPOS>BOND
     1     2     1    2
     2     4     1    1
     3     1     3    1
     4     1     8    1
     5     8     5    1
     6     5     7    2
     7     5     6    1
     8     5     9    1
     9     9    10    1
    10    10    11    1
    11    11    12    1
    12    11    13    1
    13    12    17    1
    14    19    20    1
    15    19    18    1
    16    20    21    2
    17    13    14    1
    18    13    15    1
    19    18    17    1
    20    18    27    1
    21    21    27    1
    22    21    22    1
    23    17    15    1
    24    23    22    1
    25    15    16    1
    26    27    26    2
    27    22    24    2
    28    26    25    1
    29    24    25    1
