@<TRIPOS>MOLECULE
3k0t_BGC_A_1.pdb
 12 12 0 0 0
SMALL
GASTEIGER

@<TRIPOS>ATOM
      1  C2        25.8370   29.1420    5.7650 C.3   127  BGC127      0.2434
      2  C3        26.9900   29.5560    6.6310 C.3   127  BGC127      0.2199
      3  C4        27.7640   30.4870    5.7120 C.3   127  BGC127      0.2144
      4  C5        26.8450   31.6460    5.2100 C.3   127  BGC127      0.1836
      5  C6        27.3400   32.3990    4.0080 C.3   127  BGC127      0.2142
      6  C1        24.9470   30.3430    5.8480 C.3   127  BGC127      0.3024
      7  O1        23.6500   30.0170    5.4980 O.3   127  BGC127     -0.1869
      8  O2        25.1800   27.9710    6.1800 O.3   127  BGC127     -0.2148
      9  O3        27.7400   28.4390    7.0660 O.3   127  BGC127     -0.2174
     10  O4        28.8430   31.0530    6.4260 O.3   127  BGC127     -0.2176
     11  O5        25.4710   31.2600    4.9100 O.3   127  BGC127     -0.3236
     12  O6        27.2820   33.7540    4.3830 O.3   127  BGC127     -0.2176
@<TRIPOS>BOND
     1     5    12    1
     2     5     4    1
     3    11     4    1
     4    11     6    1
     5     4     3    1
     6     7     6    1
     7     3    10    1
     8     3     2    1
     9     1     6    1
    10     1     8    1
    11     1     2    1
    12     2     9    1
