@<TRIPOS>MOLECULE
3k0v_DXI_A_1.pdb
 34 36 0 0 0
SMALL
GASTEIGER

@<TRIPOS>ATOM
      1  O1       -19.9130   16.2000   14.5330 O.3     1  DXI1       -0.3257
      2  O2       -19.5560   18.6240   16.5230 O.3     1  DXI1       -0.3257
      3  O3       -18.6510   14.6670   13.2930 O.3     1  DXI1       -0.3257
      4  O4       -20.9760   19.1800   18.2470 O.3     1  DXI1       -0.3256
      5  O5       -21.9830   15.1900   12.0920 O.3     1  DXI1       -0.3237
      6  O6       -16.9700   16.7960   17.3180 O.3     1  DXI1       -0.2175
      7  O7       -16.7550   14.6990   15.5160 O.3     1  DXI1       -0.2149
      8  O8       -20.6150   11.7880   12.7650 O.3     1  DXI1       -0.2175
      9  O9       -17.5910   20.3460   17.5600 O.3     1  DXI1       -0.2149
     10  O10      -18.5430   22.3160   19.3260 O.3     1  DXI1       -0.2174
     11  O11      -20.5900   21.5610   21.0250 O.3     1  DXI1       -0.2176
     12  O12      -22.4550   14.2600   14.7010 O.3     1  DXI1       -0.2148
     13  O13      -22.4680   16.9780   14.5870 O.3     1  DXI1       -0.2176
     14  O14      -24.0560   14.5460   12.6470 O.3     1  DXI1       -0.1869
     15  O15      -21.4140   15.1070    9.4860 O.3     1  DXI1       -0.2176
     16  O16      -23.1960   18.3700   19.3800 O.3     1  DXI1       -0.2176
     17  C17      -19.3080   17.2130   16.6350 C.3     1  DXI1        0.1804
     18  C18      -18.1250   16.2340   16.7280 C.3     1  DXI1        0.2167
     19  C19      -17.7320   15.6980   15.3440 C.3     1  DXI1        0.2404
     20  C20      -20.4300   16.5960   15.7890 C.3     1  DXI1        0.1803
     21  C21      -18.9620   15.1590   14.6070 C.3     1  DXI1        0.2695
     22  C22      -19.8870   14.0990   12.8230 C.3     1  DXI1        0.1804
     23  C23      -19.6210   19.0800   17.8550 C.3     1  DXI1        0.2695
     24  C24      -20.7480   12.9950   13.4920 C.3     1  DXI1        0.2168
     25  C25      -20.6250   14.9560   11.7710 C.3     1  DXI1        0.1804
     26  C26      -18.9560   20.4540   17.9030 C.3     1  DXI1        0.2406
     27  C27      -19.0980   21.0260   19.3080 C.3     1  DXI1        0.2198
     28  C28      -20.5710   21.0650   19.7080 C.3     1  DXI1        0.2144
     29  C29      -22.2410   13.3550   13.6470 C.3     1  DXI1        0.2433
     30  C30      -21.1770   19.6540   19.5680 C.3     1  DXI1        0.1835
     31  C31      -21.5890   17.5590   15.5190 C.3     1  DXI1        0.2141
     32  C32      -22.7680   14.0580   12.3960 C.3     1  DXI1        0.3023
     33  C33      -20.5780   14.3730   10.3510 C.3     1  DXI1        0.2141
     34  C34      -22.6890   19.6150   19.8000 C.3     1  DXI1        0.2142
@<TRIPOS>BOND
     1    15    33    1
     2    33    25    1
     3    25     5    1
     4    25    22    1
     5     5    32    1
     6    32    14    1
     7    32    29    1
     8     8    24    1
     9    22     3    1
    10    22    24    1
    11     3    21    1
    12    24    29    1
    13    29    12    1
    14     1    21    1
    15     1    20    1
    16    13    31    1
    17    21    19    1
    18    19     7    1
    19    19    18    1
    20    31    20    1
    21    20    17    1
    22     2    17    1
    23     2    23    1
    24    17    18    1
    25    18     6    1
    26     9    26    1
    27    23    26    1
    28    23     4    1
    29    26    27    1
    30     4    30    1
    31    27    10    1
    32    27    28    1
    33    16    34    1
    34    30    28    1
    35    30    34    1
    36    28    11    1
