@<TRIPOS>MOLECULE
3k0v_NAG_A_1.pdb
 14 14 0 0 0
SMALL
GASTEIGER

@<TRIPOS>ATOM
      1  C1        12.1810   10.0450   20.6330 C.3   687  NAG687      0.1665
      2  C2        12.4760   10.3470   19.1570 C.3   687  NAG687      0.1576
      3  C3        13.5620   11.4290   19.0300 C.3   687  NAG687      0.2069
      4  C4        13.2950   12.6470   19.9180 C.3   687  NAG687      0.2134
      5  C5        12.8700   12.2180   21.3280 C.3   687  NAG687      0.1809
      6  C6        12.4140   13.3920   22.1960 C.3   687  NAG687      0.2141
      7  C7        11.9830    8.3940   17.7150 C.2   687  NAG687      0.2420
      8  C8        12.6020    7.4200   16.7600 C.3   687  NAG687      0.0964
      9  N2        12.8450    9.1330   18.4370 N.am  687  NAG687     -0.2019
     10  O3        13.6680   11.8810   17.6960 O.3   687  NAG687     -0.2184
     11  O4        14.4450   13.4830   19.9470 O.3   687  NAG687     -0.2176
     12  O5        11.8200   11.2670   21.2510 O.3   687  NAG687     -0.3489
     13  O6        11.3410   14.0800   21.5870 O.3   687  NAG687     -0.2176
     14  O7        10.7440    8.4640   17.7990 O.2   687  NAG687     -0.2733
@<TRIPOS>BOND
     1     8     7    1
     2    10     3    1
     3     7    14    2
     4     7     9   am
     5     9     2    1
     6     3     2    1
     7     3     4    1
     8     2     1    1
     9     4    11    1
    10     4     5    1
    11     1    12    1
    12    12     5    1
    13     5     6    1
    14    13     6    1
