@<TRIPOS>MOLECULE
3k13_THH_A_1.pdb
 33 35 0 0 0
SMALL
GASTEIGER

@<TRIPOS>ATOM
      1  OE1       71.3430   67.9950   30.2650 O.co2 642  THH642     -0.2457
      2  CD        71.7960   67.0590   29.5460 C.2   642  THH642      0.3649
      3  OE2       72.9550   66.6130   29.5960 O.co2 642  THH642     -0.2457
      4  CG        70.8690   66.3390   28.5100 C.3   642  THH642      0.1164
      5  CB        69.4170   66.5550   28.8700 C.3   642  THH642      0.0451
      6  CA        68.4900   65.8370   27.8740 C.3   642  THH642      0.1986
      7  CT        67.1900   65.6370   28.6720 C.2   642  THH642      0.3842
      8  O1        66.3460   66.5590   28.7200 O.co2 642  THH642     -0.2437
      9  O2        67.0660   64.5390   29.2240 O.co2 642  THH642     -0.2437
     10  N         68.2670   66.6210   26.6240 N.am  642  THH642     -0.1918
     11  C         67.3820   66.2030   25.7290 C.2   642  THH642      0.2652
     12  O         66.7480   65.1670   25.8700 O.2   642  THH642     -0.2684
     13  C12       67.1490   67.0760   24.4770 C.ar  642  THH642      0.0551
     14  C13       68.1210   67.9820   24.0330 C.ar  642  THH642      0.0059
     15  C14       67.8590   68.7760   22.9180 C.ar  642  THH642      0.0162
     16  C15       66.6650   68.6610   22.2050 C.ar  642  THH642      0.0654
     17  C16       65.6810   67.7470   22.6540 C.ar  642  THH642      0.0162
     18  C17       65.9360   66.9660   23.7950 C.ar  642  THH642      0.0059
     19  N10       66.4730   69.4370   21.1120 N.pl3 642  THH642     -0.2361
     20  C9        65.2470   69.3510   20.3230 C.3   642  THH642      0.1302
     21  C6        64.0720   70.0840   21.0660 C.3   642  THH642      0.1062
     22  C7        64.2720   71.6210   20.9900 C.3   642  THH642      0.1547
     23  N8        64.1550   72.1060   19.5760 N.2   642  THH642     -0.2096
     24  C8A       63.3150   71.4260   18.7070 C.1   642  THH642      0.1050
     25  N1        63.1510   71.9070   17.4530 N.2   642  THH642     -0.2726
     26  C4A       62.6540   70.2630   19.1510 C.3   642  THH642      0.2763
     27  N5        62.7790   69.7670   20.4350 N.3   642  THH642     -0.2435
     28  C11       61.6410   70.1820   21.3620 C.3   642  THH642      0.0915
     29  C4        61.8500   69.6370   18.2030 C.1   642  THH642      0.2218
     30  O4        61.1630   68.5130   18.4790 O.2   642  THH642     -0.2109
     31  N3        61.7230   70.1360   16.9490 N.2   642  THH642     -0.2515
     32  C2        62.3660   71.2480   16.5540 C.1   642  THH642      0.2603
     33  NA2       62.1840   71.6890   15.2840 N.pl3 642  THH642     -0.0221
@<TRIPOS>BOND
     1    33    32    1
     2    32    31    2
     3    32    25    2
     4    31    29    2
     5    25    24    2
     6    29    30    2
     7    29    26    1
     8    24    26    1
     9    24    23    2
    10    26    27    1
    11    23    22    1
    12    20    21    1
    13    20    19    1
    14    27    21    1
    15    27    28    1
    16    22    21    1
    17    19    16    1
    18    16    17   ar
    19    16    15   ar
    20    17    18   ar
    21    15    14   ar
    22    18    13   ar
    23    14    13   ar
    24    13    11    1
    25    11    12    2
    26    11    10   am
    27    10     6    1
    28     6     7    1
    29     6     5    1
    30     4     5    1
    31     4     2    1
    32     7     8   ar
    33     7     9   ar
    34     2     3   ar
    35     2     1   ar
