@<TRIPOS>MOLECULE
3k14_535_A_1.pdb
 14 15 0 0 0
SMALL
GASTEIGER

@<TRIPOS>ATOM
      1  N1         9.0890  -27.8530  -14.8500 N.ar  164  535164     -0.2189
      2  C2         8.0110  -27.8770  -15.6670 C.ar  164  535164      0.1794
      3  N3         8.1930  -27.0640  -16.6850 N.ar  164  535164     -0.2867
      4  C4         9.4680  -26.3660  -16.6670 C.ar  164  535164      0.1023
      5  C5        10.0980  -26.9130  -15.3730 C.ar  164  535164      0.1200
      6  C6         7.1600  -27.0440  -17.5560 C.ar  164  535164      0.0559
      7  C7         6.0890  -27.9780  -17.0720 C.ar  164  535164      0.1198
      8  S8         6.5260  -28.7530  -15.5890 S.2   164  535164     -0.0424
      9  C9         7.1430  -26.2030  -18.8020 C.3   164  535164      0.0512
     10  C10        4.7680  -28.3210  -17.6430 C.2   164  535164      0.3485
     11  O11        3.8660  -29.1060  -16.8210 O.3   164  535164     -0.4451
     12  C12        3.0330  -28.4450  -15.8660 C.3   164  535164      0.2089
     13  C13        3.0360  -26.9580  -16.1460 C.3   164  535164      0.0513
     14  O14        4.4370  -27.9590  -18.7640 O.2   164  535164     -0.2443
@<TRIPOS>BOND
     1     9     6    1
     2    14    10    2
     3    10     7    1
     4    10    11    1
     5     6     7   ar
     6     6     3   ar
     7     7     8   ar
     8    11    12    1
     9     3     4   ar
    10     3     2   ar
    11     4     5   ar
    12    13    12    1
    13     2     8   ar
    14     2     1   ar
    15     5     1   ar
