@<TRIPOS>MOLECULE
3k15_III_B_1.pdb
 36 37 0 0 0
SMALL
GASTEIGER

@<TRIPOS>ATOM
      1  N        -27.7680   54.9460    6.2900 N.3     1  SER1       -0.1204
      2  CA       -26.3990   54.6910    5.7660 C.3     1  SER1        0.1977
      3  CB       -26.4460   53.6750    4.6320 C.3     1  SER1        0.1820
      4  OG       -26.2770   52.3750    5.1330 O.3     1  SER1       -0.2682
      5  C        -25.7850   55.9850    5.2650 C.2     1  SER1        0.2460
      6  O        -26.4990   56.9250    4.9390 O.2     1  SER1       -0.2732
      7  P        -27.4420   51.4380    4.5800 P.3     1  SER1        0.5327
      8  O1P      -27.0600   50.7830    3.1640 O.2     1  SER1       -0.2224
      9  O2P      -28.7210   52.3990    4.4670 O.3     1  SER1       -0.1145
     10  O3P      -27.6870   50.1830    5.5370 O.3     1  SER1       -0.1145
     11  N        -24.4530   56.0410    5.2100 N.am    2  PRO2       -0.2717
     12  CA       -23.8050   57.1880    4.5990 C.3     2  PRO2        0.1536
     13  C        -23.8570   57.0150    3.0880 C.2     2  PRO2        0.2599
     14  O        -23.8670   55.8830    2.6160 O.2     2  PRO2       -0.2715
     15  CB       -22.3710   57.0710    5.1050 C.3     2  PRO2        0.0310
     16  CG       -22.1580   55.5850    5.2630 C.3     2  PRO2        0.0237
     17  CD       -23.4960   55.0090    5.6460 C.3     2  PRO2        0.0939
     18  N        -23.9200   58.1090    2.3320 N.am    3  THR3       -0.1937
     19  CA       -23.8790   58.0050    0.8670 C.3     3  THR3        0.2028
     20  C        -22.6630   58.7170    0.2840 C.2     3  THR3        0.2642
     21  O        -22.0510   59.5730    0.9240 O.2     3  THR3       -0.2714
     22  CB       -25.1430   58.5670    0.1980 C.3     3  THR3        0.1808
     23  OG1      -25.3410   59.9240    0.6140 O.3     3  THR3       -0.2208
     24  CG2      -26.3700   57.7400    0.5580 C.3     3  THR3        0.0379
     25  N        -22.3160   58.3590   -0.9430 N.am    4  PHE4       -0.1959
     26  CA       -21.1270   58.9100   -1.5790 C.3     4  PHE4        0.1787
     27  C        -21.4130   59.3300   -3.0120 C.2     4  PHE4        0.2809
     28  O        -21.7290   58.4980   -3.8750 O.2     4  PHE4       -0.2698
     29  CB       -20.0070   57.8750   -1.5670 C.3     4  PHE4        0.0575
     30  CG       -19.7400   57.2940   -0.2150 C.ar    4  PHE4       -0.0200
     31  CD1      -20.3030   56.0850    0.1530 C.ar    4  PHE4       -0.0042
     32  CD2      -18.9230   57.9560    0.6850 C.ar    4  PHE4       -0.0042
     33  CE1      -20.0590   55.5490    1.3900 C.ar    4  PHE4       -0.0003
     34  CE2      -18.6670   57.4210    1.9320 C.ar    4  PHE4       -0.0003
     35  CZ       -19.2370   56.2170    2.2880 C.ar    4  PHE4       -0.0000
     36  N        -21.2890   60.6260   -3.2610 N.am    5  NH25       -0.0863
@<TRIPOS>BOND
     1    28    27    2
     2    36    27   am
     3    27    26    1
     4    26    29    1
     5    26    25    1
     6    29    30    1
     7    25    20   am
     8    30    31   ar
     9    30    32   ar
    10    31    33   ar
    11    22    24    1
    12    22    23    1
    13    22    19    1
    14    20    19    1
    15    20    21    2
    16    32    34   ar
    17    19    18    1
    18    33    35   ar
    19    34    35   ar
    20    18    13   am
    21    14    13    2
    22    13    12    1
    23     8     7    2
    24     9     7    1
    25     7     4    1
    26     7    10    1
    27    12    15    1
    28    12    11    1
    29     3     4    1
    30     3     2    1
    31     6     5    2
    32    15    16    1
    33    11     5   am
    34    11    17    1
    35    16    17    1
    36     5     2    1
    37     2     1    1
