@<TRIPOS>MOLECULE
3k16_III_B_1.pdb
 36 37 0 0 0
SMALL
GASTEIGER

@<TRIPOS>ATOM
      1  N        -27.9030   55.1100    6.3210 N.3     1  SER1       -0.1204
      2  CA       -26.6170   54.6230    5.7630 C.3     1  SER1        0.1977
      3  CB       -26.8870   53.5930    4.6810 C.3     1  SER1        0.1820
      4  OG       -26.5500   52.3000    5.1250 O.3     1  SER1       -0.2682
      5  C        -25.9750   55.8340    5.1330 C.2     1  SER1        0.2460
      6  O        -26.6730   56.7240    4.6540 O.2     1  SER1       -0.2732
      7  P        -27.5980   51.3220    4.4150 P.3     1  SER1        0.5327
      8  O1P      -27.0450   50.6750    3.0530 O.2     1  SER1       -0.2224
      9  O2P      -28.8270   52.3370    4.1470 O.3     1  SER1       -0.1145
     10  O3P      -27.9470   50.0550    5.3320 O.3     1  SER1       -0.1145
     11  N        -24.6430   55.8710    5.0860 N.am    2  PRO2       -0.2717
     12  CA       -24.1050   57.0410    4.4130 C.3     2  PRO2        0.1536
     13  C        -24.2000   56.8260    2.9130 C.2     2  PRO2        0.2599
     14  O        -24.4430   55.7020    2.4720 O.2     2  PRO2       -0.2715
     15  CB       -22.6460   57.0550    4.8610 C.3     2  PRO2        0.0310
     16  CG       -22.6510   56.3120    6.1610 C.3     2  PRO2        0.0237
     17  CD       -23.6450   55.2140    5.9400 C.3     2  PRO2        0.0939
     18  N        -24.0400   57.8890    2.1320 N.am    3  THR3       -0.1937
     19  CA       -24.0140   57.7370    0.6810 C.3     3  THR3        0.2028
     20  C        -22.7990   58.3920    0.0280 C.2     3  THR3        0.2643
     21  O        -22.1070   59.2110    0.6430 O.2     3  THR3       -0.2714
     22  CB       -25.2870   58.2870    0.0490 C.3     3  THR3        0.1808
     23  OG1      -25.7580   59.3840    0.8380 O.3     3  THR3       -0.2208
     24  CG2      -26.3610   57.2040   -0.0210 C.3     3  THR3        0.0379
     25  N        -22.5490   58.0280   -1.2280 N.am    4  PHE4       -0.1937
     26  CA       -21.3160   58.4270   -1.9110 C.3     4  PHE4        0.2021
     27  C        -21.5170   58.8150   -3.3780 C.2     4  PHE4        0.3845
     28  O        -20.8470   59.7240   -3.8770 O.co2   4  PHE4       -0.2437
     29  CB       -20.2690   57.3180   -1.8020 C.3     4  PHE4        0.0596
     30  CG       -19.8890   56.9930   -0.3920 C.ar    4  PHE4       -0.0199
     31  CD1      -20.1910   55.7580    0.1490 C.ar    4  PHE4       -0.0042
     32  CD2      -19.3160   57.9530    0.4140 C.ar    4  PHE4       -0.0042
     33  CE1      -19.9020   55.4820    1.4540 C.ar    4  PHE4       -0.0003
     34  CE2      -18.9950   57.6680    1.7140 C.ar    4  PHE4       -0.0003
     35  CZ       -19.3030   56.4350    2.2440 C.ar    4  PHE4       -0.0000
     36  OXT      -22.2880   58.1880   -4.1160 O.co2   4  PHE4       -0.2437
@<TRIPOS>BOND
     1    36    27   ar
     2    28    27   ar
     3    27    26    1
     4    26    29    1
     5    26    25    1
     6    29    30    1
     7    25    20   am
     8    30    31   ar
     9    30    32   ar
    10    24    22    1
    11    20    21    2
    12    20    19    1
    13    22    19    1
    14    22    23    1
    15    31    33   ar
    16    32    34   ar
    17    19    18    1
    18    33    35   ar
    19    34    35   ar
    20    18    13   am
    21    14    13    2
    22    13    12    1
    23     8     7    2
    24     9     7    1
    25    12    15    1
    26    12    11    1
    27     7     4    1
    28     7    10    1
    29     6     5    2
    30     3     4    1
    31     3     2    1
    32    15    16    1
    33    11     5   am
    34    11    17    1
    35     5     2    1
    36     2     1    1
    37    17    16    1
