@<TRIPOS>MOLECULE
3k1a_CFN_A_1.pdb
 18 33 0 0 0
SMALL
GASTEIGER

@<TRIPOS>ATOM
      1  S3A       13.8150   -9.6220   56.1560 S.3   6496  CFN6496     0.0000
      2 FE4        11.9930   -8.3240   56.1680 Fe    6496  CFN6496     0.0000
      3  S1A       11.3250   -7.4940   57.9630 S.3   6496  CFN6496     0.0000
      4  S4A       10.3980   -8.8920   54.9570 S.3   6496  CFN6496     0.0000
      5 FE3        10.7690   -6.8940   54.4940 Fe    6496  CFN6496     0.0000
      6  S2A        9.6450   -5.6400   55.7480 S.3   6496  CFN6496     0.0000
      7 FE7        12.9480   -6.2940   53.4630 Fe    6496  CFN6496     0.0000
      8  S4B       14.4790   -7.7020   53.0970 S.3   6496  CFN6496     0.0000
      9 MO1        15.4620   -5.8190   53.8210 Mo    6496  CFN6496     0.0000
     10  S1B       15.3980   -6.2290   56.0660 S.3   6496  CFN6496     0.0000
     11 FE6        13.6380   -5.2430   55.6080 Fe    6496  CFN6496     0.0000
     12 FE2        11.5280   -5.9240   56.6340 Fe    6496  CFN6496     0.0000
     13 FE1         9.6300   -7.6470   56.5880 Fe    6496  CFN6496     0.0000
     14 FE5        14.1560   -7.6450   55.1630 Fe    6496  CFN6496     0.0000
     15  S2B       12.5650   -4.0120   57.1270 S.3   6496  CFN6496     0.0000
     16  S3B       13.7370   -4.3590   53.7230 S.3   6496  CFN6496     0.0000
     17  S5A       11.0630   -6.6660   52.2970 S.3   6496  CFN6496     0.0000
     18  NX        12.5070   -6.7200   55.2580 N.4   6496  CFN6496     0.0000
@<TRIPOS>BOND
     1    17     7    1
     2    17     5    1
     3     8     7    1
     4     8     9    1
     5     8    14    1
     6     7    16    1
     7     7     5    1
     8     7    14    1
     9     7    18    1
    10    16     9    1
    11    16    11    1
    12     9    10    1
    13     5     4    1
    14     5     6    1
    15     5    12    1
    16     4     2    1
    17     4    13    1
    18    14    18    1
    19    14    10    1
    20    14     1    1
    21    14     2    1
    22    18    11    1
    23    18    12    1
    24    11    10    1
    25    11    12    1
    26    11    15    1
    27     6    13    1
    28     6    12    1
    29     1     2    1
    30     2     3    1
    31    13     3    1
    32    12    15    1
    33    12     3    1
