@<TRIPOS>MOLECULE
3k1a_CLF_B_1.pdb
 15 35 0 0 0
SMALL
GASTEIGER

@<TRIPOS>ATOM
      1 FE1        20.9680    9.0720   58.7070 Fe    6498  CLF6498     0.0000
      2 FE2        19.8620   10.1290   59.9000 Fe    6498  CLF6498     0.0000
      3 FE3        18.9300    8.1760   59.1160 Fe    6498  CLF6498     0.0000
      4 FE4        19.1810    9.8810   57.7330 Fe    6498  CLF6498     0.0000
      5  S1        20.1670   11.5210   58.6320 S.3   6498  CLF6498     0.0000
      6  S2A       20.4380    8.1580   60.6820 S.3   6498  CLF6498     0.0000
      7  S4A       17.7030    9.9500   59.3780 S.3   6498  CLF6498     0.0000
      8  S3A       19.9050    7.8610   57.1970 S.3   6498  CLF6498     0.0000
      9 FE5        20.6670   11.2670   56.5750 Fe    6498  CLF6498     0.0000
     10 FE6        21.6310   12.9040   57.8120 Fe    6498  CLF6498     0.0000
     11 FE7        22.8360   11.7690   56.4080 Fe    6498  CLF6498     0.0000
     12 FE8        21.9630   10.7430   58.3180 Fe    6498  CLF6498     0.0000
     13  S2B       21.3170   13.1910   55.6610 S.3   6498  CLF6498     0.0000
     14  S3B       23.6510   12.2150   58.3600 S.3   6498  CLF6498     0.0000
     15  S4B       22.2000    9.7030   56.3690 S.3   6498  CLF6498     0.0000
@<TRIPOS>BOND
     1    13    11    1
     2    13     9    1
     3    13    10    1
     4    15    11    1
     5    15     9    1
     6    15    12    1
     7    11     9    1
     8    11    10    1
     9    11    14    1
    10     9    10    1
    11     9    12    1
    12     9     5    1
    13     8     4    1
    14     8     1    1
    15     8     3    1
    16     4     5    1
    17     4     1    1
    18     4     3    1
    19     4     7    1
    20     4     2    1
    21    10    12    1
    22    10    14    1
    23    10     5    1
    24    12    14    1
    25    12     5    1
    26    12     1    1
    27     5     2    1
    28     1     3    1
    29     1     2    1
    30     1     6    1
    31     3     7    1
    32     3     2    1
    33     3     6    1
    34     7     2    1
    35     2     6    1
