@<TRIPOS>MOLECULE
3k1g_TYR_A_1.pdb
 13 13 0 0 0
SMALL
GASTEIGER

@<TRIPOS>ATOM
      1  N         71.0240   -4.2170    5.4200 N.3   356  TYR356     -0.1205
      2  CA        69.9890   -5.0110    6.0850 C.3   356  TYR356      0.1986
      3  C         70.2340   -5.1350    7.5840 C.2   356  TYR356      0.3822
      4  O         71.0580   -4.3610    8.1130 O.co2 356  TYR356     -0.2440
      5  CB        69.9050   -6.4110    5.4680 C.3   356  TYR356      0.0569
      6  CG        69.3370   -6.4400    4.0670 C.ar  356  TYR356     -0.0200
      7  CD1       69.7720   -7.3880    3.1450 C.ar  356  TYR356     -0.0009
      8  CD2       68.3620   -5.5220    3.6600 C.ar  356  TYR356     -0.0009
      9  CE1       69.2580   -7.4270    1.8520 C.ar  356  TYR356      0.0417
     10  CE2       67.8420   -5.5510    2.3630 C.ar  356  TYR356      0.0417
     11  CZ        68.2990   -6.5080    1.4670 C.ar  356  TYR356      0.1957
     12  OH        67.8190   -6.5420    0.1790 O.3   356  TYR356     -0.2866
     13  OXT       69.5780   -6.0010    8.2080 O.co2 356  TYR356     -0.2440
@<TRIPOS>BOND
     1    12    11    1
     2    11     9   ar
     3    11    10   ar
     4     9     7   ar
     5    10     8   ar
     6     7     6   ar
     7     8     6   ar
     8     6     5    1
     9     1     2    1
    10     5     2    1
    11     2     3    1
    12     3     4   ar
    13     3    13   ar
