@<TRIPOS>MOLECULE
3k1j_ADP_A_1.pdb
 27 29 0 0 0
SMALL
GASTEIGER

@<TRIPOS>ATOM
      1  PB       -29.7870  -61.7880   -9.3070 P.3   642  ADP642      0.5373
      2  O1B      -29.6190  -60.8490   -8.1830 O.3   642  ADP642     -0.1143
      3  O2B      -29.4260  -61.2200  -10.6230 O.2   642  ADP642     -0.2221
      4  O3B      -29.2010  -63.1140   -9.0630 O.3   642  ADP642     -0.1143
      5  PA       -32.3760  -62.3100  -10.6430 P.3   642  ADP642      0.2231
      6  O1A      -32.6100  -60.9860  -11.2350 O.3   642  ADP642     -0.4370
      7  O2A      -31.8490  -63.3140  -11.5320 O.2   642  ADP642     -0.5169
      8  O3A      -31.3320  -62.1740   -9.4110 O.3   642  ADP642     -0.2261
      9  O5'      -33.7520  -62.8560  -10.0300 O.3   642  ADP642     -0.3111
     10  C5'      -34.4470  -64.0860  -10.2670 C.3   642  ADP642      0.1813
     11  C4'      -35.9100  -63.9730  -10.3920 C.3   642  ADP642      0.1821
     12  O4'      -36.2740  -63.5780   -9.0650 O.3   642  ADP642     -0.3135
     13  C3'      -36.4340  -62.7510  -11.1670 C.3   642  ADP642      0.2184
     14  O3'      -36.2480  -62.9200  -12.5630 O.3   642  ADP642     -0.2174
     15  C2'      -37.8590  -62.6440  -10.5930 C.3   642  ADP642      0.2570
     16  O2'      -38.6040  -63.7210  -10.9860 O.3   642  ADP642     -0.2130
     17  C1'      -37.5360  -62.7600   -9.1140 C.3   642  ADP642      0.3186
     18  N9       -36.9010  -61.7370   -8.1520 N.pl3 642  ADP642     -0.1439
     19  C8       -35.7640  -61.4890   -7.4480 C.3   642  ADP642      0.3377
     20  N7       -35.8220  -60.3750   -6.7490 N.2   642  ADP642     -0.2095
     21  C5       -37.0800  -59.8380   -7.0090 C.2   642  ADP642      0.2526
     22  C6       -37.7910  -58.6330   -6.5650 C.2   642  ADP642      0.4393
     23  N6       -37.2780  -57.7340   -5.6930 N.pl3 642  ADP642      0.2180
     24  N1       -39.0720  -58.4240   -7.0620 N.2   642  ADP642      0.0021
     25  C2       -39.5960  -59.3190   -7.9050 C.3   642  ADP642      0.5254
     26  N3       -39.0230  -60.4700   -8.3680 N.2   642  ADP642     -0.0055
     27  C4       -37.7480  -60.6680   -7.8840 C.2   642  ADP642      0.3518
@<TRIPOS>BOND
     1    14    13    1
     2     7     5    2
     3     6     5    1
     4    13    15    1
     5    13    11    1
     6    16    15    1
     7     5     9    1
     8     5     8    1
     9     3     1    2
    10    15    17    1
    11    11    10    1
    12    11    12    1
    13    10     9    1
    14     8     1    1
    15     1     4    1
    16     1     2    1
    17    17    12    1
    18    17    18    1
    19    26    25    1
    20    26    27    2
    21    18    27    1
    22    18    19    1
    23    25    24    1
    24    27    21    1
    25    19    20    1
    26    24    22    2
    27    21    20    2
    28    21    22    1
    29    22    23    1
