@<TRIPOS>MOLECULE
3k1l_MAL_A_1.pdb
 23 24 0 0 0
SMALL
GASTEIGER

@<TRIPOS>ATOM
      1  C1        26.8780  -17.2030   48.2220 C.3   5045  MAL5045     0.2695
      2  C2        27.5020  -15.9540   48.8510 C.3   5045  MAL5045     0.2406
      3  C3        29.0220  -16.0480   48.9260 C.3   5045  MAL5045     0.2198
      4  C4        29.4500  -17.3930   49.5100 C.3   5045  MAL5045     0.2144
      5  C5        28.8330  -18.4970   48.6400 C.3   5045  MAL5045     0.1835
      6  C6        29.3270  -19.9170   48.9600 C.3   5045  MAL5045     0.2142
      7  O1        27.0480  -17.1660   46.8250 O.3   5045  MAL5045    -0.3257
      8  O2        27.1480  -14.8080   48.1040 O.3   5045  MAL5045    -0.2149
      9  O3        29.5090  -14.9840   49.7110 O.3   5045  MAL5045    -0.2174
     10  O4        30.8610  -17.4760   49.5740 O.3   5045  MAL5045    -0.2176
     11  O5        27.4180  -18.4160   48.7270 O.3   5045  MAL5045    -0.3256
     12  O6        29.4510  -20.1560   50.3490 O.3   5045  MAL5045    -0.2176
     13  C1'       24.0820  -17.8060   43.9040 C.3   5045  MAL5045     0.3023
     14  C2'       24.0660  -16.4840   44.7060 C.3   5045  MAL5045     0.2433
     15  C3'       25.4110  -16.1700   45.3700 C.3   5045  MAL5045     0.2168
     16  C4'       25.8750  -17.4250   46.0940 C.3   5045  MAL5045     0.1804
     17  C5'       26.0670  -18.5290   45.0610 C.3   5045  MAL5045     0.1804
     18  C6'       26.7750  -19.7540   45.6400 C.3   5045  MAL5045     0.2141
     19  O1'       24.5610  -17.6020   42.5840 O.3   5045  MAL5045    -0.1869
     20  O2'       23.6520  -15.4140   43.8760 O.3   5045  MAL5045    -0.2148
     21  O3'       25.3250  -15.0930   46.2830 O.3   5045  MAL5045    -0.2175
     22  O5'       24.7920  -18.8700   44.5490 O.3   5045  MAL5045    -0.3237
     23  O6'       26.1410  -20.1600   46.8310 O.3   5045  MAL5045    -0.2176
@<TRIPOS>BOND
     1    19    13    1
     2    20    14    1
     3    13    22    1
     4    13    14    1
     5    22    17    1
     6    14    15    1
     7    17    18    1
     8    17    16    1
     9    15    16    1
    10    15    21    1
    11    18    23    1
    12    16     7    1
    13     7     1    1
    14     8     2    1
    15     1    11    1
    16     1     2    1
    17     5    11    1
    18     5     6    1
    19     5     4    1
    20     2     3    1
    21     3     4    1
    22     3     9    1
    23     6    12    1
    24     4    10    1
