@<TRIPOS>MOLECULE
3k1o_HEM_A_1.pdb
 43 50 0 0 0
SMALL
GASTEIGER

@<TRIPOS>ATOM
      1  CHA      -37.5150    9.6580  -24.3970 C.2   488  HEM488      0.0000
      2  CHB      -36.6850    5.3650  -22.7590 C.2   488  HEM488      0.0000
      3  CHC      -32.3750    6.7050  -21.6890 C.2   488  HEM488      0.0000
      4  CHD      -33.4830   11.1300  -22.5020 C.2   488  HEM488      0.0000
      5  C1A      -37.5750    8.3860  -24.0170 C.2   488  HEM488      0.0000
      6  C2A      -38.7700    7.6410  -24.1830 C.2   488  HEM488      0.0000
      7  C3A      -38.5190    6.4610  -23.7330 C.2   488  HEM488      0.0000
      8  C4A      -37.1930    6.4630  -23.2750 C.2   488  HEM488      0.0000
      9  CMA      -39.4270    5.2450  -23.6590 C.3   488  HEM488      0.0000
     10  CAA      -40.0790    8.1420  -24.7960 C.3   488  HEM488      0.0000
     11  CBA      -40.8360    8.9810  -23.7870 C.3   488  HEM488      0.0000
     12  CGA      -42.2230    9.1540  -24.3030 C.2   488  HEM488      0.0000
     13  O1A      -42.4520    8.6550  -25.4060 O.co2 488  HEM488      0.0000
     14  O2A      -43.0900    9.7650  -23.6500 O.co2 488  HEM488      0.0000
     15  C1B      -35.4360    5.4330  -22.3630 C.ar  488  HEM488      0.0000
     16  C2B      -34.7550    4.2930  -21.8840 C.ar  488  HEM488      0.0000
     17  C3B      -33.5740    4.6720  -21.5910 C.ar  488  HEM488      0.0000
     18  C4B      -33.4940    6.0500  -21.8940 C.ar  488  HEM488      0.0000
     19  CMB      -35.2730    2.8760  -21.7230 C.3   488  HEM488      0.0000
     20  CAB      -32.4860    3.7760  -21.0380 C.2   488  HEM488      0.0000
     21  CBB      -32.6980    2.4730  -21.1120 C.2   488  HEM488      0.0000
     22  C1C      -32.3840    8.0130  -21.8190 C.2   488  HEM488      0.0000
     23  C2C      -31.2530    8.7940  -21.4810 C.2   488  HEM488      0.0000
     24  C3C      -31.5640   10.0080  -21.7150 C.2   488  HEM488      0.0000
     25  C4C      -32.8950    9.9960  -22.1760 C.2   488  HEM488      0.0000
     26  CMC      -29.9150    8.2930  -20.9650 C.3   488  HEM488      0.0000
     27  CAC      -30.6910   11.2400  -21.5220 C.2   488  HEM488      0.0000
     28  CBC      -29.4880   11.3130  -22.0840 C.2   488  HEM488      0.0000
     29  C1D      -34.6010   11.0670  -23.1860 C.ar  488  HEM488      0.0000
     30  C2D      -35.0150   12.1570  -23.9600 C.ar  488  HEM488      0.0000
     31  C3D      -36.2910   11.7110  -24.5640 C.ar  488  HEM488      0.0000
     32  C4D      -36.4640   10.3980  -24.0640 C.ar  488  HEM488      0.0000
     33  CMD      -34.2960   13.4840  -24.1280 C.3   488  HEM488      0.0000
     34  CAD      -37.1770   12.5030  -25.5160 C.3   488  HEM488      0.0000
     35  CBD      -38.5240   12.7550  -24.8910 C.3   488  HEM488      0.0000
     36  CGD      -39.1910   13.6170  -25.8910 C.2   488  HEM488      0.0000
     37  O1D      -38.5880   13.8150  -26.9450 O.co2 488  HEM488      0.0000
     38  O2D      -40.2960   14.0980  -25.6470 O.co2 488  HEM488      0.0000
     39  NA       -36.5670    7.6630  -23.4380 N.2   488  HEM488      0.0000
     40  NB       -34.6570    6.5590  -22.3810 N.ar  488  HEM488      0.0000
     41  NC       -33.4370    8.7440  -22.2550 N.2   488  HEM488      0.0000
     42  ND       -35.4480    9.9910  -23.2360 N.ar  488  HEM488      0.0000
     43 FE        -34.9600    8.1570  -22.8780 Fe    488  HEM488      0.0000
@<TRIPOS>BOND
     1    37    36   ar
     2    36    38   ar
     3    36    35    1
     4    34    35    1
     5    34    31    1
     6    13    12   ar
     7    10     6    1
     8    10    11    1
     9    31    32   ar
    10    31    30   ar
    11     1    32    2
    12     1     5    1
    13    12    11    1
    14    12    14   ar
    15     6     5    1
    16     6     7    2
    17    33    30    1
    18    32    42   ar
    19     5    39    2
    20    30    29   ar
    21     7     9    1
    22     7     8    1
    23    39     8    1
    24    39    43    1
    25     8     2    2
    26    42    29   ar
    27    42    43    1
    28    29     4    2
    29    43    40    1
    30    43    41    1
    31     2    15    1
    32     4    25    1
    33    40    15   ar
    34    40    18   ar
    35    15    16   ar
    36    41    25    2
    37    41    22    1
    38    25    24    1
    39    28    27    2
    40    18     3    1
    41    18    17   ar
    42    16    19    1
    43    16    17   ar
    44    22     3    2
    45    22    23    1
    46    24    27    1
    47    24    23    2
    48    17    20    1
    49    23    26    1
    50    21    20    2
