@<TRIPOS>MOLECULE
3k1w_HSQ_B_1.pdb
 14 14 0 0 0
SMALL
GASTEIGER

@<TRIPOS>ATOM
      1  C1       -30.2440  -21.7740  -11.4000 C.3   345  HSQ345      0.1665
      2  C2       -29.2090  -22.8770  -11.7330 C.3   345  HSQ345      0.1576
      3  C3       -29.3930  -24.2540  -11.0490 C.3   345  HSQ345      0.2069
      4  C4       -30.6710  -24.4390  -10.2110 C.3   345  HSQ345      0.2134
      5  C5       -31.1750  -23.0910   -9.6910 C.3   345  HSQ345      0.1809
      6  C6       -32.3580  -23.1780   -8.7230 C.3   345  HSQ345      0.2141
      7  C7       -29.9090  -23.1080  -14.1530 C.2   345  HSQ345      0.2420
      8  C8       -30.9950  -24.1520  -14.1270 C.3   345  HSQ345      0.0964
      9  N2       -28.9980  -23.0750  -13.1690 N.am  345  HSQ345     -0.2019
     10  O3       -28.2470  -24.5320  -10.2670 O.3   345  HSQ345     -0.2184
     11  O4       -31.6640  -25.0630  -11.0050 O.3   345  HSQ345     -0.2176
     12  O5       -31.4460  -22.2600  -10.8090 O.3   345  HSQ345     -0.3489
     13  O6       -33.5490  -23.5040   -9.4080 O.3   345  HSQ345     -0.2176
     14  O7       -29.8570  -22.3160  -15.0980 O.2   345  HSQ345     -0.2733
@<TRIPOS>BOND
     1    14     7    2
     2     7     8    1
     3     7     9   am
     4     9     2    1
     5     2     1    1
     6     2     3    1
     7     1    12    1
     8     3    10    1
     9     3     4    1
    10    11     4    1
    11    12     5    1
    12     4     5    1
    13     5     6    1
    14    13     6    1
