@<TRIPOS>MOLECULE
3k1w_BFX_A_1.pdb
 38 42 0 0 0
SMALL
GASTEIGER

@<TRIPOS>ATOM
      1 BR1         2.1780    8.9280   -5.4010 Br    342  BFX342     -0.0458
      2  C2         1.3120    8.2850   -3.8490 C.ar  342  BFX342      0.0686
      3  C3         2.0700    7.5140   -3.0190 C.ar  342  BFX342      0.1469
      4  C4        -0.0040    8.5820   -3.5690 C.ar  342  BFX342      0.0120
      5  O5         3.3540    7.2350   -3.3450 O.3   342  BFX342     -0.4749
      6  C6         1.4940    6.9920   -1.8660 C.ar  342  BFX342      0.0670
      7  C7        -0.5920    8.0840   -2.4070 C.ar  342  BFX342      0.0303
      8  C8         4.0170    6.1600   -2.6800 C.3   342  BFX342      0.2058
      9  C9         0.1680    7.2940   -1.5750 C.ar  342  BFX342      0.1432
     10  C10        5.4780    6.2160   -3.0500 C.3   342  BFX342      0.0520
     11  F11       -0.3890    6.8000   -0.4550 F     342  BFX342     -0.2041
     12  C12        6.1720    4.9960   -2.4640 C.3   342  BFX342      0.0302
     13  C13        6.4140    5.0880   -0.9550 C.ar  342  BFX342     -0.0221
     14  C14        5.8070    4.1830   -0.0760 C.ar  342  BFX342     -0.0043
     15  C15        7.2700    6.0520   -0.4500 C.ar  342  BFX342     -0.0043
     16  C16        6.0210    4.2240    1.3040 C.ar  342  BFX342     -0.0006
     17  C17        7.4940    6.1150    0.9220 C.ar  342  BFX342     -0.0006
     18  C18        6.8860    5.2100    1.8030 C.ar  342  BFX342     -0.0041
     19  C19        7.2110    5.3410    3.2660 C.2   342  BFX342     -0.0190
     20  C20        6.3130    5.4270    4.2730 C.2   342  BFX342      0.0449
     21  C21        8.7040    5.3120    3.5470 C.3   342  BFX342      0.0450
     22  C22        4.9110    5.1120    4.0630 C.2   342  BFX342      0.2463
     23  C23        6.7180    5.7760    5.6910 C.3   342  BFX342      0.1192
     24  C24        9.0220    5.2000    5.0310 C.3   342  BFX342      0.0938
     25  O25        4.5100    4.0540    4.5400 O.2   342  BFX342     -0.2702
     26  N26        4.1050    5.9340    3.3790 N.am  342  BFX342     -0.2738
     27  N27        8.1450    6.0560    5.8120 N.3   342  BFX342     -0.2128
     28  C28        4.5470    7.1970    2.7550 C.3   342  BFX342      0.0760
     29  C29        2.7160    5.5400    3.0900 C.3   342  BFX342      0.1212
     30  C30        5.0260    8.2730    3.7360 C.3   342  BFX342      0.0215
     31  C31        3.6320    8.3660    3.1460 C.3   342  BFX342      0.0215
     32  C32        1.7600    5.7870    4.2510 C.ar  342  BFX342      0.0083
     33  C33        0.4090    5.5320    4.1120 C.ar  342  BFX342      0.0553
     34  C34        2.1720    6.3120    5.4720 C.ar  342  BFX342     -0.0018
     35 CL35       -0.2230    4.8750    2.5890 Cl    342  BFX342     -0.0825
     36  C36       -0.5270    5.7610    5.1020 C.ar  342  BFX342      0.0111
     37  C37        1.2440    6.5370    6.5020 C.ar  342  BFX342     -0.0002
     38  C38       -0.1100    6.2690    6.3050 C.ar  342  BFX342      0.0008
@<TRIPOS>BOND
     1     1     2    1
     2     2     4   ar
     3     2     3   ar
     4     4     7   ar
     5     5     3    1
     6     5     8    1
     7    10     8    1
     8    10    12    1
     9     3     6   ar
    10    12    13    1
    11     7     9   ar
    12     6     9   ar
    13     9    11    1
    14    13    15   ar
    15    13    14   ar
    16    15    17   ar
    17    14    16   ar
    18    17    18   ar
    19    16    18   ar
    20    18    19    1
    21    35    33    1
    22    28    31    1
    23    28    26    1
    24    28    30    1
    25    29    26    1
    26    29    32    1
    27    31    30    1
    28    19    21    1
    29    19    20    2
    30    26    22   am
    31    21    24    1
    32    22    20    1
    33    22    25    2
    34    33    32   ar
    35    33    36   ar
    36    32    34   ar
    37    20    23    1
    38    24    27    1
    39    36    38   ar
    40    34    37   ar
    41    23    27    1
    42    38    37   ar
