@<TRIPOS>MOLECULE
3k1x_DBX_A_1.pdb
 12 12 0 0 0
SMALL
GASTEIGER

@<TRIPOS>ATOM
      1  C1        39.5560   40.0640   57.2620 C.ar  131  DBX131      0.1542
      2  O1        38.1910   38.4990   56.0840 O.3   131  DBX131     -0.0649
      3  S1        39.1430   38.5430   57.2200 S.3   131  DBX131      0.0452
      4  C2        39.6890   40.7230   58.4250 C.ar  131  DBX131      0.2134
      5  O2        38.3730   37.9960   58.3520 O.3   131  DBX131     -0.0649
      6  C3        39.8000   40.7110   56.0740 C.ar  131  DBX131      0.0642
      7  O3        40.4180   37.7560   57.0480 O.3   131  DBX131     -0.0649
      8  C4        40.2930   42.7310   57.2250 C.ar  131  DBX131      0.0454
      9  O4        39.4770   40.0680   59.5750 O.3   131  DBX131     -0.2852
     10  C5        40.1700   42.0420   56.0570 C.ar  131  DBX131      0.1973
     11  O5        40.3900   42.6740   54.8660 O.3   131  DBX131     -0.2865
     12  C6        40.0410   42.0630   58.3980 C.ar  131  DBX131      0.0467
@<TRIPOS>BOND
     1    11    10    1
     2    10     6   ar
     3    10     8   ar
     4     6     1   ar
     5     2     3    1
     6     7     3    1
     7     3     1    1
     8     3     5    1
     9     8    12   ar
    10     1     4   ar
    11    12     4   ar
    12     4     9    1
