@<TRIPOS>MOLECULE
3k22_JZS_A_1.pdb
 36 38 0 0 0
SMALL
GASTEIGER

@<TRIPOS>ATOM
      1  C1       -22.8280   33.2100   10.9460 C.3     1  JZS1        0.0334
      2  F1       -16.8810   26.7220   20.5400 F       1  JZS1       -0.1671
      3  N1       -22.0060   31.4680   12.4190 N.am    1  JZS1       -0.1940
      4  O1       -21.4610   31.6420   14.6400 O.2     1  JZS1       -0.2684
      5  C2       -22.1110   32.8860   12.2250 C.3     1  JZS1        0.1747
      6  F2       -15.8800   26.2100   22.3890 F       1  JZS1       -0.1671
      7  N2       -21.1700   26.8370   16.0230 N.ar    1  JZS1       -0.2296
      8  O2       -17.5590   24.2250   21.4590 O.3     1  JZS1       -0.2060
      9  C3       -21.8320   30.9940   13.6820 C.2     1  JZS1        0.2652
     10  F3       -17.5080   27.6330   22.4200 F       1  JZS1       -0.1671
     11  N3       -20.0480   26.1760   15.7320 N.ar    1  JZS1       -0.1635
     12  O3       -20.4170   34.5550   12.1040 O.2     1  JZS1       -0.2698
     13  C4       -22.1160   29.5780   13.8490 C.ar    1  JZS1        0.0565
     14  F4       -17.0070   25.2130   24.1270 F       1  JZS1       -0.1671
     15  N4       -19.2800   25.4900   19.9980 N.pl3   1  JZS1       -0.2343
     16  C5       -22.9850   28.9590   12.9890 C.ar    1  JZS1        0.0047
     17  F5       -18.6900   23.9170   23.7500 F       1  JZS1       -0.1671
     18  N5       -19.8260   32.3630   11.9010 N.am    1  JZS1       -0.0863
     19  C6       -23.2460   27.6230   13.1550 C.ar    1  JZS1        0.0017
     20  F6       -19.0000   26.0420   24.1000 F       1  JZS1       -0.1671
     21  C7       -22.6420   26.9220   14.1690 C.ar    1  JZS1        0.0192
     22  C8       -21.7790   27.5670   15.0150 C.ar    1  JZS1        0.0829
     23  C9       -21.4980   28.9000   14.8690 C.ar    1  JZS1        0.0237
     24  C10      -19.5610   25.8280   16.9170 C.ar    1  JZS1        0.1233
     25  C11      -20.3820   26.2600   17.9740 C.ar    1  JZS1        0.0534
     26  C12      -20.3200   26.1470   19.3430 C.ar    1  JZS1        0.0681
     27  C13      -19.3850   25.7250   21.4160 C.3     1  JZS1        0.1598
     28  C14      -18.0610   25.3940   22.0550 C.3     1  JZS1        0.3179
     29  C15      -17.0730   26.4990   21.8480 C.3     1  JZS1        0.4324
     30  C16      -18.1990   25.1410   23.5190 C.3     1  JZS1        0.4324
     31  C17      -21.3590   26.7260   20.0200 C.ar    1  JZS1        0.0120
     32  C18      -22.3900   27.3740   19.3910 C.ar    1  JZS1       -0.0191
     33  C19      -23.4720   27.9730   20.2040 C.3     1  JZS1        0.0311
     34  C20      -22.4590   27.4930   18.0300 C.ar    1  JZS1        0.0150
     35  C21      -21.4210   26.9120   17.3600 C.ar    1  JZS1        0.0852
     36  C22      -20.7120   33.3760   12.0740 C.2     1  JZS1        0.2806
@<TRIPOS>BOND
     1     1     5    1
     2    18    36   am
     3    36    12    2
     4    36     5    1
     5     5     3    1
     6     3     9   am
     7    16    19   ar
     8    16    13   ar
     9    19    21   ar
    10     9    13    1
    11     9     4    2
    12    13    23   ar
    13    21    22   ar
    14    23    22   ar
    15    22     7    1
    16    11     7   ar
    17    11    24   ar
    18     7    35   ar
    19    24    25   ar
    20    35    25   ar
    21    35    34   ar
    22    25    26   ar
    23    34    32   ar
    24    26    15    1
    25    26    31   ar
    26    32    31   ar
    27    32    33    1
    28    15    27    1
    29     2    29    1
    30    27    28    1
    31     8    28    1
    32    29    28    1
    33    29     6    1
    34    29    10    1
    35    28    30    1
    36    30    17    1
    37    30    20    1
    38    30    14    1
