@<TRIPOS>MOLECULE
3k22_JZR_A_1.pdb
 18 18 0 0 0
SMALL
GASTEIGER

@<TRIPOS>ATOM
      1  C1       -20.3820   17.2500   28.9970 C.3   1731  JZR1731     0.2695
      2  O1       -20.5490   17.9850   27.7690 O.3   1731  JZR1731    -0.3286
      3  C2       -19.6580   17.9020   30.1830 C.3   1731  JZR1731     0.2406
      4  O2       -18.6780   18.8430   29.7400 O.3   1731  JZR1731    -0.2149
      5  C3       -18.9620   16.8380   31.0110 C.3   1731  JZR1731     0.2198
      6  O3       -18.3910   17.4220   32.1840 O.3   1731  JZR1731    -0.2174
      7  C4       -19.9900   15.7770   31.3720 C.3   1731  JZR1731     0.2144
      8  O4       -19.4260   14.8380   32.2960 O.3   1731  JZR1731    -0.2176
      9  C5       -20.4580   15.0760   30.0980 C.3   1731  JZR1731     0.1835
     10  O5       -21.0720   16.0050   29.1900 O.3   1731  JZR1731    -0.3256
     11  C6       -21.4480   13.9530   30.4100 C.3   1731  JZR1731     0.2142
     12  O6       -22.6400   14.4710   31.0130 O.3   1731  JZR1731    -0.2176
     13  C1'      -21.7960   17.8230   27.0860 C.3   1731  JZR1731     0.1449
     14  C2'      -21.6380   18.1140   25.5920 C.3   1731  JZR1731     0.0322
     15  C3'      -21.5670   19.6070   25.2680 C.3   1731  JZR1731     0.0026
     16  C4'      -22.4590   19.9820   24.0830 C.3   1731  JZR1731     0.0001
     17  C5'      -21.9580   21.2030   23.3040 C.3   1731  JZR1731     0.0000
     18  C6'      -22.5890   22.5030   23.7580 C.3   1731  JZR1731     0.0000
@<TRIPOS>BOND
     1    17    18    1
     2    17    16    1
     3    16    15    1
     4    15    14    1
     5    14    13    1
     6    13     2    1
     7     2     1    1
     8     1    10    1
     9     1     3    1
    10    10     9    1
    11     4     3    1
    12     9    11    1
    13     9     7    1
    14     3     5    1
    15    11    12    1
    16     5     7    1
    17     5     6    1
    18     7     8    1
