@<TRIPOS>MOLECULE
3k23_JZN_A_1.pdb
 47 51 0 0 0
SMALL
GASTEIGER

@<TRIPOS>ATOM
      1  C1        61.0690    1.1580   -6.9920 C.3     1  JZN1        0.2525
      2  F1        60.9970    5.9700  -10.4830 F       1  JZN1       -0.2042
      3  N1        61.4420    5.2510   -4.7570 N.pl3   1  JZN1       -0.2346
      4  O1        61.8220    1.1090   -8.1950 O.3     1  JZN1       -0.4717
      5  C2        61.6770    2.3600   -8.7480 C.ar    1  JZN1        0.1348
      6  F2        64.3560    3.5060   -3.5300 F       1  JZN1       -0.1674
      7  N2        58.1520    6.9810   -2.1160 N.ar    1  JZN1       -0.2296
      8  O2        63.8520    5.2140   -4.8970 O.3     1  JZN1       -0.2150
      9  C3        60.4940    2.5910   -9.4080 C.ar    1  JZN1        0.0389
     10  F3        62.4090    2.6410   -3.9310 F       1  JZN1       -0.1674
     11  N3        59.2510    7.7300   -1.9610 N.ar    1  JZN1       -0.1635
     12  O3        57.3310    5.0990    2.2140 O.2     1  JZN1       -0.2699
     13  C4        60.2640    3.8120   -9.9930 C.ar    1  JZN1        0.0327
     14  F4        64.1960    1.9570   -5.0160 F       1  JZN1       -0.1674
     15  N4        55.3070    5.6790    3.0210 N.am    1  JZN1       -0.2694
     16  O4        53.5210    7.3220    3.7490 O.2     1  JZN1       -0.2699
     17  C5        61.2290    4.7830   -9.9100 C.ar    1  JZN1        0.1400
     18  N5        54.1880    6.9720    5.9250 N.am    1  JZN1       -0.0863
     19  C6        62.4160    4.5490   -9.2530 C.ar    1  JZN1        0.0283
     20  C7        62.6600    3.3290   -8.6550 C.ar    1  JZN1        0.0135
     21  C8        63.9720    3.1200   -7.9550 C.3     1  JZN1        0.0246
     22  C9        64.2110    1.6880   -7.5510 C.3     1  JZN1        0.0046
     23  C10       65.0530    3.4130   -8.9720 C.3     1  JZN1        0.0046
     24  C11       64.2410    4.0700   -6.8050 C.3     1  JZN1        0.0450
     25  C12       63.3480    4.0930   -5.5800 C.3     1  JZN1        0.2329
     26  C13       61.8910    4.3840   -5.8380 C.3     1  JZN1        0.1510
     27  C14       60.1180    5.1090   -4.3360 C.ar    1  JZN1        0.0681
     28  C15       59.2480    4.1260   -4.7440 C.ar    1  JZN1        0.0120
     29  C16       57.9580    4.0540   -4.2850 C.ar    1  JZN1       -0.0191
     30  C17       57.1040    2.9450   -4.7960 C.3     1  JZN1        0.0311
     31  C18       57.4460    4.9610   -3.3880 C.ar    1  JZN1        0.0150
     32  C19       58.3160    5.9350   -2.9810 C.ar    1  JZN1        0.0852
     33  C20       60.1410    7.1510   -2.7700 C.ar    1  JZN1        0.1233
     34  C21       59.6130    6.0200   -3.4320 C.ar    1  JZN1        0.0534
     35  C22       57.0940    7.1040   -1.2360 C.ar    1  JZN1        0.0829
     36  C23       56.0100    7.8940   -1.5430 C.ar    1  JZN1        0.0192
     37  C24       54.9750    7.9740   -0.6340 C.ar    1  JZN1        0.0017
     38  C25       55.0290    7.2760    0.5560 C.ar    1  JZN1        0.0046
     39  C26       56.1290    6.4940    0.8350 C.ar    1  JZN1        0.0551
     40  C27       57.1710    6.4040   -0.0610 C.ar    1  JZN1        0.0237
     41  C28       56.2870    5.7140    2.0690 C.2     1  JZN1        0.2494
     42  C29       54.9100    4.3540    3.3960 C.3     1  JZN1        0.0942
     43  C30       55.6640    3.9990    4.6620 C.3     1  JZN1        0.0237
     44  C31       56.0550    5.3100    5.2610 C.3     1  JZN1        0.0311
     45  C32       55.6380    6.3440    4.2390 C.3     1  JZN1        0.1554
     46  C33       54.3300    6.9350    4.5750 C.2     1  JZN1        0.2788
     47  C34       63.5650    3.0350   -4.5270 C.3     1  JZN1        0.4243
@<TRIPOS>BOND
     1     2    17    1
     2    13    17   ar
     3    13     9   ar
     4    17    19   ar
     5     9     5   ar
     6    19    20   ar
     7    23    21    1
     8     5    20   ar
     9     5     4    1
    10    20    21    1
    11     4     1    1
    12    21    22    1
    13    21    24    1
    14    24    25    1
    15    26    25    1
    16    26     3    1
    17    25     8    1
    18    25    47    1
    19    14    47    1
    20    30    29    1
    21     3    27    1
    22    28    27   ar
    23    28    29   ar
    24    47    10    1
    25    47     6    1
    26    27    34   ar
    27    29    31   ar
    28    34    32   ar
    29    34    33   ar
    30    31    32   ar
    31    32     7   ar
    32    33    11   ar
    33     7    11   ar
    34     7    35    1
    35    36    35   ar
    36    36    37   ar
    37    35    40   ar
    38    37    38   ar
    39    40    39   ar
    40    38    39   ar
    41    39    41    1
    42    41    12    2
    43    41    15   am
    44    15    42    1
    45    15    45    1
    46    42    43    1
    47    16    46    2
    48    45    46    1
    49    45    44    1
    50    46    18   am
    51    43    44    1
