@<TRIPOS>MOLECULE
3k24_III_C_1.pdb
 22 21 0 0 0
SMALL
GASTEIGER

@<TRIPOS>ATOM
      1  N          8.7900   15.1940  -16.5560 N.3   109  GLN109     -0.1231
      2  CA         9.5770   14.0260  -16.0590 C.3   109  GLN109      0.1698
      3  C          8.7370   13.1230  -15.1600 C.2   109  GLN109      0.2592
      4  O          7.9930   13.5980  -14.3020 O.2   109  GLN109     -0.2718
      5  CB        10.8340   14.4860  -15.3120 C.3   109  GLN109      0.0381
      6  CG        11.5610   15.6650  -15.9550 C.3   109  GLN109      0.0905
      7  CD        12.3300   15.2740  -17.2060 C.2   109  GLN109      0.2608
      8  OE1       13.4520   14.7700  -17.1280 O.2   109  GLN109     -0.2717
      9  NE2       11.7540   15.5640  -18.3680 N.am  109  GLN109     -0.0878
     10  N          8.8790   11.8160  -15.3530 N.am  110  LEU110     -0.1966
     11  CA         8.1790   10.8310  -14.5390 C.3   110  LEU110      0.1728
     12  C          9.1790   10.0480  -13.6910 C.2   110  LEU110      0.2616
     13  O         10.3120    9.8160  -14.1160 O.2   110  LEU110     -0.2715
     14  CB         7.3830    9.8830  -15.4370 C.3   110  LEU110      0.0311
     15  CG         7.0180   10.4520  -16.8080 C.3   110  LEU110      0.0022
     16  CD1        6.8450    9.3450  -17.8330 C.3   110  LEU110      0.0001
     17  CD2        5.7760   11.3300  -16.7400 C.3   110  LEU110      0.0001
     18  N          8.7870    9.7130  -12.4640 N.am  111  ALA111     -0.1977
     19  CA         9.7470    9.3000  -11.4440 C.3   111  ALA111      0.1597
     20  C          9.5230    7.8550  -11.0080 C.2   111  ALA111      0.2287
     21  O          8.4430    7.2990  -11.2040 O.2   111  ALA111     -0.2864
     22  CB         9.6900   10.2370  -10.2450 C.3   111  ALA111      0.0319
@<TRIPOS>BOND
     1     9     7   am
     2    16    15    1
     3     7     8    2
     4     7     6    1
     5    15    17    1
     6    15    14    1
     7     1     2    1
     8     2     5    1
     9     2     3    1
    10     6     5    1
    11    14    11    1
    12    10     3   am
    13    10    11    1
    14     3     4    2
    15    11    12    1
    16    13    12    2
    17    12    18   am
    18    18    19    1
    19    19    20    1
    20    19    22    1
    21    21    20    2
