@<TRIPOS>MOLECULE
3k26_III_B_1.pdb
 21 20 0 0 0
SMALL
GASTEIGER

@<TRIPOS>ATOM
      1  N        -18.7160   29.7240  -28.1530 N.3     4  LYS4       -0.1231
      2  CA       -17.3920   28.9570  -27.8320 C.3     4  LYS4        0.1693
      3  CB       -17.4560   27.5070  -27.3020 C.3     4  LYS4        0.0284
      4  CG       -16.8220   27.2250  -25.9100 C.3     4  LYS4       -0.0001
      5  CD       -16.8080   25.6970  -25.6010 C.3     4  LYS4       -0.0222
      6  CE       -16.1510   25.2840  -24.2570 C.3     4  LYS4       -0.0733
      7  NZ       -16.6480   24.0340  -23.5600 N.4     4  LYS4        0.3857
      8  C        -16.3870   28.9830  -28.9830 C.2     4  LYS4        0.2591
      9  O        -15.1880   29.0620  -28.7090 O.2     4  LYS4       -0.2718
     10  CM1      -16.9620   24.2060  -22.1250 C.3     4  LYS4       -0.0960
     11  CM2      -15.4650   23.1930  -23.5770 C.3     4  LYS4       -0.0960
     12  CM3      -17.7250   23.3590  -24.3340 C.3     4  LYS4       -0.0960
     13  N        -16.8800   28.9360  -30.2500 N.am    5  GLN5       -0.1979
     14  CA       -16.0680   29.1730  -31.5000 C.3     5  GLN5        0.1601
     15  C        -16.5450   30.3280  -32.4060 C.2     5  GLN5        0.2287
     16  O        -17.4690   31.0660  -32.0520 O.2     5  GLN5       -0.2864
     17  CB       -15.9980   27.9230  -32.3740 C.3     5  GLN5        0.0394
     18  CG       -16.0810   26.6320  -31.6020 C.3     5  GLN5        0.0908
     19  CD       -15.8040   25.4180  -32.4740 C.2     5  GLN5        0.2608
     20  OE1      -16.4340   25.2350  -33.5410 O.2     5  GLN5       -0.2717
     21  NE2      -14.8760   24.5700  -32.0170 N.am    5  GLN5       -0.0878
@<TRIPOS>BOND
     1    20    19    2
     2    19    21   am
     3    19    18    1
     4    15    16    2
     5    15    14    1
     6    17    18    1
     7    17    14    1
     8    14    13    1
     9    13     8   am
    10     8     9    2
    11     8     2    1
    12     1     2    1
    13     2     3    1
    14     3     4    1
    15     4     5    1
    16     5     6    1
    17    12     7    1
    18     6     7    1
    19    11     7    1
    20     7    10    1
