@<TRIPOS>MOLECULE
3k28_PLP_A_1.pdb
 15 15 0 0 0
SMALL
GASTEIGER

@<TRIPOS>ATOM
      1  N1        49.9990    8.4710   16.3000 N.ar  900  PLP900     -0.2452
      2  C2        49.0850    9.4200   16.7260 C.ar  900  PLP900      0.0978
      3  C2A       49.4900   10.3350   17.8290 C.3   900  PLP900      0.0555
      4  C3        47.8310    9.4850   16.1050 C.ar  900  PLP900      0.2049
      5  O3        46.8890   10.4270   16.5030 O.3   900  PLP900     -0.2857
      6  C4        47.5360    8.5420   15.0560 C.ar  900  PLP900      0.0182
      7  C4A       46.2110    8.6050   14.3890 C.3   900  PLP900      0.0342
      8  C5        48.4720    7.5370   14.7060 C.ar  900  PLP900      0.0261
      9  C6        49.6940    7.5300   15.3140 C.ar  900  PLP900      0.0965
     10  C5A       48.2270    6.4480   13.6550 C.3   900  PLP900      0.1815
     11  O4P       47.9770    6.9940   12.3840 O.3   900  PLP900     -0.2653
     12  P         47.1650    6.1310   11.3140 P.3   900  PLP900      0.5329
     13  O1P       47.7640    4.8070   11.2040 O.3   900  PLP900     -0.1145
     14  O2P       47.3560    6.8720   10.0180 O.2   900  PLP900     -0.2224
     15  O3P       45.7450    6.0100   11.7700 O.3   900  PLP900     -0.1145
@<TRIPOS>BOND
     1    14    12    2
     2    13    12    1
     3    12    15    1
     4    12    11    1
     5    11    10    1
     6    10     8    1
     7     7     6    1
     8     8     6   ar
     9     8     9   ar
    10     6     4   ar
    11     9     1   ar
    12     4     5    1
    13     4     2   ar
    14     1     2   ar
    15     2     3    1
