@<TRIPOS>MOLECULE
3k2b_NAD_A_1.pdb
 44 48 0 0 0
SMALL
GASTEIGER

@<TRIPOS>ATOM
      1  PA        29.4790  122.6110  142.6740 P.3   335  NAD335      0.2189
      2  O1A       30.9660  122.4020  142.7710 O.2   335  NAD335     -0.5170
      3  O2A       28.9000  122.5480  144.0750 O.3   335  NAD335     -0.4371
      4  O5B       28.7330  121.4910  141.8980 O.3   335  NAD335     -0.3112
      5  C5B       29.1090  121.1360  140.4780 C.3   335  NAD335      0.1813
      6  C4B       28.6750  119.7050  140.4450 C.3   335  NAD335      0.1821
      7  O4B       28.8020  119.1510  139.0940 O.3   335  NAD335     -0.3135
      8  C3B       29.3670  118.7310  141.3610 C.3   335  NAD335      0.2184
      9  O3B       28.4620  117.8840  142.0590 O.3   335  NAD335     -0.2174
     10  C2B       30.3280  117.9610  140.4460 C.3   335  NAD335      0.2570
     11  O2B       30.7510  116.6690  140.9620 O.3   335  NAD335     -0.2130
     12  C1B       29.4920  117.8830  139.1850 C.3   335  NAD335      0.3186
     13  N9A       30.2290  117.7380  137.8900 N.pl3 335  NAD335     -0.1439
     14  C8A       31.3500  118.3910  137.4190 C.3   335  NAD335      0.3377
     15  N7A       31.6900  117.9570  136.1990 N.2   335  NAD335     -0.2095
     16  C5A       30.7640  116.9920  135.8670 C.2   335  NAD335      0.2526
     17  C6A       30.5640  116.1390  134.7070 C.2   335  NAD335      0.4393
     18  N6A       31.3360  116.1400  133.6290 N.pl3 335  NAD335      0.2180
     19  N1A       29.5010  115.2780  134.7390 N.2   335  NAD335      0.0021
     20  C2A       28.6700  115.2310  135.8210 C.3   335  NAD335      0.5254
     21  N3A       28.7630  115.9730  136.9470 N.2   335  NAD335     -0.0055
     22  C4A       29.8430  116.8390  136.9000 C.2   335  NAD335      0.3518
     23  O3        29.0790  123.8740  141.8960 O.3   335  NAD335     -0.2703
     24  PN        27.9870  124.9370  141.9850 P.3   335  NAD335      0.2189
     25  O1N       28.5110  125.8900  142.9670 O.3   335  NAD335     -0.4371
     26  O2N       26.6960  124.2790  142.3110 O.2   335  NAD335     -0.5170
     27  O5D       27.9880  125.7130  140.5920 O.3   335  NAD335     -0.3112
     28  C5D       27.5080  124.9660  139.4410 C.3   335  NAD335      0.1813
     29  C4D       27.2730  125.9830  138.3500 C.3   335  NAD335      0.1799
     30  O4D       26.2750  126.9520  138.7700 O.3   335  NAD335     -0.3327
     31  C3D       28.5420  126.8210  137.9600 C.3   335  NAD335      0.2158
     32  O3D       28.4370  126.9820  136.4990 O.3   335  NAD335     -0.2175
     33  C2D       28.2720  128.1570  138.6870 C.3   335  NAD335      0.2309
     34  O2D       28.8250  129.2800  138.0140 O.3   335  NAD335     -0.2158
     35  C1D       26.7610  128.2790  138.6790 C.3   335  NAD335      0.2263
     36  N1N       26.1710  129.0730  139.8010 N.pl3 335  NAD335     -0.2787
     37  C2N       26.7220  128.9240  141.0650 C.3   335  NAD335      0.1244
     38  C3N       26.1680  129.6670  142.0880 C.2   335  NAD335      0.0544
     39  C7N       26.5990  129.6750  143.5690 C.2   335  NAD335      0.2818
     40  O7N       26.6800  130.7870  144.1380 O.2   335  NAD335     -0.2670
     41  N7N       26.8820  128.5810  144.1830 N.am  335  NAD335     -0.0839
     42  C4N       25.0630  130.5600  141.8590 C.2   335  NAD335      0.0033
     43  C5N       24.5700  130.6390  140.5190 C.2   335  NAD335      0.0157
     44  C6N       25.0720  129.9260  139.4340 C.2   335  NAD335      0.0633
@<TRIPOS>BOND
     1    18    17    1
     2    17    19    2
     3    17    16    1
     4    19    20    1
     5    20    21    1
     6    16    15    2
     7    16    22    1
     8    15    14    1
     9    32    31    1
    10    22    21    2
    11    22    13    1
    12    14    13    1
    13    13    12    1
    14    31    29    1
    15    31    33    1
    16    34    33    1
    17    29    30    1
    18    29    28    1
    19    35    33    1
    20    35    30    1
    21    35    36    1
    22     7    12    1
    23     7     6    1
    24    12    10    1
    25    44    36    1
    26    44    43    2
    27    28    27    1
    28    36    37    1
    29     6     5    1
    30     6     8    1
    31    10    11    1
    32    10     8    1
    33     5     4    1
    34    43    42    1
    35    27    24    1
    36    37    38    1
    37     8     9    1
    38    42    38    2
    39    23    24    1
    40    23     1    1
    41     4     1    1
    42    24    26    2
    43    24    25    1
    44    38    39    1
    45     1     2    2
    46     1     3    1
    47    39    40    2
    48    39    41   am
