@<TRIPOS>MOLECULE
3k2f_NKX_A_1.pdb
 33 34 0 0 0
SMALL
GASTEIGER

@<TRIPOS>ATOM
      1  CAA       -3.2360    6.7890   14.1940 C.3   264  NKX264      0.0258
      2  OAB       -7.0170    5.9590   12.9240 O.2   264  NKX264     -0.1682
      3  OAC       -5.2880    1.0350   18.1010 O.2   264  NKX264     -0.1498
      4  CAD       -4.2970    6.4700   13.1430 C.3   264  NKX264      0.1364
      5  SAE       -5.8840    5.9750   13.9000 S.O2  264  NKX264      0.0124
      6  CAF       -5.5960    4.3610   14.5190 C.ar  264  NKX264      0.1338
      7  SAG       -6.4610    3.5580   15.6960 S.2   264  NKX264     -0.0492
      8  CAH       -5.5530    2.2090   15.6930 C.ar  264  NKX264      0.1554
      9  SAI       -5.9310    0.8710   16.7560 S.O2  264  NKX264      0.0992
     10  NAJ       -5.4320   -0.3870   16.0890 N.3   264  NKX264      0.0397
     11  OAK       -6.2250    6.9120   15.0270 O.2   264  NKX264     -0.1682
     12  OAL       -7.5070    0.8350   16.9290 O.2   264  NKX264     -0.1498
     13  CAM       -3.8460    5.3110   12.2520 C.3   264  NKX264      0.0485
     14  CAN       -3.5040    3.9790   13.0060 C.3   264  NKX264      0.1045
     15  CAO       -4.5450    3.5160   14.0990 C.ar  264  NKX264      0.0210
     16  CAP       -4.5700    2.3380   14.7840 C.ar  264  NKX264      0.0258
     17  NAQ       -3.2390    2.9770   11.9360 N.am  264  NKX264     -0.2438
     18  CAR       -4.3770    2.1420   11.4930 C.3   264  NKX264      0.0970
     19  CAS       -5.1720    2.8920   10.4400 C.3   264  NKX264      0.0234
     20  OAT       -1.0430    3.5340   11.7060 O.2   264  NKX264     -0.2262
     21  CAU       -2.0190    2.8610   11.3740 C.2   264  NKX264      0.4052
     22  OAV       -1.8190    1.9600   10.3760 O.3   264  NKX264     -0.4303
     23  CAW       -0.5590    2.1990    9.6040 C.3   264  NKX264      0.2604
     24  OAX       -0.4810    4.5570    6.6470 O.2   264  NKX264     -0.0900
     25  CAY        0.1840    3.5720    9.4300 C.3   264  NKX264      0.2904
     26  OAZ       -0.7160    4.6640    9.0720 O.2   264  NKX264     -0.3316
     27  NBA       -1.2960    4.6320    7.8250 N.pl3 264  NKX264      0.2182
     28  OBB       -2.7450    4.7140    7.7010 O.2   264  NKX264     -0.0900
     29  CBC        1.4000    3.4910    8.4660 C.3   264  NKX264      0.2932
     30  OBD        2.6230    3.8780    9.1160 O.2   264  NKX264     -0.3315
     31  NBE        3.6180    3.9680    8.1930 N.pl3 264  NKX264      0.2182
     32  OBF        3.8240    5.1940    7.4930 O.2   264  NKX264     -0.0900
     33  OBG        4.4630    2.8450    7.9170 O.2   264  NKX264     -0.0900
@<TRIPOS>BOND
     1    24    27    2
     2    32    31    2
     3    28    27    2
     4    27    26    1
     5    33    31    2
     6    31    30    1
     7    29    30    1
     8    29    25    1
     9    26    25    1
    10    25    23    1
    11    23    22    1
    12    22    21    1
    13    19    18    1
    14    21    20    2
    15    21    17   am
    16    18    17    1
    17    17    14    1
    18    13    14    1
    19    13     4    1
    20     2     5    2
    21    14    15    1
    22     4     5    1
    23     4     1    1
    24     5     6    1
    25     5    11    2
    26    15     6   ar
    27    15    16   ar
    28     6     7   ar
    29    16     8   ar
    30     8     7   ar
    31     8     9    1
    32    10     9    1
    33     9    12    2
    34     9     3    2
