@<TRIPOS>MOLECULE
3k2h_NAP_A_1.pdb
 48 52 0 0 0
SMALL
GASTEIGER

@<TRIPOS>ATOM
      1  PA         8.5100    9.2970  -18.5120 P.3   515  NAP515      0.2189
      2  O1A        7.8620    7.9370  -18.3250 O.2   515  NAP515     -0.5170
      3  O2A        9.8500    9.6600  -17.8490 O.3   515  NAP515     -0.4371
      4  O5B        7.3760   10.3550  -18.0020 O.3   515  NAP515     -0.3112
      5  C5B        7.4140   11.7470  -18.3430 C.3   515  NAP515      0.1813
      6  C4B        6.7190   12.5140  -17.2340 C.3   515  NAP515      0.1820
      7  O4B        7.0430   11.8670  -16.0050 O.3   515  NAP515     -0.3136
      8  C3B        7.1550   13.9670  -17.0560 C.3   515  NAP515      0.2157
      9  O3B        6.4880   14.8830  -17.9200 O.3   515  NAP515     -0.2175
     10  C2B        6.8950   14.2300  -15.5820 C.3   515  NAP515      0.2314
     11  O2B        5.5600   14.5430  -15.1390 O.3   515  NAP515     -0.2630
     12  C1B        7.1220   12.8440  -14.9590 C.3   515  NAP515      0.3158
     13  N9A        8.3750   12.7020  -14.1420 N.pl3 515  NAP515     -0.1439
     14  C8A        9.4590   11.9150  -14.3440 C.3   515  NAP515      0.3377
     15  N7A       10.3410   12.1120  -13.3270 N.2   515  NAP515     -0.2095
     16  C5A        9.7930   13.0250  -12.4710 C.2   515  NAP515      0.2526
     17  C6A       10.1740   13.6310  -11.2540 C.2   515  NAP515      0.4393
     18  N6A       11.3460   13.3870  -10.6100 N.pl3 515  NAP515      0.2180
     19  N1A        9.3260   14.5160  -10.6860 N.2   515  NAP515      0.0021
     20  C2A        8.1360   14.8240  -11.2360 C.3   515  NAP515      0.5254
     21  N3A        7.7390   14.2680  -12.3790 N.2   515  NAP515     -0.0055
     22  C4A        8.5480   13.3730  -13.0040 C.2   515  NAP515      0.3518
     23  O3         8.5690    9.7670  -20.0820 O.3   515  NAP515     -0.2703
     24  PN         9.4910    9.2970  -21.3450 P.3   515  NAP515      0.2189
     25  O1N       10.9650    9.5220  -21.0010 O.3   515  NAP515     -0.4371
     26  O2N        8.8880    9.9630  -22.5750 O.2   515  NAP515     -0.5170
     27  O5D        9.2200    7.7040  -21.3890 O.3   515  NAP515     -0.3112
     28  C5D        8.0660    7.1250  -21.9890 C.3   515  NAP515      0.1813
     29  C4D        8.5420    6.4340  -23.2560 C.3   515  NAP515      0.1799
     30  O4D        9.6470    5.5570  -22.9600 O.3   515  NAP515     -0.3327
     31  C3D        7.4500    5.5640  -23.8270 C.3   515  NAP515      0.2158
     32  O3D        7.6360    5.6240  -25.2470 O.3   515  NAP515     -0.2175
     33  C2D        7.7380    4.1730  -23.2720 C.3   515  NAP515      0.2309
     34  O2D        7.2080    3.1470  -24.1230 O.3   515  NAP515     -0.2158
     35  C1D        9.2710    4.1880  -23.2120 C.3   515  NAP515      0.2263
     36  N1N        9.8960    3.3100  -22.2130 N.pl3 515  NAP515     -0.2787
     37  C2N       10.6160    2.2260  -22.6290 C.3   515  NAP515      0.1244
     38  C3N       11.2470    1.3870  -21.6930 C.2   515  NAP515      0.0544
     39  C7N       12.0410    0.1570  -22.0960 C.2   515  NAP515      0.2818
     40  O7N       12.6990   -0.4170  -21.2520 O.2   515  NAP515     -0.2670
     41  N7N       11.9940   -0.3030  -23.3470 N.am  515  NAP515     -0.0839
     42  C4N       11.1260    1.6960  -20.3400 C.2   515  NAP515      0.0033
     43  C5N       10.3870    2.8080  -19.9460 C.2   515  NAP515      0.0157
     44  C6N        9.7870    3.6150  -20.9060 C.2   515  NAP515      0.0633
     45  P2B        4.2800   15.4020  -15.6720 P.3   515  NAP515      0.5328
     46  O1X        4.2500   16.5020  -14.6420 O.3   515  NAP515     -0.1145
     47  O2X        4.5190   15.8900  -17.0860 O.2   515  NAP515     -0.2224
     48  O3X        3.1200   14.4510  -15.5490 O.3   515  NAP515     -0.1145
@<TRIPOS>BOND
     1    32    31    1
     2    34    33    1
     3    31    33    1
     4    31    29    1
     5    41    39   am
     6    33    35    1
     7    29    30    1
     8    29    28    1
     9    35    30    1
    10    35    36    1
    11    37    36    1
    12    37    38    1
    13    26    24    2
    14    36    44    1
    15    39    38    1
    16    39    40    2
    17    28    27    1
    18    38    42    2
    19    27    24    1
    20    24    25    1
    21    24    23    1
    22    44    43    2
    23    42    43    1
    24    23     1    1
    25     1     2    2
    26     1     4    1
    27     1     3    1
    28     5     4    1
    29     5     6    1
    30     9     8    1
    31     6     8    1
    32     6     7    1
    33    47    45    2
    34     8    10    1
    35     7    12    1
    36    45    48    1
    37    45    11    1
    38    45    46    1
    39    10    11    1
    40    10    12    1
    41    12    13    1
    42    14    13    1
    43    14    15    1
    44    13    22    1
    45    15    16    2
    46    22    16    1
    47    22    21    2
    48    16    17    1
    49    21    20    1
    50    17    19    2
    51    17    18    1
    52    20    19    1
