@<TRIPOS>MOLECULE
3k2h_LYA_A_1.pdb
 31 33 0 0 0
SMALL
GASTEIGER

@<TRIPOS>ATOM
      1  C1        41.0240  -21.0190  -42.0710 C.ar  513  LYA513     -0.0219
      2  C2        42.2330  -20.4870  -42.5100 C.ar  513  LYA513     -0.0041
      3  C3        42.6000  -19.1860  -42.1910 C.ar  513  LYA513      0.0042
      4  C4        41.7500  -18.4000  -41.4150 C.ar  513  LYA513      0.0550
      5  C5        40.5290  -18.9140  -40.9510 C.ar  513  LYA513      0.0042
      6  C6        40.1650  -20.2410  -41.2760 C.ar  513  LYA513     -0.0041
      7  C7        40.6770  -22.4480  -42.4910 C.3   513  LYA513      0.0308
      8  C8        41.2920  -23.5250  -41.6160 C.3   513  LYA513      0.0302
      9  C9        42.7940  -23.6370  -41.7640 C.2   513  LYA513      0.0035
     10  C10       43.5080  -24.0630  -42.8900 C.3   513  LYA513      0.1609
     11  N11       44.8500  -24.0190  -42.5780 N.2   513  LYA513     -0.2042
     12  C12       44.9710  -23.5480  -41.3100 C.1   513  LYA513      0.1086
     13  C13       43.7260  -23.3080  -40.7710 C.2   513  LYA513      0.1635
     14  C14       43.6950  -22.8040  -39.3660 C.1   513  LYA513      0.2257
     15  O15       42.6060  -22.5660  -38.7690 O.2   513  LYA513     -0.2079
     16  N16       44.8830  -22.5970  -38.7110 N.2   513  LYA513     -0.2490
     17  C17       46.0600  -22.8700  -39.3130 C.1   513  LYA513      0.2607
     18  N18       46.1180  -23.3360  -40.5980 N.2   513  LYA513     -0.2698
     19  N19       47.1940  -22.6650  -38.6020 N.pl3 513  LYA513     -0.0220
     20  C20       42.1900  -16.9890  -41.1690 C.2   513  LYA513      0.2652
     21  O21       43.3080  -16.6670  -41.5480 O.2   513  LYA513     -0.2684
     22  N22       41.3130  -16.1120  -40.7050 N.am  513  LYA513     -0.1918
     23  C23       41.6250  -14.7070  -40.4520 C.3   513  LYA513      0.1986
     24  C24       41.3100  -13.8340  -41.6960 C.3   513  LYA513      0.0451
     25  C25       39.9260  -14.1180  -42.2530 C.3   513  LYA513      0.1164
     26  C26       39.5750  -13.2930  -43.4740 C.2   513  LYA513      0.3649
     27  O27       39.1290  -13.8800  -44.4880 O.co2 513  LYA513     -0.2457
     28  O28       39.7040  -12.0500  -43.4220 O.co2 513  LYA513     -0.2457
     29  C29       40.8030  -14.2170  -39.2870 C.2   513  LYA513      0.3842
     30  O30       39.7910  -14.8560  -38.8940 O.co2 513  LYA513     -0.2437
     31  O31       41.1720  -13.1550  -38.7730 O.co2 513  LYA513     -0.2437
@<TRIPOS>BOND
     1    27    26   ar
     2    26    28   ar
     3    26    25    1
     4    10    11    1
     5    10     9    1
     6    11    12    2
     7     2     3   ar
     8     2     1   ar
     9     7     1    1
    10     7     8    1
    11    25    24    1
    12     3     4   ar
    13     1     6   ar
    14     9     8    1
    15     9    13    2
    16    24    23    1
    17    21    20    2
    18     4    20    1
    19     4     5   ar
    20    12    13    1
    21    12    18    2
    22     6     5   ar
    23    20    22   am
    24    13    14    1
    25    22    23    1
    26    18    17    2
    27    23    29    1
    28    14    15    2
    29    14    16    2
    30    17    16    2
    31    17    19    1
    32    29    30   ar
    33    29    31   ar
