@<TRIPOS>MOLECULE
3k2h_UMP_A_1.pdb
 20 21 0 0 0
SMALL
GASTEIGER

@<TRIPOS>ATOM
      1  N1        42.8150  -26.0060  -38.2770 N.am  512  UMP512     -0.1790
      2  C2        41.6440  -25.5800  -37.6600 C.1   512  UMP512      0.2844
      3  N3        40.4310  -25.6590  -38.3230 N.2   512  UMP512     -0.2452
      4  C4        40.3840  -26.1190  -39.6170 C.1   512  UMP512      0.2182
      5  C5        41.5500  -26.5100  -40.2620 C.2   512  UMP512      0.1242
      6  C6        42.7850  -26.4420  -39.5870 C.2   512  UMP512      0.0928
      7  O2        41.6700  -25.1500  -36.5120 O.2   512  UMP512     -0.1918
      8  O4        39.2970  -26.1840  -40.1890 O.2   512  UMP512     -0.2085
      9  C1'       44.1130  -25.8210  -37.6070 C.3   512  UMP512      0.2090
     10  C2'       44.6140  -26.8110  -36.5690 C.3   512  UMP512      0.0874
     11  C3'       46.1230  -26.5500  -36.6570 C.3   512  UMP512      0.1857
     12  C4'       46.3190  -26.3090  -38.1500 C.3   512  UMP512      0.1774
     13  O3'       46.4600  -25.3700  -35.9150 O.3   512  UMP512     -0.2203
     14  O4'       45.0870  -25.7650  -38.6270 O.3   512  UMP512     -0.3339
     15  C5'       46.5790  -27.6030  -38.9050 C.3   512  UMP512      0.1858
     16  O5'       47.8510  -28.1240  -38.5840 O.3   512  UMP512     -0.2675
     17  P         48.0320  -29.7070  -38.2580 P.3   512  UMP512      0.5327
     18  OP1       47.5620  -30.5700  -39.3760 O.2   512  UMP512     -0.2224
     19  OP2       47.1810  -30.0350  -37.0420 O.3   512  UMP512     -0.1145
     20  OP3       49.4860  -29.9250  -37.9660 O.3   512  UMP512     -0.1145
@<TRIPOS>BOND
     1     5     4    1
     2     5     6    2
     3     8     4    2
     4     4     3    2
     5     6     1    1
     6    18    17    2
     7    15    16    1
     8    15    12    1
     9    14    12    1
    10    14     9    1
    11    16    17    1
    12     3     2    2
    13     1     2   am
    14     1     9    1
    15    17    20    1
    16    17    19    1
    17    12    11    1
    18     2     7    2
    19     9    10    1
    20    11    10    1
    21    11    13    1
