@<TRIPOS>MOLECULE
3k2p_JTH_A_1.pdb
 13 13 0 0 0
SMALL
GASTEIGER

@<TRIPOS>ATOM
      1  C1        -3.8190   22.0640   -0.8960 C.ar  1001  JTH1001     0.2727
      2  O1        -3.5520   20.8720   -1.1430 O.2   1001  JTH1001    -0.2797
      3  C2        -5.1050   22.4920   -0.8440 C.ar  1001  JTH1001     0.2372
      4  O2        -6.1040   21.6640   -1.1660 O.3   1001  JTH1001    -0.2830
      5  C3        -5.5800   23.7320   -0.5560 C.ar  1001  JTH1001     0.0412
      6  C4        -4.9670   24.8890   -0.2210 C.ar  1001  JTH1001    -0.0191
      7  C5        -3.6410   25.0170   -0.1100 C.ar  1001  JTH1001    -0.0008
      8  C6        -2.6440   24.1440   -0.2930 C.ar  1001  JTH1001     0.0452
      9  C7        -2.7310   22.8240   -0.5880 C.ar  1001  JTH1001     0.2375
     10  O7        -1.5760   22.2070   -0.6790 O.3   1001  JTH1001    -0.2830
     11  C41       -6.8110   26.0770    1.1520 C.3   1001  JTH1001     0.0047
     12  C42       -5.8200   26.1730    0.0060 C.3   1001  JTH1001     0.0225
     13  C43       -6.5750   26.5830   -1.2840 C.3   1001  JTH1001     0.0047
@<TRIPOS>BOND
     1    13    12    1
     2     4     3    1
     3     2     1    2
     4     1     3   ar
     5     1     9   ar
     6     3     5   ar
     7    10     9    1
     8     9     8   ar
     9     5     6   ar
    10     8     7   ar
    11     6     7   ar
    12     6    12    1
    13    12    11    1
