@<TRIPOS>MOLECULE
3k2r_V1A_A_1.pdb
 11 11 0 0 0
SMALL
GASTEIGER

@<TRIPOS>ATOM
      1  N1       -19.2080    7.4920   30.8830 N.4   1065  V1A1065    -0.1049
      2  O1       -18.4960    6.9510   31.8640 O.3   1065  V1A1065    -0.1154
      3  C2       -20.4120    6.9000   30.3510 C.3   1065  V1A1065     0.1369
      4  C3       -20.8080    7.9680   29.3580 C.1   1065  V1A1065    -0.0231
      5  S3       -21.9710    7.5670   28.0330 S.2   1065  V1A1065     0.0075
      6  N4       -19.9180    9.0850   29.2890 N.2   1065  V1A1065    -0.2197
      7  C5       -18.8000    8.7560   30.3020 C.3   1065  V1A1065     0.1647
      8  C6       -17.4310    8.6760   29.5950 C.3   1065  V1A1065     0.0443
      9  C7       -18.7930    9.8270   31.4150 C.3   1065  V1A1065     0.0443
     10  C8       -21.4910    6.6740   31.4370 C.3   1065  V1A1065     0.0328
     11  C9       -20.0760    5.6070   29.5970 C.3   1065  V1A1065     0.0328
@<TRIPOS>BOND
     1     5     4    2
     2     6     4    2
     3     6     7    1
     4     4     3    1
     5     8     7    1
     6    11     3    1
     7     7     1    1
     8     7     9    1
     9     3     1    1
    10     3    10    1
    11     1     2    1
