@<TRIPOS>MOLECULE
3k2v_CMK_A_1.pdb
 36 38 0 0 0
SMALL
GASTEIGER

@<TRIPOS>ATOM
      1  N1C      -16.4810   23.1320   87.6750 N.am    1  CMK1       -0.1778
      2  C2C      -16.4580   24.0070   88.7720 C.1     1  CMK1        0.2756
      3  N3C      -16.3520   23.4440   90.0440 N.2     1  CMK1       -0.3024
      4  C4C      -16.3280   22.0770   90.2740 C.2     1  CMK1        0.2346
      5  C5C      -16.3530   21.2000   89.1770 C.2     1  CMK1        0.0687
      6  C6C      -16.4370   21.7400   87.8810 C.2     1  CMK1        0.0836
      7  O2C      -16.4840   25.2420   88.6420 O.2     1  CMK1       -0.1925
      8  N4C      -16.2350   21.6690   91.5590 N.pl3   1  CMK1       -0.0921
      9  C1'      -16.5780   23.7290   86.2940 C.3     1  CMK1        0.2400
     10  C2'      -15.5580   23.1240   85.3200 C.3     1  CMK1        0.2319
     11  O2'      -14.3340   23.8640   85.4320 O.3     1  CMK1       -0.2157
     12  C3'      -16.2530   23.3340   83.9750 C.3     1  CMK1        0.2158
     13  C4'      -17.7510   23.2410   84.3290 C.3     1  CMK1        0.1799
     14  O4'      -17.8690   23.3820   85.8080 O.3     1  CMK1       -0.3320
     15  O3'      -15.9600   24.6300   83.4830 O.3     1  CMK1       -0.2175
     16  C5'      -18.3560   21.8760   84.0360 C.3     1  CMK1        0.1813
     17  O5'      -17.5810   20.8000   84.6290 O.3     1  CMK1       -0.3113
     18  PA       -17.2210   19.5250   83.6470 P.3     1  CMK1        0.2162
     19  O1A      -16.2830   19.9920   82.5890 O.2     1  CMK1       -0.5171
     20  O2A      -16.6370   18.4100   84.4560 O.3     1  CMK1       -0.4372
     21  O6       -20.2900   17.7560   82.0060 O.3     1  CMK1       -0.3228
     22  C2       -18.9890   18.3680   81.8300 C.3     1  CMK1        0.2907
     23  O2       -18.6860   19.1060   83.0520 O.3     1  CMK1       -0.2833
     24  C3       -17.9710   17.2480   81.5500 C.3     1  CMK1        0.1039
     25  C4       -18.4460   16.2370   80.4840 C.3     1  CMK1        0.1901
     26  O4       -17.4890   15.1420   80.3760 O.3     1  CMK1       -0.2201
     27  C5       -19.8360   15.7140   80.7740 C.3     1  CMK1        0.2118
     28  C6       -20.7460   16.9300   80.9010 C.3     1  CMK1        0.1837
     29  C7       -22.1800   16.5580   81.2500 C.3     1  CMK1        0.2143
     30  C1       -19.0070   19.4580   80.7420 C.2     1  CMK1        0.4155
     31  O1X      -19.6690   20.4830   81.0200 O.co2   1  CMK1       -0.2402
     32  O1Y      -18.3440   19.2970   79.6970 O.co2   1  CMK1       -0.2402
     33  O5       -19.8690   14.9340   81.9930 O.3     1  CMK1       -0.2177
     34  C8       -23.0970   17.7900   81.1940 C.3     1  CMK1        0.2174
     35  O8       -24.3500   17.4270   81.7690 O.3     1  CMK1       -0.2175
     36  O7       -22.6520   15.6040   80.3200 O.3     1  CMK1       -0.2176
@<TRIPOS>BOND
     1    32    30   ar
     2    36    29    1
     3    26    25    1
     4    25    27    1
     5    25    24    1
     6    30    31   ar
     7    30    22    1
     8    27    28    1
     9    27    33    1
    10    28    29    1
    11    28    21    1
    12    34    29    1
    13    34    35    1
    14    24    22    1
    15    22    21    1
    16    22    23    1
    17    19    18    2
    18    23    18    1
    19    15    12    1
    20    18    20    1
    21    18    17    1
    22    12    13    1
    23    12    10    1
    24    16    13    1
    25    16    17    1
    26    13    14    1
    27    10    11    1
    28    10     9    1
    29    14     9    1
    30     9     1    1
    31     1     6    1
    32     1     2   am
    33     6     5    2
    34     7     2    2
    35     2     3    2
    36     5     4    1
    37     3     4    2
    38     4     8    1
