@<TRIPOS>MOLECULE
3k2x_I5A_A_1.pdb
 17 18 0 0 0
SMALL
GASTEIGER

@<TRIPOS>ATOM
      1  I         24.6920  -35.4450    1.4230 I     164  I5A164     -0.0718
      2  N1        20.4210  -34.1240    2.8740 N.am  164  I5A164     -0.1778
      3  C2        19.4070  -33.4140    3.4000 C.1   164  I5A164      0.2756
      4  O2        18.8130  -33.8580    4.4180 O.2   164  I5A164     -0.1925
      5  N3        19.0120  -32.2350    2.8410 N.2   164  I5A164     -0.3024
      6  C4        19.6380  -31.7490    1.7570 C.2   164  I5A164      0.2346
      7  N4        19.2180  -30.5930    1.2450 N.pl3 164  I5A164     -0.0921
      8  C5        20.6970  -32.4630    1.1740 C.2   164  I5A164      0.0687
      9  C6        21.0740  -33.6730    1.7760 C.2   164  I5A164      0.0836
     10  C1'       20.7550  -35.4000    3.5370 C.3   164  I5A164      0.2400
     11  C2'       20.7760  -36.4890    2.4930 C.3   164  I5A164      0.2319
     12  O2'       19.6070  -37.3150    2.6210 O.3   164  I5A164     -0.2157
     13  C3'       22.0800  -37.2250    2.7180 C.3   164  I5A164      0.2141
     14  O3'       21.7200  -38.5390    3.1620 O.3   164  I5A164     -0.2176
     15  C4'       22.8680  -36.5070    3.8160 C.3   164  I5A164      0.1605
     16  O4'       22.0180  -35.4200    4.2140 O.3   164  I5A164     -0.3337
     17  C5'       24.1480  -35.7290    3.4760 C.3   164  I5A164      0.0947
@<TRIPOS>BOND
     1     8     6    1
     2     8     9    2
     3     7     6    1
     4     1    17    1
     5     6     5    2
     6     9     2    1
     7    11    12    1
     8    11    13    1
     9    11    10    1
    10    13    14    1
    11    13    15    1
    12     5     3    2
    13     2     3   am
    14     2    10    1
    15     3     4    2
    16    17    15    1
    17    10    16    1
    18    15    16    1
