@<TRIPOS>MOLECULE
3k30_ADP_A_1.pdb
 27 29 0 0 0
SMALL
GASTEIGER

@<TRIPOS>ATOM
      1  PB        48.6420   25.3680    7.2120 P.3   803  ADP803      0.5373
      2  O1B       47.4840   26.3160    7.2320 O.3   803  ADP803     -0.1143
      3  O2B       48.7370   24.3800    8.3370 O.3   803  ADP803     -0.1143
      4  O3B       48.7800   24.7830    5.8450 O.2   803  ADP803     -0.2221
      5  PA        51.4880   25.7500    7.3920 P.3   803  ADP803      0.2231
      6  O1A       51.6490   24.3070    7.1000 O.2   803  ADP803     -0.5169
      7  O2A       52.2600   26.3610    8.5380 O.3   803  ADP803     -0.4370
      8  O3A       49.9510   26.2550    7.3700 O.3   803  ADP803     -0.2261
      9  O5'       51.9520   26.4780    6.0570 O.3   803  ADP803     -0.3111
     10  C5'       52.0290   27.8830    5.9490 C.3   803  ADP803      0.1813
     11  C4'       53.0360   28.1350    4.8460 C.3   803  ADP803      0.1821
     12  O4'       52.8840   29.4640    4.3600 O.3   803  ADP803     -0.3135
     13  C3'       54.4760   27.9610    5.3090 C.3   803  ADP803      0.2184
     14  O3'       55.1540   27.0070    4.4750 O.3   803  ADP803     -0.2174
     15  C2'       55.1140   29.3230    5.1260 C.3   803  ADP803      0.2570
     16  O2'       56.4280   29.1940    4.5850 O.3   803  ADP803     -0.2130
     17  C1'       54.1970   29.9750    4.1170 C.3   803  ADP803      0.3186
     18  N9        54.1300   31.4310    4.2580 N.pl3 803  ADP803     -0.1439
     19  C8        53.9350   32.1250    5.3930 C.3   803  ADP803      0.3377
     20  N7        53.8990   33.4580    5.1420 N.2   803  ADP803     -0.2095
     21  C5        54.0530   33.6180    3.8170 C.2   803  ADP803      0.2526
     22  C6        54.1110   34.7600    2.8880 C.2   803  ADP803      0.4393
     23  N6        53.9900   36.0200    3.3310 N.pl3 803  ADP803      0.2180
     24  N1        54.2780   34.4870    1.5850 N.2   803  ADP803      0.0021
     25  C2        54.4100   33.2230    1.1160 C.3   803  ADP803      0.5254
     26  N3        54.3700   32.1280    1.9000 N.2   803  ADP803     -0.0055
     27  C4        54.1990   32.2710    3.2360 C.2   803  ADP803      0.3518
@<TRIPOS>BOND
     1    25    24    1
     2    25    26    1
     3    24    22    2
     4    26    27    2
     5    22    23    1
     6    22    21    1
     7    27    21    1
     8    27    18    1
     9    21    20    2
    10    17    18    1
    11    17    12    1
    12    17    15    1
    13    18    19    1
    14    12    11    1
    15    14    13    1
    16    16    15    1
    17    11    13    1
    18    11    10    1
    19    15    13    1
    20    20    19    1
    21     4     1    2
    22    10     9    1
    23     9     5    1
    24     6     5    2
    25     1     2    1
    26     1     8    1
    27     1     3    1
    28     8     5    1
    29     5     7    1
