@<TRIPOS>MOLECULE
3k30_FMN_A_1.pdb
 31 33 0 0 0
SMALL
GASTEIGER

@<TRIPOS>ATOM
      1  N1        36.2250   -3.1840   13.0110 N.2   802  FMN802     -0.2890
      2  C2        35.0610   -3.8060   13.3200 C.1   802  FMN802      0.3669
      3  O2        34.9960   -5.0610   13.3210 O.2   802  FMN802     -0.1744
      4  N3        33.9230   -3.0750   13.2650 N.2   802  FMN802     -0.2300
      5  C4        33.9680   -1.7510   13.5070 C.1   802  FMN802      0.2513
      6  O4        32.8710   -1.1750   13.6510 O.2   802  FMN802     -0.2057
      7  C4A       35.2190   -1.0940   13.4980 C.2   802  FMN802      0.2700
      8  N5        35.3560    0.2650   13.5060 N.2   802  FMN802     -0.3882
      9  C5A       36.4080    0.9080   12.9280 C.2   802  FMN802      0.1274
     10  C6        36.4300    2.3140   12.8530 C.2   802  FMN802      0.0208
     11  C7        37.5290    3.0530   12.3830 C.2   802  FMN802     -0.0419
     12  C7M       37.3200    4.5140   12.0230 C.3   802  FMN802      0.0264
     13  C8        38.6250    2.2980   11.9420 C.3   802  FMN802      0.0205
     14  C8M       39.7860    2.9230   11.2180 C.3   802  FMN802      0.0044
     15  C9        38.7410    0.9770   12.4320 C.3   802  FMN802      0.0311
     16  C9A       37.6210    0.2450   12.8780 C.3   802  FMN802      0.1278
     17  N10       37.5790   -1.1810   12.9440 N.pl3 802  FMN802     -0.2727
     18  C10       36.3240   -1.8340   13.0860 C.2   802  FMN802      0.2414
     19  C1'       38.7730   -1.9990   12.6740 C.3   802  FMN802      0.1291
     20  C2'       38.8860   -2.2080   11.1610 C.3   802  FMN802      0.2044
     21  O2'       37.8370   -3.0550   10.6710 O.3   802  FMN802     -0.2185
     22  C3'       40.2280   -2.7880   10.7600 C.3   802  FMN802      0.2164
     23  O3'       40.2850   -4.1420   11.2010 O.3   802  FMN802     -0.2175
     24  C4'       41.3860   -1.9640   11.3440 C.3   802  FMN802      0.2147
     25  O4'       41.1110   -0.5470   11.2070 O.3   802  FMN802     -0.2176
     26  C5'       42.7400   -2.4090   10.7610 C.3   802  FMN802      0.1892
     27  O5'       42.7300   -2.3850    9.3390 O.3   802  FMN802     -0.2674
     28  P         43.3990   -1.1260    8.5630 P.3   802  FMN802      0.5327
     29  O1P       44.9070   -1.1540    8.7440 O.3   802  FMN802     -0.1145
     30  O2P       42.7790    0.1090    9.2200 O.3   802  FMN802     -0.1145
     31  O3P       42.9760   -1.3780    7.1450 O.2   802  FMN802     -0.2224
@<TRIPOS>BOND
     1    31    28    2
     2    28    29    1
     3    28    30    1
     4    28    27    1
     5    27    26    1
     6    21    20    1
     7    22    20    1
     8    22    23    1
     9    22    24    1
    10    26    24    1
    11    20    19    1
    12    25    24    1
    13    14    13    1
    14    13    11    1
    15    13    15    1
    16    12    11    1
    17    11    10    2
    18    15    16    1
    19    19    17    1
    20    10     9    1
    21    16     9    1
    22    16    17    1
    23     9     8    2
    24    17    18    1
    25     1    18    2
    26     1     2    2
    27    18     7    1
    28     4     2    2
    29     4     5    2
    30     2     3    2
    31     7     8    2
    32     7     5    1
    33     5     6    2
