@<TRIPOS>MOLECULE
3k31_NAD_A_1.pdb
 23 25 0 0 0
SMALL
GASTEIGER

@<TRIPOS>ATOM
      1  PA        40.7520   22.4380   66.4780 P.3   300  NAD300      0.5327
      2  O1A       42.1340   22.5900   65.5280 O.2   300  NAD300     -0.2224
      3  O2A       40.5040   23.7440   67.1190 O.3   300  NAD300     -0.1145
      4  O5B       39.4530   22.0050   65.5140 O.3   300  NAD300     -0.2675
      5  C5B       38.1850   22.5620   65.7900 C.3   300  NAD300      0.1860
      6  C4B       37.2100   22.8180   64.6030 C.3   300  NAD300      0.1823
      7  O4B       35.8480   23.0390   65.0190 O.3   300  NAD300     -0.3135
      8  C3B       37.4620   23.8850   63.5110 C.3   300  NAD300      0.2184
      9  O3B       37.5210   23.5340   62.1510 O.3   300  NAD300     -0.2174
     10  C2B       36.5260   25.0060   63.8000 C.3   300  NAD300      0.2570
     11  O2B       35.9850   25.9130   62.9130 O.3   300  NAD300     -0.2130
     12  C1B       35.3410   24.2790   64.4180 C.3   300  NAD300      0.3186
     13  N9A       34.3090   24.7540   65.2650 N.pl3 300  NAD300     -0.1439
     14  C8A       34.4650   25.4240   66.4940 C.3   300  NAD300      0.3377
     15  N7A       33.1930   25.8810   66.8660 N.2   300  NAD300     -0.2095
     16  C5A       32.2960   25.4780   65.8680 C.2   300  NAD300      0.2526
     17  C6A       30.9000   25.6710   65.7180 C.2   300  NAD300      0.4393
     18  N6A       30.2060   26.3820   66.7940 N.pl3 300  NAD300      0.2180
     19  N1A       30.2530   25.1420   64.5950 N.2   300  NAD300      0.0021
     20  C2A       30.9740   24.4530   63.5540 C.3   300  NAD300      0.5254
     21  N3A       32.3530   24.2840   63.6930 N.2   300  NAD300     -0.0055
     22  C4A       33.0020   24.8160   64.8430 C.2   300  NAD300      0.3518
     23  O3        40.9090   21.2390   67.6250 O.3   300  NAD300     -0.1145
@<TRIPOS>BOND
     1     9     8    1
     2    11    10    1
     3     8    10    1
     4     8     6    1
     5    20    21    1
     6    20    19    1
     7    21    22    2
     8    10    12    1
     9    12     7    1
    10    12    13    1
    11    19    17    2
    12     6     7    1
    13     6     5    1
    14    22    13    1
    15    22    16    1
    16    13    14    1
    17     4     5    1
    18     4     1    1
    19     2     1    2
    20    17    16    1
    21    17    18    1
    22    16    15    2
    23     1     3    1
    24     1    23    1
    25    14    15    1
