@<TRIPOS>MOLECULE
3k34_SUA_A_1.pdb
 21 22 0 0 0
SMALL
GASTEIGER

@<TRIPOS>ATOM
      1  S1        -5.8690    0.9660   16.7110 S.O2  1003  SUA1003     0.0935
      2  O1        -7.3010    1.0650   16.5850 O.2   1003  SUA1003    -0.1503
      3  O2        -5.3250    1.1190   18.0530 O.2   1003  SUA1003    -0.1503
      4  N1        -5.3440   -0.3610   16.0520 N.3   1003  SUA1003     0.0392
      5  C1        -3.3150    3.4200   14.8000 C.ar  1003  SUA1003     0.0180
      6  C2        -3.8720    2.3340   15.4840 C.ar  1003  SUA1003     0.0213
      7  C3        -5.2210    2.3210   15.7940 C.ar  1003  SUA1003     0.1251
      8  C4        -6.0500    3.3680   15.4240 C.ar  1003  SUA1003     0.0213
      9  C5        -5.4900    4.4680   14.7350 C.ar  1003  SUA1003     0.0180
     10  C6        -4.1440    4.5330   14.4960 C.ar  1003  SUA1003     0.0741
     11  N2        -3.6270    5.5060   13.7170 N.am  1003  SUA1003    -0.1731
     12  C7        -3.9880    6.0860   12.8480 C.2   1003  SUA1003     0.2534
     13  S2        -2.7740    7.1820   12.2680 S.2   1003  SUA1003     0.0079
     14  O3        -5.2390    6.0560   12.1900 O.3   1003  SUA1003    -0.4571
     15  C8        -5.3280    7.1070   11.1150 C.3   1003  SUA1003     0.2075
     16  C9        -6.7700    6.8550   10.5490 C.3   1003  SUA1003     0.0483
     17  C10       -7.0670    7.8830    9.4560 C.3   1003  SUA1003     0.0154
     18  C11       -6.4190    9.1270    9.2430 C.3   1003  SUA1003     0.0126
     19  C12       -6.9960    9.7920    8.0840 C.3   1003  SUA1003     0.0576
     20  S3        -8.5630    9.1230    7.6920 S.3   1003  SUA1003    -0.1403
     21  C13       -8.0610    7.6400    8.4140 C.3   1003  SUA1003     0.0577
@<TRIPOS>BOND
     1    20    19    1
     2    20    21    1
     3    19    18    1
     4    21    17    1
     5    18    17    1
     6    17    16    1
     7    16    15    1
     8    15    14    1
     9    14    12    1
    10    13    12    2
    11    12    11    1
    12    11    10    1
    13    10     9   ar
    14    10     5   ar
    15     9     8   ar
    16     5     6   ar
    17     8     7   ar
    18     6     7   ar
    19     7     1    1
    20     4     1    1
    21     2     1    2
    22     1     3    2
