@<TRIPOS>MOLECULE
3k34_HGB_A_1.pdb
 10 10 0 0 0
SMALL
GASTEIGER

@<TRIPOS>ATOM
      1  C1         0.2810   12.7250   30.2180 C.2   265  HGB265      0.0000
      2  C3        -0.2880   13.1130   27.7180 C.ar  265  HGB265      0.0000
      3  C5        -0.6980   12.7030   26.4620 C.ar  265  HGB265      0.0000
      4  C7        -1.1850   11.4370   26.1550 C.ar  265  HGB265      0.0000
      5 HG         -1.9640   10.6220   24.4750 Hg    265  HGB265      0.0000
      6  C6        -1.0850   10.5720   27.3740 C.ar  265  HGB265      0.0000
      7  C4        -0.6670   10.9780   28.6610 C.ar  265  HGB265      0.0000
      8  O1         0.3170   11.9000   31.2220 O.co2 265  HGB265      0.0000
      9  O2         0.7060   13.8230   30.1510 O.co2 265  HGB265      0.0000
     10  C2        -0.2600   12.2690   28.8090 C.ar  265  HGB265      0.0000
@<TRIPOS>BOND
     1     5     4    1
     2     4     3   ar
     3     4     6   ar
     4     3     2   ar
     5     6     7   ar
     6     2    10   ar
     7     7    10   ar
     8    10     1    1
     9     9     1   ar
    10     1     8   ar
