@<TRIPOS>MOLECULE
3k35_APR_A_1.pdb
 36 39 0 0 0
SMALL
GASTEIGER

@<TRIPOS>ATOM
      1  N1        27.8070   -2.1800    2.0730 N.2   1001  APR1001     0.0021
      2  C2        27.5500   -1.0270    1.4110 C.3   1001  APR1001     0.5254
      3  N3        26.4620   -0.2770    1.6740 N.2   1001  APR1001    -0.0055
      4  C4        25.5800   -0.6730    2.6240 C.2   1001  APR1001     0.3518
      5  C5        25.8070   -1.9340    3.3560 C.2   1001  APR1001     0.2526
      6  C6        27.0370   -2.6770    3.0400 C.2   1001  APR1001     0.4393
      7  N6        27.3510   -3.8430    3.6720 N.pl3 1001  APR1001     0.2180
      8  N7        24.7920   -2.0760    4.2100 N.2   1001  APR1001    -0.2095
      9  C8        23.9740   -1.0100    4.0340 C.3   1001  APR1001     0.3377
     10  N9        24.4300   -0.2010    3.0770 N.pl3 1001  APR1001    -0.1439
     11  C1'       23.8510    1.0780    2.6190 C.3   1001  APR1001     0.3186
     12  C2'       22.3360    1.1530    2.5080 C.3   1001  APR1001     0.2570
     13  O2'       22.0120    0.8540    1.1540 O.3   1001  APR1001    -0.2130
     14  C3'       22.0320    2.6010    2.8990 C.3   1001  APR1001     0.2184
     15  O3'       21.8460    3.4500    1.7620 O.3   1001  APR1001    -0.2174
     16  O4'       24.1790    1.9670    3.6660 O.3   1001  APR1001    -0.3135
     17  C4'       23.2660    3.0670    3.6620 C.3   1001  APR1001     0.1821
     18  C5'       22.9370    3.4300    5.0940 C.3   1001  APR1001     0.1813
     19  O5'       22.1720    4.6570    5.0410 O.3   1001  APR1001    -0.3112
     20  PA        21.0960    4.9270    6.1870 P.3   1001  APR1001     0.2189
     21  O1A       20.3550    3.6500    6.5810 O.3   1001  APR1001    -0.4371
     22  O2A       20.2770    6.1570    5.8740 O.2   1001  APR1001    -0.5170
     23  O3A       22.0510    5.2700    7.4530 O.3   1001  APR1001    -0.2703
     24  PB        22.8690    6.6520    7.7020 P.3   1001  APR1001     0.2189
     25  O1B       23.1210    7.3580    6.3880 O.2   1001  APR1001    -0.5170
     26  O2B       23.9610    6.3160    8.6540 O.3   1001  APR1001    -0.4371
     27  O5D       21.7940    7.4620    8.5670 O.3   1001  APR1001    -0.3112
     28  C5D       22.1340    8.7490    9.0040 C.3   1001  APR1001     0.1813
     29  O4D       20.0510    8.9630   10.1210 O.3   1001  APR1001    -0.3237
     30  O1D       18.2350    8.1280   11.3030 O.3   1001  APR1001    -0.1869
     31  C1D       19.4320    8.9130   11.3910 C.3   1001  APR1001     0.3023
     32  O2D       20.7570    9.4860   13.2250 O.3   1001  APR1001    -0.2148
     33  C2D       20.4910    8.3770   12.3530 C.3   1001  APR1001     0.2433
     34  O3D       22.9690    8.2480   12.1140 O.3   1001  APR1001    -0.2175
     35  C3D       21.6910    8.0680   11.4660 C.3   1001  APR1001     0.2168
     36  C4D       21.4490    9.0450   10.3210 C.3   1001  APR1001     0.1807
@<TRIPOS>BOND
     1    13    12    1
     2     2     3    1
     3     2     1    1
     4     3     4    2
     5    15    14    1
     6     1     6    2
     7    12    11    1
     8    12    14    1
     9    11    10    1
    10    11    16    1
    11     4    10    1
    12     4     5    1
    13    14    17    1
    14     6     5    1
    15     6     7    1
    16    10     9    1
    17     5     8    2
    18    17    16    1
    19    17    18    1
    20     9     8    1
    21    19    18    1
    22    19    20    1
    23    22    20    2
    24    20    21    1
    25    20    23    1
    26    25    24    2
    27    23    24    1
    28    24    27    1
    29    24    26    1
    30    27    28    1
    31    28    36    1
    32    29    36    1
    33    29    31    1
    34    36    35    1
    35    30    31    1
    36    31    33    1
    37    35    34    1
    38    35    33    1
    39    33    32    1
