@<TRIPOS>MOLECULE
3k36_NAG_A_1.pdb
 14 14 0 0 0
SMALL
GASTEIGER

@<TRIPOS>ATOM
      1  C1        21.6740  -25.0610  -68.4540 C.3     1  NAG1        0.1665
      2  C2        20.4550  -25.8750  -68.0120 C.3     1  NAG1        0.1576
      3  C3        20.5560  -27.3130  -68.5160 C.3     1  NAG1        0.2069
      4  C4        20.7660  -27.3400  -70.0290 C.3     1  NAG1        0.2134
      5  C5        22.0050  -26.5030  -70.3460 C.3     1  NAG1        0.1809
      6  C6        22.3630  -26.4600  -71.8370 C.3     1  NAG1        0.2141
      7  C7        19.3070  -25.2580  -65.9350 C.2     1  NAG1        0.2420
      8  C8        19.2660  -25.3930  -64.4360 C.3     1  NAG1        0.0964
      9  N2        20.2940  -25.8960  -66.5700 N.am    1  NAG1       -0.2019
     10  O3        19.4160  -28.0600  -68.1440 O.3     1  NAG1       -0.2184
     11  O4        21.0410  -28.6610  -70.4240 O.3     1  NAG1       -0.2176
     12  O5        21.8410  -25.1880  -69.8540 O.3     1  NAG1       -0.3489
     13  O6        21.3960  -25.7030  -72.5300 O.3     1  NAG1       -0.2176
     14  O7        18.4590  -24.5800  -66.5110 O.2     1  NAG1       -0.2733
@<TRIPOS>BOND
     1    13     6    1
     2     6     5    1
     3    11     4    1
     4     5     4    1
     5     5    12    1
     6     4     3    1
     7    12     1    1
     8     3    10    1
     9     3     2    1
    10     1     2    1
    11     2     9    1
    12     9     7   am
    13    14     7    2
    14     7     8    1
