@<TRIPOS>MOLECULE
3k37_BCZ_A_1.pdb
 23 23 0 0 0
SMALL
GASTEIGER

@<TRIPOS>ATOM
      1  C2       -14.0380  -27.0410   11.9390 C.3   468  BCZ468      0.1858
      2  N25      -13.3540  -26.4240   13.0940 N.pl3 468  BCZ468     -0.0901
      3  C26      -12.0020  -26.0370   13.0860 C.cat 468  BCZ468      0.5345
      4  N30      -11.2820  -25.8830   11.9320 N.pl3 468  BCZ468      0.1354
      5  N27      -11.2960  -25.7790   14.2490 N.pl3 468  BCZ468      0.1354
      6  C3       -14.9510  -28.2260   12.2410 C.3   468  BCZ468      0.0907
      7  C10      -14.2210  -29.5470   12.5420 C.3   468  BCZ468      0.1010
      8  C24      -15.1400  -30.7300   12.8280 C.3   468  BCZ468      0.0202
      9  C37      -15.9060  -30.5490   14.1310 C.3   468  BCZ468      0.0017
     10  C38      -17.3050  -31.0910   13.9850 C.3   468  BCZ468      0.0001
     11  C36      -14.3500  -32.0320   12.8270 C.3   468  BCZ468      0.0017
     12  C39      -13.8930  -32.4140   11.4200 C.3   468  BCZ468      0.0001
     13  N11      -13.2250  -29.4690   13.5860 N.am  468  BCZ468     -0.2070
     14  C13      -11.8700  -29.4200   13.3160 C.2   468  BCZ468      0.2418
     15  C15      -11.0740  -29.1140   14.5440 C.3   468  BCZ468      0.0964
     16  O14      -11.3270  -29.6100   12.2360 O.2   468  BCZ468     -0.2733
     17  C4       -15.8330  -28.2950   11.0000 C.3   468  BCZ468      0.1677
     18  O9       -15.2320  -29.2020   10.0550 O.3   468  BCZ468     -0.2224
     19  C5       -15.8280  -26.9350   10.3100 C.3   468  BCZ468      0.1373
     20  C6       -17.2640  -26.3890   10.4000 C.2   468  BCZ468      0.3669
     21  O8       -17.3950  -25.1450   10.2050 O.co2 468  BCZ468     -0.2456
     22  O7       -18.1910  -27.2160   10.6380 O.co2 468  BCZ468     -0.2456
     23  C1       -14.9610  -26.0620   11.2090 C.3   468  BCZ468      0.0572
@<TRIPOS>BOND
     1    18    17    1
     2    21    20   ar
     3    19    20    1
     4    19    17    1
     5    19    23    1
     6    20    22   ar
     7    17     6    1
     8    23     1    1
     9    12    11    1
    10     4     3    1
    11     1     6    1
    12     1     2    1
    13    16    14    2
    14     6     7    1
    15     7     8    1
    16     7    13    1
    17    11     8    1
    18     8     9    1
    19     3     2    2
    20     3     5    1
    21    14    13   am
    22    14    15    1
    23    10     9    1
