@<TRIPOS>MOLECULE
3k37_NAG_A_1.pdb
 14 14 0 0 0
SMALL
GASTEIGER

@<TRIPOS>ATOM
      1  C1       -21.3910  -18.2640   44.1560 C.3     1  NAG1        0.1665
      2  C2       -22.4120  -17.1250   44.2820 C.3     1  NAG1        0.1576
      3  C3       -21.8250  -15.7380   44.6040 C.3     1  NAG1        0.2069
      4  C4       -20.6430  -15.8210   45.5870 C.3     1  NAG1        0.2134
      5  C5       -19.6940  -16.9330   45.1110 C.3     1  NAG1        0.1809
      6  C6       -18.4430  -17.1170   45.9510 C.3     1  NAG1        0.2141
      7  C7       -24.3640  -17.4940   42.8560 C.2     1  NAG1        0.2420
      8  C8       -25.0640  -18.1030   44.0370 C.3     1  NAG1        0.0964
      9  N2       -23.1270  -17.0500   43.0260 N.am    1  NAG1       -0.2019
     10  O3       -22.8510  -14.8800   45.0860 O.3     1  NAG1       -0.2184
     11  O4       -19.9720  -14.5740   45.6780 O.3     1  NAG1       -0.2176
     12  O5       -20.3770  -18.1690   45.1270 O.3     1  NAG1       -0.3489
     13  O6       -18.8220  -17.6480   47.1990 O.3     1  NAG1       -0.2176
     14  O7       -24.9340  -17.4220   41.7670 O.2     1  NAG1       -0.2733
@<TRIPOS>BOND
     1    14     7    2
     2     7     9   am
     3     7     8    1
     4     9     2    1
     5     1     2    1
     6     1    12    1
     7     2     3    1
     8     3    10    1
     9     3     4    1
    10     5    12    1
    11     5     4    1
    12     5     6    1
    13     4    11    1
    14     6    13    1
