@<TRIPOS>MOLECULE
3k38_NAG_A_1.pdb
 14 14 0 0 0
SMALL
GASTEIGER

@<TRIPOS>ATOM
      1  C1       -23.1880    4.6380   27.7560 C.3   900  NAG900      0.1665
      2  C2       -23.4870    3.2320   28.2110 C.3   900  NAG900      0.1576
      3  C3       -23.8810    2.4220   26.9490 C.3   900  NAG900      0.2069
      4  C4       -25.0880    3.0880   26.2430 C.3   900  NAG900      0.2134
      5  C5       -24.8100    4.5640   25.9390 C.3   900  NAG900      0.1809
      6  C6       -26.1170    5.2470   25.5050 C.3   900  NAG900      0.2141
      7  C7       -22.0100    2.2560   29.8860 C.2   900  NAG900      0.2420
      8  C8       -20.5590    2.0070   30.2200 C.3   900  NAG900      0.0964
      9  N2       -22.1970    2.8550   28.7460 N.am  900  NAG900     -0.2019
     10  O3       -24.1560    1.0630   27.2500 O.3   900  NAG900     -0.2184
     11  O4       -25.4460    2.4200   25.0380 O.3   900  NAG900     -0.2176
     12  O5       -24.2970    5.2170   27.0920 O.3   900  NAG900     -0.3489
     13  O6       -26.0750    6.6100   25.8660 O.3   900  NAG900     -0.2176
     14  O7       -22.9630    1.9360   30.6190 O.2   900  NAG900     -0.2733
@<TRIPOS>BOND
     1    11     4    1
     2     6    13    1
     3     6     5    1
     4     5     4    1
     5     5    12    1
     6     4     3    1
     7     3    10    1
     8     3     2    1
     9    12     1    1
    10     1     2    1
    11     2     9    1
    12     9     7   am
    13     7     8    1
    14     7    14    2
