@<TRIPOS>MOLECULE
3k39_NAG_C_1.pdb
 14 14 0 0 0
SMALL
GASTEIGER

@<TRIPOS>ATOM
      1  C1       -22.5310   -6.0150  -29.6390 C.3   900  NAG900      0.1665
      2  C2       -22.6300   -4.5300  -30.0500 C.3   900  NAG900      0.1576
      3  C3       -23.1190   -3.6280  -28.8950 C.3   900  NAG900      0.2069
      4  C4       -24.4160   -4.1870  -28.2520 C.3   900  NAG900      0.2134
      5  C5       -24.2900   -5.6810  -27.8970 C.3   900  NAG900      0.1809
      6  C6       -25.7130   -6.1960  -27.6660 C.3   900  NAG900      0.2141
      7  C7       -21.1020   -3.4330  -31.6630 C.2   900  NAG900      0.2420
      8  C8       -19.6770   -3.1270  -32.0200 C.3   900  NAG900      0.0964
      9  N2       -21.3180   -4.1260  -30.5460 N.am  900  NAG900     -0.2019
     10  O3       -23.3090   -2.2930  -29.3360 O.3   900  NAG900     -0.2184
     11  O4       -24.8860   -3.4360  -27.1160 O.3   900  NAG900     -0.2176
     12  O5       -23.6610   -6.4910  -28.9060 O.3   900  NAG900     -0.3489
     13  O6       -25.7200   -7.5760  -27.4130 O.3   900  NAG900     -0.2176
     14  O7       -21.9960   -3.0440  -32.4100 O.2   900  NAG900     -0.2733
@<TRIPOS>BOND
     1    14     7    2
     2     8     7    1
     3     7     9   am
     4     9     2    1
     5     2     1    1
     6     2     3    1
     7     1    12    1
     8    10     3    1
     9    12     5    1
    10     3     4    1
    11     4     5    1
    12     4    11    1
    13     5     6    1
    14     6    13    1
