@<TRIPOS>MOLECULE
3k39_BCZ_A_1.pdb
 23 23 0 0 0
SMALL
GASTEIGER

@<TRIPOS>ATOM
      1  C2         7.6990   15.7340   25.7490 C.3   1001  BCZ1001     0.1858
      2  N25        6.5430   15.5920   24.8770 N.pl3 1001  BCZ1001    -0.0901
      3  C26        6.5330   15.8700   23.5220 C.cat 1001  BCZ1001     0.5345
      4  N30        5.3200   15.8280   22.8430 N.pl3 1001  BCZ1001     0.1354
      5  N27        7.6980   16.2020   22.8670 N.pl3 1001  BCZ1001     0.1354
      6  C3         7.3430   16.2420   27.1190 C.3   1001  BCZ1001     0.0907
      7  C10        6.9670   17.7270   27.1430 C.3   1001  BCZ1001     0.1010
      8  C24        6.5580   18.2650   28.5240 C.3   1001  BCZ1001     0.0202
      9  C37        6.3650   19.7700   28.5150 C.3   1001  BCZ1001     0.0017
     10  C38        7.6880   20.4980   28.4730 C.3   1001  BCZ1001     0.0001
     11  C36        5.3240   17.6170   29.1000 C.3   1001  BCZ1001     0.0017
     12  C39        5.4130   17.5970   30.6010 C.3   1001  BCZ1001     0.0001
     13  N11        5.9380   18.0500   26.1890 N.am  1001  BCZ1001    -0.2070
     14  C13        6.1810   18.8680   25.1060 C.2   1001  BCZ1001     0.2418
     15  C15        4.9460   19.0320   24.2750 C.3   1001  BCZ1001     0.0964
     16  O14        7.2410   19.4100   24.8120 O.2   1001  BCZ1001    -0.2733
     17  C4         8.5680   15.8620   27.9500 C.3   1001  BCZ1001     0.1677
     18  O9         9.5280   16.9150   27.9560 O.3   1001  BCZ1001    -0.2224
     19  C5         9.2640   14.7090   27.2520 C.3   1001  BCZ1001     0.1373
     20  C6         9.2000   13.5040   28.2120 C.2   1001  BCZ1001     0.3669
     21  O8         9.5110   12.3770   27.7720 O.co2 1001  BCZ1001    -0.2456
     22  O7         8.8480   13.7330   29.3750 O.co2 1001  BCZ1001    -0.2456
     23  C1         8.3720   14.4080   26.0560 C.3   1001  BCZ1001     0.0572
@<TRIPOS>BOND
     1     4     3    1
     2     5     3    1
     3     3     2    2
     4    15    14    1
     5    16    14    2
     6     2     1    1
     7    14    13   am
     8     1    23    1
     9     1     6    1
    10    23    19    1
    11    13     7    1
    12     6     7    1
    13     6    17    1
    14     7     8    1
    15    19    17    1
    16    19    20    1
    17    21    20   ar
    18    17    18    1
    19    20    22   ar
    20    10     9    1
    21     9     8    1
    22     8    11    1
    23    11    12    1
