@<TRIPOS>MOLECULE
3k3a_NAG_A_1.pdb
 14 14 0 0 0
SMALL
GASTEIGER

@<TRIPOS>ATOM
      1  C1        23.3620  -27.7390   -4.6600 C.3   900  NAG900      0.1665
      2  C2        23.5020  -28.0590   -3.1730 C.3   900  NAG900      0.1576
      3  C3        23.8700  -26.7890   -2.3650 C.3   900  NAG900      0.2069
      4  C4        25.1090  -26.1080   -2.9530 C.3   900  NAG900      0.2134
      5  C5        24.9360  -25.8500   -4.4540 C.3   900  NAG900      0.1809
      6  C6        26.2910  -25.3850   -5.0010 C.3   900  NAG900      0.2141
      7  C7        21.9980  -29.7710   -2.2710 C.2   900  NAG900      0.2420
      8  C8        20.5620  -30.1390   -1.9460 C.3   900  NAG900      0.0964
      9  N2        22.2020  -28.5720   -2.7860 N.am  900  NAG900     -0.2019
     10  O3        24.1530  -27.0730   -0.9930 O.3   900  NAG900     -0.2184
     11  O4        25.4710  -24.9300   -2.2160 O.3   900  NAG900     -0.2176
     12  O5        24.5040  -27.0220   -5.1730 O.3   900  NAG900     -0.3489
     13  O6        26.1330  -25.1350   -6.3810 O.3   900  NAG900     -0.2176
     14  O7        22.9340  -30.5680   -2.0980 O.2   900  NAG900     -0.2733
@<TRIPOS>BOND
     1    13     6    1
     2    12     1    1
     3    12     5    1
     4     6     5    1
     5     1     2    1
     6     5     4    1
     7     2     9    1
     8     2     3    1
     9     4     3    1
    10     4    11    1
    11     9     7   am
    12     3    10    1
    13     7    14    2
    14     7     8    1
