@<TRIPOS>MOLECULE
3k3a_G39_A_1.pdb
 20 20 0 0 0
SMALL
GASTEIGER

@<TRIPOS>ATOM
      1  C1       -10.4550  -28.4260  -13.8380 C.2     1  G391        0.3644
      2  O1A      -10.4410  -27.8540  -12.7150 O.co2   1  G391       -0.2457
      3  O1B      -10.6240  -29.6120  -14.0270 O.co2   1  G391       -0.2457
      4  C2       -10.0320  -27.6750  -14.8490 C.3     1  G391        0.1074
      5  C3        -9.7990  -26.2270  -14.5020 C.3     1  G391        0.0322
      6  C4        -8.7580  -25.6160  -15.4680 C.3     1  G391        0.1146
      7  C5        -8.8030  -26.3860  -16.8060 C.3     1  G391        0.1398
      8  N5        -7.7760  -25.7500  -17.6650 N.am    1  G391       -0.2032
      9  C10       -7.6880  -24.7780  -18.5730 C.2     1  G391        0.2419
     10  O10       -8.6470  -24.2420  -19.0970 O.2     1  G391       -0.2733
     11  C11       -6.3030  -24.3790  -19.0440 C.3     1  G391        0.0964
     12  C6        -8.6970  -27.8430  -16.8930 C.3     1  G391        0.1369
     13  C7        -9.7080  -28.3830  -15.9090 C.3     1  G391        0.0427
     14  O7        -8.8760  -28.2020  -18.3110 O.3     1  G391       -0.3569
     15  C8        -8.0080  -29.2810  -18.7050 C.3     1  G391        0.1152
     16  C9        -7.9900  -29.4270  -20.2170 C.3     1  G391        0.0296
     17  C81       -8.3930  -30.6240  -18.0740 C.3     1  G391        0.0296
     18  C82       -9.8290  -30.9120  -18.5250 C.3     1  G391        0.0026
     19  C91       -7.6530  -28.1180  -20.8180 C.3     1  G391        0.0026
     20  N4        -8.9510  -24.1430  -15.7420 N.3     1  G391       -0.1310
@<TRIPOS>BOND
     1    19    16    1
     2    16    15    1
     3    10     9    2
     4    11     9    1
     5    15    14    1
     6    15    17    1
     7     9     8   am
     8    18    17    1
     9    14    12    1
    10     8     7    1
    11    12     7    1
    12    12    13    1
    13     7     6    1
    14    13     4    1
    15    20     6    1
    16     6     5    1
    17     4     5    1
    18     4     1    1
    19     3     1   ar
    20     1     2   ar
