@<TRIPOS>MOLECULE
3k3b_ADP_A_1.pdb
 27 29 0 0 0
SMALL
GASTEIGER

@<TRIPOS>ATOM
      1  PB        14.7920   -7.6650   17.3360 P.3   370  ADP370      0.5373
      2  O1B       16.2170   -7.1660   17.3470 O.3   370  ADP370     -0.1143
      3  O2B       13.9440   -7.1100   16.2200 O.2   370  ADP370     -0.2221
      4  O3B       14.6540   -9.1500   17.5780 O.3   370  ADP370     -0.1143
      5  PA        14.7760   -7.4830   20.1210 P.3   370  ADP370      0.2231
      6  O1A       14.0290   -8.6610   20.6960 O.3   370  ADP370     -0.4370
      7  O2A       16.2770   -7.5510   19.9660 O.2   370  ADP370     -0.5169
      8  O3A       14.1380   -7.1000   18.6910 O.3   370  ADP370     -0.2261
      9  O5'       14.3690   -6.1700   20.9560 O.3   370  ADP370     -0.3111
     10  C5'       15.3520   -5.2210   21.3630 C.3   370  ADP370      0.1813
     11  C4'       14.9180   -4.5610   22.6670 C.3   370  ADP370      0.1821
     12  O4'       13.5760   -4.0740   22.5770 O.3   370  ADP370     -0.3135
     13  C3'       14.9570   -5.5440   23.8210 C.3   370  ADP370      0.2184
     14  O3'       15.5400   -4.8730   24.9410 O.3   370  ADP370     -0.2174
     15  C2'       13.5040   -5.8540   24.1120 C.3   370  ADP370      0.2570
     16  O2'       13.3150   -6.1020   25.5070 O.3   370  ADP370     -0.2130
     17  C1'       12.7770   -4.6030   23.6390 C.3   370  ADP370      0.3186
     18  N9        11.4000   -4.8590   23.1340 N.pl3 370  ADP370     -0.1439
     19  C8        11.0780   -5.2360   21.8810 C.3   370  ADP370      0.3377
     20  N7         9.7360   -5.3740   21.7310 N.2   370  ADP370     -0.2095
     21  C5         9.1690   -5.0720   22.9140 C.2   370  ADP370      0.2526
     22  C6         7.7880   -5.0110   23.4620 C.2   370  ADP370      0.4393
     23  N6         6.7130   -5.3100   22.6920 N.pl3 370  ADP370      0.2180
     24  N1         7.6370   -4.6480   24.7580 N.2   370  ADP370      0.0021
     25  C2         8.6910   -4.3450   25.5450 C.3   370  ADP370      0.5254
     26  N3         9.9670   -4.3800   25.1130 N.2   370  ADP370     -0.0055
     27  C4        10.2690   -4.7290   23.8350 C.2   370  ADP370      0.3518
@<TRIPOS>BOND
     1     3     1    2
     2     1     2    1
     3     1     4    1
     4     1     8    1
     5     8     5    1
     6     7     5    2
     7     5     6    1
     8     5     9    1
     9     9    10    1
    10    10    11    1
    11    20    19    1
    12    20    21    2
    13    19    18    1
    14    12    11    1
    15    12    17    1
    16    11    13    1
    17    23    22    1
    18    21    22    1
    19    21    27    1
    20    18    17    1
    21    18    27    1
    22    22    24    2
    23    17    15    1
    24    13    15    1
    25    13    14    1
    26    27    26    2
    27    15    16    1
    28    24    25    1
    29    26    25    1
