@<TRIPOS>MOLECULE
3k3b_L31_A_1.pdb
 24 27 0 0 0
SMALL
GASTEIGER

@<TRIPOS>ATOM
      1  C1        15.6620  -20.2400   21.6450 C.3   371  L31371      0.0438
      2  C2        16.2340  -19.9490   22.9320 C.2   371  L31371     -0.0234
      3  C3        15.4180  -19.2660   23.9390 C.2   371  L31371      0.0095
      4  C4        14.0850  -18.9000   23.6460 C.2   371  L31371      0.1265
      5  C5        13.4990  -19.2110   22.3020 C.2   371  L31371      0.0274
      6  C6        14.2720  -19.8580   21.3410 C.2   371  L31371     -0.0195
      7  C10       16.4870  -20.9540   20.5640 C.3   371  L31371      0.0094
      8  C14       15.7130  -18.8210   25.4090 C.3   371  L31371      0.0762
      9  C15       14.4790  -18.0520   25.8450 C.2   371  L31371      0.1126
     10  N16       13.4810  -18.2080   24.8330 N.2   371  L31371     -0.4085
     11  C18       16.7320  -19.2350   26.4970 C.3   371  L31371      0.0327
     12  C19       16.6210  -18.5070   27.8860 C.3   371  L31371      0.0948
     13  N22       15.7630  -17.2910   27.8870 N.am  371  L31371     -0.2715
     14  C25       14.5280  -17.2220   27.1340 C.3   371  L31371      0.1464
     15  C26       13.3440  -17.6160   28.0340 C.ar  371  L31371      0.0053
     16  C28       12.6490  -16.6260   28.7330 C.ar  371  L31371      0.0398
     17  C29       11.5350  -16.9770   29.5670 C.ar  371  L31371      0.1955
     18  C30       11.1150  -18.3840   29.6900 C.ar  371  L31371      0.0420
     19  C31       11.8260  -19.4030   28.9710 C.ar  371  L31371      0.0030
     20  C32       12.9090  -19.0600   28.1620 C.ar  371  L31371     -0.0021
     21  O37       10.8420  -15.9790   30.2720 O.3   371  L31371     -0.2866
     22  C39       16.3130  -16.0220   28.4060 C.2   371  L31371      0.2266
     23  O40       15.6900  -15.0190   28.2880 O.2   371  L31371     -0.2748
     24  C41       17.6870  -15.9420   29.0300 C.3   371  L31371      0.0948
@<TRIPOS>BOND
     1     7     1    1
     2     6     1    1
     3     6     5    2
     4     1     2    1
     5     5     4    1
     6     2     3    2
     7     4     3    1
     8     4    10    2
     9     3     8    1
    10    10     9    2
    11     8     9    1
    12     8    11    1
    13     9    14    1
    14    11    12    1
    15    14    13    1
    16    14    15    1
    17    12    13    1
    18    13    22   am
    19    15    20   ar
    20    15    16   ar
    21    20    19   ar
    22    23    22    2
    23    22    24    1
    24    16    17   ar
    25    19    18   ar
    26    17    18   ar
    27    17    21    1
