@<TRIPOS>MOLECULE
3k3e_PDB_A_1.pdb
 24 26 0 0 0
SMALL
GASTEIGER

@<TRIPOS>ATOM
      1  C2        78.3700   49.9710   39.6290 C.ar  600  PDB600     -0.0063
      2  C3        78.9880   49.8850   38.3870 C.ar  600  PDB600     -0.0030
      3  C4        80.2390   50.4610   38.1910 C.ar  600  PDB600     -0.0002
      4  C5        80.8690   51.1250   39.2370 C.ar  600  PDB600      0.0013
      5  F5        75.4250   55.1560   42.9860 F     600  PDB600     -0.1700
      6  C6        80.2490   51.2110   40.4790 C.ar  600  PDB600      0.0165
      7  F6        73.9320   56.3570   41.8900 F     600  PDB600     -0.1700
      8  C7        79.0010   50.6320   40.6780 C.ar  600  PDB600      0.0723
      9  F7        76.1010   56.5990   41.4460 F     600  PDB600     -0.1700
     10  N8        78.4320   50.6800   41.9010 N.pl3 600  PDB600     -0.1647
     11  N9        78.9090   50.1450   42.9300 N.2   600  PDB600     -0.1734
     12  C10       78.1320   50.3760   44.0100 C.2   600  PDB600      0.1180
     13  C11       77.2810   51.3190   42.2040 C.2   600  PDB600      0.2172
     14  C12       77.0620   51.1420   43.5640 C.3   600  PDB600      0.2305
     15  N13       76.3850   52.0320   41.4690 N.2   600  PDB600     -0.3288
     16  C14       75.2780   52.5690   42.0510 C.1   600  PDB600      0.1270
     17  N15       75.0460   52.4060   43.3820 N.2   600  PDB600     -0.2740
     18  C16       75.9360   51.6940   44.1580 C.1   600  PDB600      0.2032
     19  O17       75.7350   51.5710   45.3670 O.2   600  PDB600     -0.2126
     20  C18       74.3060   53.3950   41.2230 C.3   600  PDB600      0.1342
     21  C19       75.0360   54.6340   40.6990 C.3   600  PDB600      0.1121
     22  C20       74.3100   55.1790   39.4670 C.3   600  PDB600      0.0100
     23  C21       75.1250   55.7140   41.7830 C.3   600  PDB600      0.3986
     24  CL1       76.8210   49.2570   39.8590 C.3   600  PDB600      0.0324
@<TRIPOS>BOND
     1     3     2   ar
     2     3     4   ar
     3     2     1   ar
     4     4     6   ar
     5    22    21    1
     6     1    24    1
     7     1     8   ar
     8     6     8   ar
     9     8    10    1
    10    21    20    1
    11    21    23    1
    12    20    16    1
    13     9    23    1
    14    15    16    2
    15    15    13    2
    16    23     7    1
    17    23     5    1
    18    10    13    1
    19    10    11    1
    20    16    17    2
    21    13    14    1
    22    11    12    2
    23    17    18    2
    24    14    12    1
    25    14    18    1
    26    18    19    2
