@<TRIPOS>MOLECULE
3k3h_BYE_A_1.pdb
 24 26 0 0 0
SMALL
GASTEIGER

@<TRIPOS>ATOM
      1  C2        78.0880   50.0110   40.0220 C.ar  600  BYE600     -0.0063
      2  C3        78.7280   49.9150   38.7900 C.ar  600  BYE600     -0.0030
      3  C4        80.0090   50.4320   38.6230 C.ar  600  BYE600     -0.0002
      4  C5        80.6460   51.0480   39.6930 C.ar  600  BYE600      0.0013
      5  F5        72.4730   55.5060   40.2650 F     600  BYE600     -0.1700
      6  C6        80.0040   51.1470   40.9240 C.ar  600  BYE600      0.0165
      7  F6        73.7690   54.5420   38.7430 F     600  BYE600     -0.1700
      8  C7        78.7250   50.6300   41.0910 C.ar  600  BYE600      0.0723
      9  F7        74.2860   56.5550   39.5190 F     600  BYE600     -0.1700
     10  N8        78.1300   50.7570   42.3010 N.pl3 600  BYE600     -0.1647
     11  N9        78.6290   50.3750   43.3820 N.2   600  BYE600     -0.1734
     12  C10       77.8650   50.7350   44.4380 C.2   600  BYE600      0.1180
     13  C11       76.9670   51.4020   42.5380 C.2   600  BYE600      0.2172
     14  C12       76.7750   51.4130   43.9120 C.3   600  BYE600      0.2305
     15  N13       76.0560   52.0070   41.7300 N.2   600  BYE600     -0.3288
     16  C14       74.9650   52.6270   42.2560 C.1   600  BYE600      0.1270
     17  N15       74.7600   52.6490   43.6000 N.2   600  BYE600     -0.2740
     18  C16       75.6620   52.0460   44.4520 C.1   600  BYE600      0.2032
     19  O17       75.4860   52.0920   45.6680 O.2   600  BYE600     -0.2126
     20  C18       73.9960   53.3530   41.3370 C.3   600  BYE600      0.1342
     21  C19       74.5880   54.7140   40.9600 C.3   600  BYE600      0.1121
     22  C20       74.5870   55.6410   42.1770 C.3   600  BYE600      0.0100
     23  C21       73.7550   55.3440   39.8410 C.3   600  BYE600      0.3986
     24  CL1       76.5210   49.3210   40.2000 C.3   600  BYE600      0.0324
@<TRIPOS>BOND
     1     3     2   ar
     2     3     4   ar
     3     7    23    1
     4     2     1   ar
     5     9    23    1
     6     4     6   ar
     7    23     5    1
     8    23    21    1
     9     1    24    1
    10     1     8   ar
    11     6     8   ar
    12    21    20    1
    13    21    22    1
    14     8    10    1
    15    20    16    1
    16    15    16    2
    17    15    13    2
    18    16    17    2
    19    10    13    1
    20    10    11    1
    21    13    14    1
    22    11    12    2
    23    17    18    2
    24    14    12    1
    25    14    18    1
    26    18    19    2
