@<TRIPOS>MOLECULE
3k3i_JZJ_A_1.pdb
 22 25 0 0 0
SMALL
GASTEIGER

@<TRIPOS>ATOM
      1  N1         2.1460    3.7520  -17.7100 N.3     1  JZJ1       -0.1986
      2  N3        -0.0120    2.8810  -15.1770 N.2     1  JZJ1       -0.3561
      3  C4         1.1940    3.3600  -15.5430 C.1     1  JZJ1        0.0751
      4  C5         3.9100    2.1980  -18.5350 C.ar    1  JZJ1       -0.0086
      5  C6         4.2510    1.9190  -17.2070 C.ar    1  JZJ1       -0.0223
      6  C7         4.7380    1.7160  -19.5770 C.ar    1  JZJ1       -0.0032
      7  C8         5.3770    1.1660  -16.8800 C.ar    1  JZJ1       -0.0045
      8  C10        6.1810    0.6800  -17.9170 C.ar    1  JZJ1       -0.0003
      9  C13       -1.7960    3.5100  -13.4710 C.ar    1  JZJ1        0.0283
     10  C15       -2.4340    4.5810  -12.8230 C.ar    1  JZJ1        0.0028
     11  C17       -3.6500    4.3380  -12.1570 C.ar    1  JZJ1        0.0068
     12 BR         -5.7690    2.7530  -11.1620 Br      1  JZJ1       -0.0490
     13  C18       -4.1530    3.0400  -12.1540 C.ar    1  JZJ1        0.0346
     14  C14       -2.3050    2.2070  -13.4210 C.ar    1  JZJ1        0.0028
     15  C16       -3.4990    1.9650  -12.7420 C.ar    1  JZJ1        0.0068
     16  C11       -0.4950    3.7000  -14.1860 C.2     1  JZJ1        0.1453
     17  N2         1.5330    4.4310  -14.7550 N.2     1  JZJ1       -0.2050
     18  C12        0.4810    4.6520  -13.9060 C.3     1  JZJ1        0.1963
     19  C1         2.0090    2.7610  -16.6070 C.3     1  JZJ1        0.1735
     20  C2         2.6820    3.0200  -18.9030 C.3     1  JZJ1        0.1159
     21  C3         3.3840    2.4170  -16.0520 C.3     1  JZJ1        0.0597
     22  C9         5.8470    0.9450  -19.2370 C.ar    1  JZJ1       -0.0003
@<TRIPOS>BOND
     1     6    22   ar
     2     6     4   ar
     3    22     8   ar
     4    20     4    1
     5    20     1    1
     6     4     5   ar
     7     8     7   ar
     8     1    19    1
     9     5     7   ar
    10     5    21    1
    11    19    21    1
    12    19     3    1
    13     3     2    2
    14     3    17    2
    15     2    16    2
    16    17    18    1
    17    16    18    1
    18    16     9    1
    19     9    14   ar
    20     9    10   ar
    21    14    15   ar
    22    10    11   ar
    23    15    13   ar
    24    11    13   ar
    25    13    12    1
