@<TRIPOS>MOLECULE
3k3i_I46_A_1.pdb
 19 21 0 0 0
SMALL
GASTEIGER

@<TRIPOS>ATOM
      1  C1       -24.6120   15.2180  -14.4580 C.ar  353  I46353     -0.0012
      2  C2       -26.2040   16.2220  -12.9130 C.ar  353  I46353     -0.0012
      3  C3       -25.0210   16.1130  -15.4580 C.ar  353  I46353      0.0293
      4  C4       -26.6160   17.1090  -13.9120 C.ar  353  I46353      0.0293
      5  C5       -24.6300   15.4870   -8.5730 C.ar  353  I46353      0.0221
      6  C6       -24.4200   16.5560   -7.7090 C.ar  353  I46353      0.1013
      7  C7       -23.8320   16.8530  -10.4170 C.ar  353  I46353      0.0509
      8  C8       -24.8130   12.9150  -12.4110 C.2   353  I46353      0.1057
      9  C9       -25.1860   15.2980  -13.1870 C.ar  353  I46353     -0.0110
     10  C10      -26.0120   17.0580  -15.1770 C.ar  353  I46353      0.1401
     11  C11      -24.3590   15.6640   -9.9380 C.ar  353  I46353      0.0213
     12  C12      -23.6440   17.8970   -9.4880 C.ar  353  I46353      0.2224
     13  C13      -24.8350   14.2930  -12.1720 C.3   353  I46353      0.1073
     14  C14      -24.5250   14.4560  -10.7530 C.2   353  I46353      0.0901
     15  N15      -24.5130   12.2830  -11.2660 N.2   353  I46353     -0.1507
     16  N16      -23.9570   17.7300   -8.1760 N.ar  353  I46353     -0.2165
     17  N17      -24.3230   13.2240  -10.2460 N.2   353  I46353     -0.1519
     18  F18      -26.3840   17.9120  -16.1470 F     353  I46353     -0.2042
     19  F19      -23.1840   19.0830   -9.9130 F     353  I46353     -0.1832
@<TRIPOS>BOND
     1    18    10    1
     2     3    10   ar
     3     3     1   ar
     4    10     4   ar
     5     1     9   ar
     6     4     2   ar
     7     9     2   ar
     8     9    13    1
     9     8    13    1
    10     8    15    2
    11    13    14    1
    12    15    17    1
    13    14    17    2
    14    14    11    1
    15     7    11   ar
    16     7    12   ar
    17    11     5   ar
    18    19    12    1
    19    12    16   ar
    20     5     6   ar
    21    16     6   ar
