@<TRIPOS>MOLECULE
3k3j_F4C_A_1.pdb
 34 37 0 0 0
SMALL
GASTEIGER

@<TRIPOS>ATOM
      1  N1        -0.7770    4.1060  -14.2440 N.ar  361  F4C361     -0.1943
      2  N3         1.9400    3.0900  -17.2680 N.am  361  F4C361     -0.1967
      3  C4         0.3910    6.1300  -13.7940 C.ar  361  F4C361      0.1018
      4  C5         4.5690    1.4420  -20.2240 C.3   361  F4C361      0.4183
      5  C6         2.1850    4.1870  -16.5420 C.2   361  F4C361      0.2698
      6  C7         4.8980    1.3730  -18.7630 C.ar  361  F4C361      0.0691
      7  C8        -1.9210    3.4310  -13.7740 C.ar  361  F4C361      0.0861
      8  C10        0.3950    7.4000  -13.0160 C.ar  361  F4C361      0.0224
      9  C13       -3.0950    4.1850  -13.7310 C.ar  361  F4C361      0.0216
     10  C15       -4.2530    3.6250  -13.2320 C.ar  361  F4C361      0.0312
     11  C17        6.0750    0.7170  -18.3830 C.ar  361  F4C361      0.0036
     12  C20        1.0670    8.5170  -13.5130 C.ar  361  F4C361      0.0222
     13  C21       -0.3410    7.5190  -11.8430 C.ar  361  F4C361      0.0222
     14  C22        4.3440    1.8840  -16.4720 C.ar  361  F4C361     -0.0026
     15  C24        5.5220    1.2440  -16.0800 C.ar  361  F4C361     -0.0003
     16  F4        -5.3690    1.7900  -12.3000 F     361  F4C361     -0.2042
     17  C14       -4.2340    2.3130  -12.7720 C.ar  361  F4C361      0.1402
     18  C16       -3.0640    1.5540  -12.7950 C.ar  361  F4C361      0.0312
     19  C12       -1.8850    2.1270  -13.2790 C.ar  361  F4C361      0.0216
     20  C2         0.1030    3.7140  -15.1960 C.ar  361  F4C361      0.2848
     21  O1        -0.0330    2.6240  -15.8140 O.2   361  F4C361     -0.2650
     22  N2        -0.6120    5.3100  -13.5620 N.ar  361  F4C361     -0.1625
     23  C18        1.0390    9.7120  -12.8030 C.ar  361  F4C361      0.0989
     24  C19       -0.3430    8.7430  -11.1720 C.ar  361  F4C361      0.0989
     25  N4         0.3630    9.7940  -11.6590 N.ar  361  F4C361     -0.2423
     26  C3         1.3240    5.7730  -14.7930 C.ar  361  F4C361      0.0303
     27  C1         1.1880    4.5510  -15.4740 C.ar  361  F4C361      0.1143
     28  O2         3.1710    4.9100  -16.7450 O.2   361  F4C361     -0.2682
     29  C11        2.7700    2.6180  -18.3320 C.3   361  F4C361      0.1418
     30  C9         4.0340    1.9480  -17.8330 C.ar  361  F4C361      0.0033
     31  C23        6.3770    0.6500  -17.0350 C.ar  361  F4C361     -0.0001
     32  F1         5.6640    1.1370  -20.9070 F     361  F4C361     -0.1659
     33  F2         3.5760    0.6090  -20.5090 F     361  F4C361     -0.1659
     34  F3         4.1890    2.6790  -20.5140 F     361  F4C361     -0.1659
@<TRIPOS>BOND
     1    32     4    1
     2    34     4    1
     3    33     4    1
     4     4     6    1
     5     6    11   ar
     6     6    30   ar
     7    11    31   ar
     8    29    30    1
     9    29     2    1
    10    30    14   ar
    11     2     5   am
    12    31    15   ar
    13    28     5    2
    14     5    27    1
    15    14    15   ar
    16    21    20    2
    17    27    20   ar
    18    27    26   ar
    19    20     1   ar
    20    26     3   ar
    21     1     7    1
    22     1    22   ar
    23     3    22   ar
    24     3     8    1
    25     7     9   ar
    26     7    19   ar
    27     9    10   ar
    28    12     8   ar
    29    12    23   ar
    30    19    18   ar
    31    10    17   ar
    32     8    13   ar
    33    23    25   ar
    34    18    17   ar
    35    17    16    1
    36    13    24   ar
    37    25    24   ar
