@<TRIPOS>MOLECULE
3k3j_I46_A_1.pdb
 19 21 0 0 0
SMALL
GASTEIGER

@<TRIPOS>ATOM
      1  C1       -24.6250   15.2460  -14.7030 C.ar  362  I46362     -0.0012
      2  C2       -26.1900   16.1900  -13.1200 C.ar  362  I46362     -0.0012
      3  C3       -25.0420   16.1680  -15.6560 C.ar  362  I46362      0.0293
      4  C4       -26.6430   17.1070  -14.0820 C.ar  362  I46362      0.0293
      5  C5       -24.5940   15.4850   -8.7700 C.ar  362  I46362      0.0221
      6  C6       -24.3920   16.5100   -7.8690 C.ar  362  I46362      0.1013
      7  C7       -23.8320   16.8510  -10.5960 C.ar  362  I46362      0.0509
      8  C8       -24.8200   12.9350  -12.7120 C.2   362  I46362      0.1057
      9  C9       -25.1270   15.3100  -13.4330 C.ar  362  I46362     -0.0110
     10  C10      -26.0690   17.0660  -15.3460 C.ar  362  I46362      0.1401
     11  C11      -24.3390   15.6460  -10.1180 C.ar  362  I46362      0.0213
     12  C12      -23.6590   17.8730   -9.6490 C.ar  362  I46362      0.2224
     13  C13      -24.7730   14.2940  -12.4210 C.3   362  I46362      0.1073
     14  C14      -24.5200   14.4310  -10.9790 C.2   362  I46362      0.0901
     15  N15      -24.5470   12.2500  -11.5540 N.2   362  I46362     -0.1507
     16  N16      -23.9190   17.6780   -8.3460 N.ar  362  I46362     -0.2165
     17  N17      -24.3570   13.1750  -10.5070 N.2   362  I46362     -0.1519
     18  F18      -26.4570   17.9260  -16.2960 F     362  I46362     -0.2042
     19  F19      -23.1750   19.0810  -10.0130 F     362  I46362     -0.1832
@<TRIPOS>BOND
     1    18    10    1
     2     3    10   ar
     3     3     1   ar
     4    10     4   ar
     5     1     9   ar
     6     4     2   ar
     7     9     2   ar
     8     9    13    1
     9     8    13    1
    10     8    15    2
    11    13    14    1
    12    15    17    1
    13    14    17    2
    14    14    11    1
    15     7    11   ar
    16     7    12   ar
    17    11     5   ar
    18    19    12    1
    19    12    16   ar
    20     5     6   ar
    21    16     6   ar
