@<TRIPOS>MOLECULE
3k3k_A8S_B_1.pdb
 19 19 0 0 0
SMALL
GASTEIGER

@<TRIPOS>ATOM
      1  C1        11.5290   12.4260   26.5570 C.2   1001  A8S1001     0.3876
      2  C2        10.1180   12.8860   26.7090 C.2   1001  A8S1001     0.0819
      3  C3         9.5190   13.3310   27.8350 C.2   1001  A8S1001    -0.0155
      4  C4        10.2620   13.4600   29.1050 C.2   1001  A8S1001    -0.0059
      5  C5         9.6620   13.8210   30.2570 C.2   1001  A8S1001     0.0069
      6  C6         8.0480   13.7070   27.7780 C.3   1001  A8S1001     0.0312
      7  C7        10.4070   13.9180   31.5630 C.3   1001  A8S1001     0.1605
      8  O7        11.8020   13.6140   31.4040 O.3   1001  A8S1001    -0.2170
      9  C8        10.3050   15.3960   31.9030 C.2   1001  A8S1001    -0.0101
     10  C9         9.3570   15.8340   32.7410 C.2   1001  A8S1001     0.0316
     11  C10        8.3710   14.8880   33.3180 C.2   1001  A8S1001     0.1727
     12  O10        7.5770   15.3000   34.1420 O.2   1001  A8S1001    -0.2914
     13  C11        8.3550   13.4280   32.9070 C.3   1001  A8S1001     0.0721
     14  O11       11.9260   11.9420   25.4520 O.co2 1001  A8S1001    -0.2406
     15  C12        9.7930   12.9810   32.6370 C.3   1001  A8S1001     0.0401
     16  O12       12.3110   12.4540   27.5270 O.co2 1001  A8S1001    -0.2406
     17  C13       11.2470   16.3860   31.2760 C.3   1001  A8S1001     0.0292
     18  C14       10.6500   13.0230   33.9120 C.3   1001  A8S1001     0.0036
     19  C15        9.7960   11.5070   32.2060 C.3   1001  A8S1001     0.0036
@<TRIPOS>BOND
     1    14     1   ar
     2     1     2    1
     3     1    16   ar
     4     2     3    2
     5     6     3    1
     6     3     4    1
     7     4     5    2
     8     5     7    1
     9    17     9    1
    10     8     7    1
    11     7     9    1
    12     7    15    1
    13     9    10    2
    14    19    15    1
    15    15    13    1
    16    15    18    1
    17    10    11    1
    18    13    11    1
    19    11    12    2
