@<TRIPOS>MOLECULE
3k3l_DBS_A_1.pdb
 17 17 0 0 0
SMALL
GASTEIGER

@<TRIPOS>ATOM
      1  O4        26.8080   76.7590   63.6200 O.3   301  DBS301     -0.2831
      2  C4        26.7420   78.0670   63.2450 C.ar  301  DBS301      0.2344
      3  C7        25.8630   78.4490   62.2380 C.ar  301  DBS301      0.0454
      4  C1        27.6950   78.9590   63.7130 C.ar  301  DBS301      0.2386
      5  O1        28.5350   78.5410   64.7020 O.3   301  DBS301     -0.2830
      6  C16       27.7790   80.2450   63.1800 C.ar  301  DBS301      0.0971
      7  C13       26.8970   80.6210   62.1670 C.ar  301  DBS301      0.0080
      8  C10       25.9400   79.7260   61.6980 C.ar  301  DBS301      0.0036
      9  C19       28.8050   81.2350   63.6690 C.2   301  DBS301      0.2685
     10  O7        29.0790   82.1940   62.9640 O.2   301  DBS301     -0.2682
     11  N1        29.3770   81.0400   64.8620 N.am  301  DBS301     -0.1890
     12  C22       30.3930   81.9090   65.4550 C.3   301  DBS301      0.2307
     13  C28       29.7340   82.7620   66.5510 C.3   301  DBS301      0.2152
     14  O13       28.4230   82.2890   66.8930 O.3   301  DBS301     -0.2179
     15  C25       31.5160   81.0710   66.0050 C.2   301  DBS301      0.3869
     16  O10       31.3080   80.3580   67.0150 O.co2 301  DBS301     -0.2437
     17  O15       32.6220   81.1040   65.4190 O.co2 301  DBS301     -0.2437
@<TRIPOS>BOND
     1     8     7   ar
     2     8     3   ar
     3     7     6   ar
     4     3     2   ar
     5    10     9    2
     6     6     9    1
     7     6     4   ar
     8     2     1    1
     9     2     4   ar
    10     9    11   am
    11     4     5    1
    12    11    12    1
    13    17    15   ar
    14    12    15    1
    15    12    13    1
    16    15    16   ar
    17    13    14    1
