@<TRIPOS>MOLECULE
3k3l_MCK_C_1.pdb
 39 40 0 0 0
SMALL
GASTEIGER

@<TRIPOS>ATOM
      1  C1        52.1730   40.5480   43.3450 C.ar  179  MCK179      0.0971
      2  C2        50.8690   40.1690   43.6470 C.ar  179  MCK179      0.2386
      3  C3        50.3160   40.4960   44.8730 C.ar  179  MCK179      0.2344
      4  C4        51.0480   41.2070   45.8160 C.ar  179  MCK179      0.0454
      5  C5        52.3470   41.5930   45.5210 C.ar  179  MCK179      0.0036
      6  C6        52.9090   41.2670   44.2900 C.ar  179  MCK179      0.0080
      7  C7        52.7980   40.2160   42.0160 C.2   179  MCK179      0.2686
      8  O8        54.0110   40.2950   41.9040 O.2   179  MCK179     -0.2682
      9  N9        52.0170   39.9040   40.9760 N.am  179  MCK179     -0.1879
     10  O10       50.1120   39.4720   42.7540 O.3   179  MCK179     -0.2830
     11  O11       49.0450   40.1160   45.1500 O.3   179  MCK179     -0.2831
     12  C12       52.5240   39.7820   39.6170 C.3   179  MCK179      0.2370
     13  C13       51.4120   39.8490   38.5980 C.2   179  MCK179      0.3409
     14  C14       53.3380   38.5040   39.4360 C.3   179  MCK179      0.2414
     15  O15       52.4710   37.3740   39.3830 O.3   179  MCK179     -0.4449
     16  O16       51.5800   39.4040   37.4730 O.2   179  MCK179     -0.2481
     17  O17       50.1290   40.4550   38.9510 O.3   179  MCK179     -0.4447
     18  C18       49.0780   40.6620   37.9970 C.3   179  MCK179      0.2416
     19  C19       47.8420   39.8190   38.3400 C.3   179  MCK179      0.2414
     20  N20       48.0230   39.1520   39.6210 N.am  179  MCK179     -0.1878
     21  C21       47.5390   38.8420   37.2370 C.2   179  MCK179      0.3880
     22  O22       47.1690   39.2390   36.1430 O.co2 179  MCK179     -0.2436
     23  O23       47.6750   37.4100   37.4550 O.co2 179  MCK179     -0.2436
     24  C24       52.6780   36.2200   40.2450 C.2   179  MCK179      0.3373
     25  O25       51.7350   35.8330   40.9190 O.2   179  MCK179     -0.2484
     26  C26       54.0030   35.5050   40.3060 C.3   179  MCK179      0.2227
     27  N27       54.9210   36.0050   39.2970 N.3   179  MCK179     -0.1181
     28  C28       54.6380   35.6800   41.6800 C.3   179  MCK179      0.2124
     29  C29       47.0060   38.7660   40.3930 C.2   179  MCK179      0.2686
     30  O30       45.8360   38.8990   40.0640 O.2   179  MCK179     -0.2682
     31  C31       47.3320   38.1650   41.7320 C.ar  179  MCK179      0.0971
     32  C32       48.0410   36.9720   41.8260 C.ar  179  MCK179      0.2386
     33  C33       48.3380   36.4310   43.0740 C.ar  179  MCK179      0.2344
     34  C34       47.9270   37.0850   44.2330 C.ar  179  MCK179      0.0454
     35  C35       47.2170   38.2750   44.1380 C.ar  179  MCK179      0.0036
     36  C36       46.9260   38.8210   42.8910 C.ar  179  MCK179      0.0080
     37  O37       48.4470   36.3270   40.6960 O.3   179  MCK179     -0.2830
     38  O38       49.0290   35.2610   43.1740 O.3   179  MCK179     -0.2831
     39  O45       55.6280   34.6620   41.8640 O.3   179  MCK179     -0.2182
@<TRIPOS>BOND
     1    22    21   ar
     2    21    23   ar
     3    21    19    1
     4    16    13    2
     5    18    19    1
     6    18    17    1
     7    19    20    1
     8    13    17    1
     9    13    12    1
    10    27    26    1
    11    15    14    1
    12    15    24    1
    13    14    12    1
    14    12     9    1
    15    20    29   am
    16    30    29    2
    17    24    26    1
    18    24    25    2
    19    26    28    1
    20    29    31    1
    21    37    32    1
    22     9     7   am
    23    28    39    1
    24    31    32   ar
    25    31    36   ar
    26    32    33   ar
    27     8     7    2
    28     7     1    1
    29    10     2    1
    30    36    35   ar
    31    33    38    1
    32    33    34   ar
    33     1     2   ar
    34     1     6   ar
    35     2     3   ar
    36    35    34   ar
    37     6     5   ar
    38     3    11    1
    39     3     4   ar
    40     5     4   ar
