@<TRIPOS>MOLECULE
3k3l_DBH_A_1.pdb
 11 11 0 0 0
SMALL
GASTEIGER

@<TRIPOS>ATOM
      1  O17       32.8830   77.7100   67.5570 O.co2 303  DBH303     -0.2404
      2  C21       33.3150   76.9200   66.6880 C.2   303  DBH303      0.3910
      3  O9        34.4750   77.0220   66.2330 O.co2 303  DBH303     -0.2404
      4  C18       32.4200   75.8270   66.1730 C.ar  303  DBH303      0.1218
      5  C15       32.9730   74.5990   65.8080 C.ar  303  DBH303      0.0100
      6  C12       32.1550   73.5800   65.3270 C.ar  303  DBH303      0.0037
      7  C3        31.0490   76.0300   66.0550 C.ar  303  DBH303      0.2405
      8  O3        30.4950   77.2250   66.4080 O.3   303  DBH303     -0.2829
      9  C6        30.2320   75.0140   65.5760 C.ar  303  DBH303      0.2345
     10  C9        30.7840   73.7880   65.2110 C.ar  303  DBH303      0.0454
     11  O6        28.8900   75.2170   65.4610 O.3   303  DBH303     -0.2831
@<TRIPOS>BOND
     1    10     6   ar
     2    10     9   ar
     3     6     5   ar
     4    11     9    1
     5     9     7   ar
     6     5     4   ar
     7     7     4   ar
     8     7     8    1
     9     4     2    1
    10     3     2   ar
    11     2     1   ar
