@<TRIPOS>MOLECULE
3k3o_AKG_A_1.pdb
 10 9 0 0 0
SMALL
GASTEIGER

@<TRIPOS>ATOM
      1  C1       -10.4410   -4.2800  -17.7130 C.2   456  AKG456      0.4219
      2  O1        -9.7140   -3.9680  -18.6820 O.co2 456  AKG456     -0.2373
      3  O2       -11.0410   -3.4050  -17.0490 O.co2 456  AKG456     -0.2373
      4  C2       -10.6040   -5.6880  -17.3490 C.2   456  AKG456      0.2526
      5  O5       -11.1820   -5.9850  -16.3130 O.2   456  AKG456     -0.2843
      6  C3       -10.0880   -6.7820  -18.2580 C.3   456  AKG456      0.0881
      7  C4        -8.6080   -7.0430  -17.9980 C.3   456  AKG456      0.1224
      8  C5        -8.1470   -8.2680  -18.7610 C.2   456  AKG456      0.3653
      9  O3        -8.8440   -8.6870  -19.7150 O.co2 456  AKG456     -0.2456
     10  O4        -7.0800   -8.8250  -18.4170 O.co2 456  AKG456     -0.2456
@<TRIPOS>BOND
     1     9     8   ar
     2     8    10   ar
     3     8     7    1
     4     2     1   ar
     5     6     7    1
     6     6     4    1
     7     1     4    1
     8     1     3   ar
     9     4     5    2
