@<TRIPOS>MOLECULE
3k3u_HEM_A_1.pdb
 43 50 0 0 0
SMALL
GASTEIGER

@<TRIPOS>ATOM
      1  CHA        7.5390   -4.7120   12.2700 C.2   139  HEM139      0.0000
      2  CHB        8.5840   -0.2810   10.5900 C.2   139  HEM139      0.0000
      3  CHC        4.5320    1.4430   12.6850 C.2   139  HEM139      0.0000
      4  CHD        3.4070   -3.0070   14.2890 C.2   139  HEM139      0.0000
      5  C1A        8.2100   -3.6690   11.6620 C.ar  139  HEM139      0.0000
      6  C2A        9.5200   -3.7280   11.0350 C.ar  139  HEM139      0.0000
      7  C3A        9.7970   -2.4880   10.5790 C.ar  139  HEM139      0.0000
      8  C4A        8.6890   -1.6240   10.9000 C.ar  139  HEM139      0.0000
      9  CMA       11.0660   -2.0470    9.8250 C.3   139  HEM139      0.0000
     10  CAA       10.4300   -4.9800   10.9440 C.3   139  HEM139      0.0000
     11  CBA       11.0930   -5.2790   12.2880 C.3   139  HEM139      0.0000
     12  CGA       11.9340   -6.5280   12.1660 C.2   139  HEM139      0.0000
     13  O1A       11.3540   -7.6130   11.9560 O.co2 139  HEM139      0.0000
     14  O2A       13.1870   -6.4640   12.2840 O.co2 139  HEM139      0.0000
     15  C1B        7.6070    0.5800   11.0460 C.2   139  HEM139      0.0000
     16  C2B        7.5700    2.0100   10.8410 C.2   139  HEM139      0.0000
     17  C3B        6.4490    2.4850   11.4120 C.2   139  HEM139      0.0000
     18  C4B        5.7390    1.3690   11.9940 C.2   139  HEM139      0.0000
     19  CMB        8.6600    2.8020   10.1090 C.3   139  HEM139      0.0000
     20  CAB        5.9660    3.9490   11.5070 C.2   139  HEM139      0.0000
     21  CBB        6.2570    4.9360   10.6450 C.2   139  HEM139      0.0000
     22  C1C        3.8950    0.4010   13.3260 C.ar  139  HEM139      0.0000
     23  C2C        2.7270    0.5160   14.1880 C.ar  139  HEM139      0.0000
     24  C3C        2.4320   -0.7200   14.6370 C.ar  139  HEM139      0.0000
     25  C4C        3.3830   -1.6450   14.0750 C.ar  139  HEM139      0.0000
     26  CMC        2.0030    1.8530   14.4770 C.3   139  HEM139      0.0000
     27  CAC        1.2850   -1.1880   15.5640 C.2   139  HEM139      0.0000
     28  CBC        0.7600   -0.3970   16.4910 C.2   139  HEM139      0.0000
     29  C1D        4.4050   -3.8580   13.9190 C.2   139  HEM139      0.0000
     30  C2D        4.4500   -5.2450   14.2580 C.2   139  HEM139      0.0000
     31  C3D        5.7310   -5.7900   13.6430 C.2   139  HEM139      0.0000
     32  C4D        6.3560   -4.6640   12.9680 C.2   139  HEM139      0.0000
     33  CMD        3.4100   -6.0240   15.0830 C.3   139  HEM139      0.0000
     34  CAD        6.2550   -7.2440   13.7390 C.3   139  HEM139      0.0000
     35  CBD        6.5440   -7.6190   15.1890 C.3   139  HEM139      0.0000
     36  CGD        7.7130   -6.8170   15.6920 C.2   139  HEM139      0.0000
     37  O1D        8.5790   -6.4590   14.8580 O.co2 139  HEM139      0.0000
     38  O2D        7.7740   -6.5270   16.9190 O.co2 139  HEM139      0.0000
     39  NA         7.7190   -2.3830   11.5440 N.ar  139  HEM139      0.0000
     40  NB         6.4530    0.2170   11.7160 N.2   139  HEM139      0.0000
     41  NC         4.2600   -0.9390   13.2610 N.ar  139  HEM139      0.0000
     42  ND         5.5200   -3.5430   13.1180 N.2   139  HEM139      0.0000
     43 FE          5.9450   -1.6730   12.3380 Fe    139  HEM139      0.0000
@<TRIPOS>BOND
     1     9     7    1
     2    19    16    1
     3     7     8   ar
     4     7     6   ar
     5     2     8    2
     6     2    15    1
     7    21    20    2
     8    16    15    1
     9    16    17    2
    10     8    39   ar
    11    10     6    1
    12    10    11    1
    13     6     5   ar
    14    15    40    2
    15    17    20    1
    16    17    18    1
    17    39     5   ar
    18    39    43    1
    19     5     1    2
    20    40    18    1
    21    40    43    1
    22    13    12   ar
    23    18     3    2
    24    12    14   ar
    25    12    11    1
    26     1    32    1
    27    43    42    1
    28    43    41    1
    29     3    22    1
    30    32    42    2
    31    32    31    1
    32    42    29    1
    33    41    22   ar
    34    41    25   ar
    35    22    23   ar
    36    31    34    1
    37    31    30    2
    38    34    35    1
    39    29    30    1
    40    29     4    2
    41    25     4    1
    42    25    24   ar
    43    23    26    1
    44    23    24   ar
    45    30    33    1
    46    24    27    1
    47    37    36   ar
    48    35    36    1
    49    27    28    2
    50    36    38   ar
