@<TRIPOS>MOLECULE
3k41_M6D_A_1.pdb
 16 16 0 0 0
SMALL
GASTEIGER

@<TRIPOS>ATOM
      1  C1        21.4440    7.9660   25.9290 C.3   500  M6D500      0.3024
      2  C2        20.6860    8.0600   24.5740 C.3   500  M6D500      0.2434
      3  C3        19.1630    8.2860   24.8610 C.3   500  M6D500      0.2199
      4  C4        18.6150    7.1490   25.7510 C.3   500  M6D500      0.2143
      5  C5        19.4180    7.1250   27.0790 C.3   500  M6D500      0.1808
      6  C6        18.9620    5.9860   27.9870 C.3   500  M6D500      0.1859
      7  O1        22.7930    7.6100   25.7210 O.3   500  M6D500     -0.1869
      8  O2        20.8640    6.8490   23.8240 O.3   500  M6D500     -0.2148
      9  O3        18.4190    8.3380   23.6450 O.3   500  M6D500     -0.2174
     10  O4        17.2250    7.3750   25.9970 O.3   500  M6D500     -0.2176
     11  O5        20.8430    6.9300   26.7740 O.3   500  M6D500     -0.3237
     12  O6        19.6440    5.9130   29.2400 O.3   500  M6D500     -0.2675
     13  P         19.8910    4.5570   30.0360 P.3   500  M6D500      0.5327
     14  O1P       18.5850    3.8740   30.3430 O.3   500  M6D500     -0.1145
     15  O2P       20.6040    4.8230   31.3430 O.3   500  M6D500     -0.1145
     16  O3P       20.7570    3.6200   29.2110 O.2   500  M6D500     -0.2224
@<TRIPOS>BOND
     1     9     3    1
     2     8     2    1
     3     2     3    1
     4     2     1    1
     5     3     4    1
     6     7     1    1
     7     4    10    1
     8     4     5    1
     9     1    11    1
    10    11     5    1
    11     5     6    1
    12     6    12    1
    13    16    13    2
    14    12    13    1
    15    13    14    1
    16    13    15    1
