@<TRIPOS>MOLECULE
3k42_1GP_A_1.pdb
 10 9 0 0 0
SMALL
GASTEIGER

@<TRIPOS>ATOM
      1  C3        13.3720   18.5860   -5.0450 C.3   7000  1GP7000     0.2174
      2  O3        11.4250   17.4590   -4.2280 O.3   7000  1GP7000    -0.2176
      3  C2        11.9880   18.7610   -4.4290 C.3   7000  1GP7000     0.2147
      4  O2        14.1960   17.8380   -4.1380 O.3   7000  1GP7000    -0.2175
      5  C1        11.0710   19.5720   -5.3650 C.3   7000  1GP7000     0.1892
      6  O1P        9.7960   19.7350   -4.7170 O.3   7000  1GP7000    -0.2674
      7  O2P        8.5200   19.9130   -6.9240 O.2   7000  1GP7000    -0.2224
      8  O3P        7.4130   20.7890   -4.8730 O.3   7000  1GP7000    -0.1145
      9  O4P        9.4350   22.0360   -5.9620 O.3   7000  1GP7000    -0.1145
     10  P          8.7870   20.6020   -5.6480 P.3   7000  1GP7000     0.5327
@<TRIPOS>BOND
     1     7    10    2
     2     9    10    1
     3    10     8    1
     4    10     6    1
     5     5     6    1
     6     5     3    1
     7     1     3    1
     8     1     4    1
     9     3     2    1
