@<TRIPOS>MOLECULE
3k45_51P_A_1.pdb
 21 23 0 0 0
SMALL
GASTEIGER

@<TRIPOS>ATOM
      1  C'1       -6.0720    0.6440   13.2300 C.ar  188  51P188      0.0350
      2  C'2       -6.6270    0.4300   14.4830 C.ar  188  51P188      0.1953
      3  C'3       -7.8990    0.9050   14.7930 C.ar  188  51P188      0.0420
      4  C'4       -8.6030    1.5840   13.8070 C.ar  188  51P188      0.0033
      5  C'5       -8.0600    1.7870   12.5290 C.ar  188  51P188      0.0002
      6  C'6       -6.7830    1.3140   12.2310 C.ar  188  51P188      0.0029
      7  N1'       -1.2250    4.8580   14.0940 N.2   188  51P188     -0.2915
      8  C10       -4.8480   -1.3760   12.5470 C.3   188  51P188      0.0311
      9  C11       -4.8140    0.0940   13.0200 C.2   188  51P188     -0.0190
     10  O13       -5.8930   -0.2680   15.3690 O.3   188  51P188     -0.2866
     11  C2'        0.0340    4.4520   13.8440 C.1   188  51P188      0.2450
     12  N2'        1.0430    5.3500   13.9320 N.pl3 188  51P188     -0.0231
     13  N3'        0.2780    3.1490   13.5150 N.2   188  51P188     -0.3110
     14  C4'       -0.7280    2.2260   13.4040 C.2   188  51P188      0.2239
     15  N4'       -0.4010    0.9330   13.0520 N.pl3 188  51P188     -0.0961
     16  C5'       -2.0670    2.6500   13.6670 C.3   188  51P188      0.1861
     17  C6'       -3.3450    2.0540   13.6820 C.2   188  51P188      0.0330
     18  C7'       -4.2600    2.9900   13.9890 C.2   188  51P188      0.1788
     19  C8'       -2.2600    3.9890   14.0180 C.2   188  51P188      0.2814
     20  O8'       -3.5910    4.2110   14.1880 O.2   188  51P188     -0.4265
     21  C9'       -3.5810    0.7240   13.3120 C.2   188  51P188     -0.0043
@<TRIPOS>BOND
     1     6     5   ar
     2     6     1   ar
     3     5     4   ar
     4     8     9    1
     5     9     1    1
     6     9    21    2
     7    15    14    1
     8     1     2   ar
     9    21    17    1
    10    14    13    2
    11    14    16    1
    12    13    11    2
    13    16    17    1
    14    16    19    1
    15    17    18    2
    16     4     3   ar
    17    11    12    1
    18    11     7    2
    19    18    20    1
    20    19     7    2
    21    19    20    1
    22     2     3   ar
    23     2    10    1
