@<TRIPOS>MOLECULE
3k45_NDP_A_1.pdb
 48 52 0 0 0
SMALL
GASTEIGER

@<TRIPOS>ATOM
      1  PA        -2.2130   -9.2080   17.0510 P.3   187  NDP187      0.2189
      2  O1A       -2.9840   -8.0420   16.5490 O.3   187  NDP187     -0.4371
      3  O2A       -0.8660   -9.3300   16.4570 O.2   187  NDP187     -0.5170
      4  O5B       -3.0510  -10.5480   16.7860 O.3   187  NDP187     -0.3112
      5  C5B       -2.3940  -11.7380   17.1770 C.3   187  NDP187      0.1813
      6  C4B       -2.7410  -12.9140   16.2890 C.3   187  NDP187      0.1820
      7  O4B       -2.1950  -12.7510   14.9810 O.3   187  NDP187     -0.3136
      8  C3B       -2.0970  -14.2100   16.7780 C.3   187  NDP187      0.2157
      9  O3B       -2.7270  -14.8270   17.8860 O.3   187  NDP187     -0.2175
     10  C2B       -2.1880  -15.0270   15.5100 C.3   187  NDP187      0.2314
     11  O2B       -3.5480  -15.2920   15.2510 O.3   187  NDP187     -0.2630
     12  C1B       -1.7990  -13.9920   14.4570 C.3   187  NDP187      0.3158
     13  N9A       -0.3400  -13.9500   14.2260 N.pl3 187  NDP187     -0.1439
     14  C8A        0.5960  -13.1710   14.8690 C.3   187  NDP187      0.3377
     15  N7A        1.8120  -13.4340   14.3370 N.2   187  NDP187     -0.2095
     16  C5A        1.6590  -14.3620   13.3580 C.2   187  NDP187      0.2526
     17  C6A        2.5460  -14.9950   12.4730 C.2   187  NDP187      0.4393
     18  N6A        3.8520  -14.9710   12.6930 N.pl3 187  NDP187      0.2180
     19  N1A        2.0480  -15.9060   11.5600 N.2   187  NDP187      0.0021
     20  C2A        0.7020  -16.1900   11.5110 C.3   187  NDP187      0.5254
     21  N3A       -0.1570  -15.5700   12.3940 N.2   187  NDP187     -0.0055
     22  C4A        0.3120  -14.6780   13.2810 C.2   187  NDP187      0.3518
     23  O3        -2.2610   -9.1920   18.6780 O.3   187  NDP187     -0.2703
     24  PN        -1.1200   -8.9030   19.7940 P.3   187  NDP187      0.2189
     25  O1N       -1.7070   -9.3850   21.0830 O.3   187  NDP187     -0.4371
     26  O2N        0.2370   -9.3760   19.4080 O.2   187  NDP187     -0.5170
     27  O5D       -1.0940   -7.2760   19.8270 O.3   187  NDP187     -0.3112
     28  C5D       -2.1490   -6.5990   20.4890 C.3   187  NDP187      0.1813
     29  C4D       -1.9820   -5.0810   20.6510 C.3   187  NDP187      0.1799
     30  O4D       -1.6100   -4.3760   19.4640 O.3   187  NDP187     -0.3327
     31  C3D       -3.3200   -4.4710   21.0590 C.3   187  NDP187      0.2158
     32  O3D       -3.1730   -3.8440   22.2970 O.3   187  NDP187     -0.2175
     33  C2D       -3.6390   -3.4030   20.0210 C.3   187  NDP187      0.2309
     34  O2D       -4.2770   -2.2500   20.5780 O.3   187  NDP187     -0.2158
     35  C1D       -2.2360   -3.1000   19.5620 C.3   187  NDP187      0.2263
     36  N1N       -2.1830   -2.1880   18.3910 N.pl3 187  NDP187     -0.2787
     37  C2N       -1.4190   -1.0670   18.5840 C.3   187  NDP187      0.1244
     38  C3N       -0.9910   -0.3050   17.5100 C.2   187  NDP187      0.0544
     39  C7N       -0.1480    0.9000   17.8100 C.2   187  NDP187      0.2818
     40  O7N        0.3010    1.6090   16.7110 O.2   187  NDP187     -0.2670
     41  N7N        0.1550    1.2500   19.0760 N.am  187  NDP187     -0.0839
     42  C4N       -1.3520   -0.6650   16.0650 C.2   187  NDP187      0.0033
     43  C5N       -2.2060   -1.9070   15.9710 C.2   187  NDP187      0.0157
     44  C6N       -2.5720   -2.5940   17.1390 C.2   187  NDP187      0.0633
     45  P2B       -4.2290  -16.6440   15.7750 P.3   187  NDP187      0.5328
     46  O1X       -5.6220  -16.6720   15.1880 O.2   187  NDP187     -0.2224
     47  O2X       -4.2590  -16.6110   17.2990 O.3   187  NDP187     -0.1145
     48  O3X       -3.4980  -17.8400   15.2180 O.3   187  NDP187     -0.1145
@<TRIPOS>BOND
     1    20    19    1
     2    20    21    1
     3    19    17    2
     4    21    22    2
     5    17    18    1
     6    17    16    1
     7    22    16    1
     8    22    13    1
     9    16    15    2
    10    13    12    1
    11    13    14    1
    12    15    14    1
    13    12     7    1
    14    12    10    1
    15     7     6    1
    16    46    45    2
    17    48    45    1
    18    11    10    1
    19    11    45    1
    20    10     8    1
    21    45    47    1
    22    43    42    1
    23    43    44    2
    24    42    38    2
    25     6     8    1
    26     6     5    1
    27     3     1    2
    28     2     1    1
    29    40    39    2
    30     8     9    1
    31     4     1    1
    32     4     5    1
    33     1    23    1
    34    44    36    1
    35    38    39    1
    36    38    37    1
    37    39    41   am
    38    36    37    1
    39    36    35    1
    40    23    24    1
    41    26    24    2
    42    30    35    1
    43    30    29    1
    44    35    33    1
    45    24    27    1
    46    24    25    1
    47    27    28    1
    48    33    34    1
    49    33    31    1
    50    28    29    1
    51    29    31    1
    52    31    32    1
