@<TRIPOS>MOLECULE
3k47_NDP_A_1.pdb
 48 53 0 0 0
SMALL
GASTEIGER

@<TRIPOS>ATOM
      1  PA        -2.1890   -9.0770   16.8880 P.3   187  NDP187      0.2189
      2  O1A       -3.0300   -8.1340   16.0640 O.2   187  NDP187     -0.5170
      3  O2A       -0.8030   -9.2600   16.5380 O.3   187  NDP187     -0.4371
      4  O5B       -2.8740  -10.4720   16.8620 O.3   187  NDP187     -0.3112
      5  C5B       -2.2350  -11.5740   17.2960 C.3   187  NDP187      0.1815
      6  C4B       -2.8590  -12.7000   16.5830 C.3   187  NDP187      0.1864
      7  O4B       -2.6010  -12.4760   15.0700 O.3   187  NDP187     -0.3134
      8  C3B       -2.4150  -14.1970   16.8840 C.3   187  NDP187      0.2157
      9  O3B       -3.1860  -14.6740   17.9580 O.3   187  NDP187     -0.2175
     10  C2B       -3.1880  -14.3750   15.6020 C.3   187  NDP187      0.2271
     11  O2B       -3.9890  -15.4260   15.1980 O.3   187  NDP187     -0.2632
     12  C1B       -2.3090  -13.7930   14.4970 C.3   187  NDP187      0.3157
     13  N9A       -0.7940  -13.8010   14.3010 N.pl3 187  NDP187     -0.1439
     14  C8A        0.1360  -13.0040   14.8940 C.3   187  NDP187      0.3377
     15  N7A        1.3420  -13.2760   14.3860 N.2   187  NDP187     -0.2095
     16  C5A        1.1460  -14.2380   13.4330 C.2   187  NDP187      0.2526
     17  C6A        1.9850  -14.9540   12.5840 C.2   187  NDP187      0.4393
     18  N6A        3.2820  -14.7100   12.5870 N.pl3 187  NDP187      0.2180
     19  N1A        1.4620  -15.8650   11.7350 N.2   187  NDP187      0.0021
     20  C2A        0.1780  -16.1170   11.7280 C.3   187  NDP187      0.5254
     21  N3A       -0.6500  -15.4610   12.5180 N.2   187  NDP187     -0.0055
     22  C4A       -0.1880  -14.5500   13.4000 C.2   187  NDP187      0.3518
     23  O3        -2.5090   -8.6920   18.4320 O.3   187  NDP187     -0.2703
     24  PN        -1.5770   -8.3460   19.6820 P.3   187  NDP187      0.2189
     25  O1N       -0.2120   -8.8560   19.4680 O.2   187  NDP187     -0.5170
     26  O2N       -2.2980   -8.7230   20.9480 O.3   187  NDP187     -0.4371
     27  O5D       -1.5790   -6.8700   19.5560 O.3   187  NDP187     -0.3112
     28  C5D       -2.8110   -6.1240   19.4920 C.3   187  NDP187      0.1813
     29  C4D       -2.6860   -4.8680   20.3800 C.3   187  NDP187      0.1799
     30  O4D       -1.9470   -3.8430   19.6860 O.3   187  NDP187     -0.3327
     31  C3D       -4.0900   -4.3020   20.6910 C.3   187  NDP187      0.2158
     32  O3D       -4.0270   -3.8020   22.0450 O.3   187  NDP187     -0.2175
     33  C2D       -4.2630   -3.2080   19.6030 C.3   187  NDP187      0.2309
     34  O2D       -5.1310   -2.1270   20.0200 O.3   187  NDP187     -0.2158
     35  C1D       -2.8280   -2.7040   19.5050 C.3   187  NDP187      0.2263
     36  N1N       -2.4020   -2.0620   18.2480 N.pl3 187  NDP187     -0.2787
     37  C2N       -1.6880   -0.8900   18.4670 C.3   187  NDP187      0.1244
     38  C3N       -1.1400   -0.1570   17.4370 C.2   187  NDP187      0.0544
     39  C7N       -0.3850    1.1520   17.7520 C.2   187  NDP187      0.2818
     40  O7N       -0.0020    1.8280   16.8220 O.2   187  NDP187     -0.2670
     41  N7N       -0.1850    1.4990   19.0540 N.am  187  NDP187     -0.0839
     42  C4N       -1.3340   -0.6270   16.1480 C.2   187  NDP187      0.0033
     43  C5N       -2.0250   -1.8140   15.9150 C.2   187  NDP187      0.0157
     44  C6N       -2.5650   -2.5540   16.9690 C.2   187  NDP187      0.0633
     45  P2B       -4.7360  -16.6110   15.7130 P.3   187  NDP187      0.5328
     46  O1X       -6.1160  -16.2960   14.8250 O.2   187  NDP187     -0.2224
     47  O2X       -5.2220  -16.5010   17.2130 O.3   187  NDP187     -0.1145
     48  O3X       -3.8010  -17.6840   15.2400 O.3   187  NDP187     -0.1145
@<TRIPOS>BOND
     1    20    19    1
     2    20    21    1
     3    19    17    2
     4    21    22    2
     5    17    18    1
     6    17    16    1
     7    22    16    1
     8    22    13    1
     9    16    15    2
    10    13    12    1
    11    13    14    1
    12    15    14    1
    13    12     7    1
    14    12    10    1
    15    46    45    2
    16     7     6    1
    17    11    10    1
    18    11    45    1
    19    48    45    1
    20    10     6    1
    21    10     8    1
    22    45    47    1
    23    43    42    1
    24    43    44    2
    25     2     1    2
    26    42    38    2
    27     3     1    1
    28     6     8    1
    29     6     5    1
    30    40    39    2
    31     4     1    1
    32     4     5    1
    33     8     9    1
    34     1    23    1
    35    44    36    1
    36    38    39    1
    37    38    37    1
    38    39    41   am
    39    36    37    1
    40    36    35    1
    41    23    24    1
    42    25    24    2
    43    28    27    1
    44    28    29    1
    45    35    33    1
    46    35    30    1
    47    27    24    1
    48    33    34    1
    49    33    31    1
    50    24    26    1
    51    30    29    1
    52    29    31    1
    53    31    32    1
