@<TRIPOS>MOLECULE
3k47_D09_A_1.pdb
 22 24 0 0 0
SMALL
GASTEIGER

@<TRIPOS>ATOM
      1  C'1       -6.7100    1.0210   13.3430 C.ar  188  D09188      0.0300
      2  C'2       -7.4320    0.7900   14.5490 C.ar  188  D09188      0.1383
      3  C'3       -8.8100    1.0490   14.5860 C.ar  188  D09188      0.0369
      4  C'4       -9.4690    1.5000   13.4240 C.ar  188  D09188      0.0031
      5  C'5       -8.7730    1.7120   12.2130 C.ar  188  D09188      0.0002
      6  C'6       -7.3800    1.4640   12.1810 C.ar  188  D09188      0.0027
      7  N1'        0.2930    3.3510   13.6210 N.2   188  D09188     -0.2915
      8  C10       -4.8480   -0.6710   13.0480 C.3   188  D09188      0.0311
      9  C11       -5.3310    0.7620   13.3440 C.2   188  D09188     -0.0191
     10  C13       -6.9180   -0.9120   16.3950 C.3   188  D09188      0.2525
     11  O13       -6.7390    0.3700   15.6780 O.3   188  D09188     -0.4714
     12  C2'        0.0510    4.6490   13.8750 C.1   188  D09188      0.2450
     13  N2'        1.0290    5.5040   13.9220 N.pl3 188  D09188     -0.0231
     14  N3'       -1.2070    5.0990   14.0440 N.2   188  D09188     -0.3110
     15  C4'       -2.2650    4.2510   13.9900 C.2   188  D09188      0.2239
     16  N4'       -3.4840    4.7630   14.2020 N.pl3 188  D09188     -0.0961
     17  C5'       -2.0390    2.8800   13.7270 C.3   188  D09188      0.1861
     18  C6'       -2.8750    1.7640   13.6000 C.2   188  D09188      0.0330
     19  C7'       -2.1020    0.7010   13.3120 C.2   188  D09188      0.1788
     20  C8'       -0.7170    2.4410   13.5330 C.2   188  D09188      0.2814
     21  O8'       -0.7570    1.0640   13.2760 O.2   188  D09188     -0.4265
     22  C9'       -4.3960    1.8940   13.7360 C.2   188  D09188     -0.0043
@<TRIPOS>BOND
     1     6     5   ar
     2     6     1   ar
     3     5     4   ar
     4     8     9    1
     5    21    19    1
     6    21    20    1
     7    19    18    2
     8     1     9    1
     9     1     2   ar
    10     9    22    2
    11     4     3   ar
    12    20     7    2
    13    20    17    1
    14    18    17    1
    15    18    22    1
    16     7    12    2
    17    17    15    1
    18    12    13    1
    19    12    14    2
    20    15    14    2
    21    15    16    1
    22     2     3   ar
    23     2    11    1
    24    11    10    1
