@<TRIPOS>MOLECULE
3k4d_EVA_A_1.pdb
 13 13 0 0 0
SMALL
GASTEIGER

@<TRIPOS>ATOM
      1  C        -21.5210  -27.9660   -1.1480 C.2   604  EVA604      0.3901
      2  N        -23.4170  -26.4870   -0.8390 N.2   604  EVA604     -0.1918
      3  O        -22.0500  -28.7430   -1.9020 O.co2 604  EVA604     -0.2434
      4  CA       -22.4040  -27.2600   -0.1290 C.3   604  EVA604      0.2495
      5  CB       -23.0800  -28.2150    0.8280 C.3   604  EVA604      0.2199
      6  CG       -24.0610  -27.4450    1.7120 C.3   604  EVA604      0.2308
      7  OG       -22.0970  -28.8040    1.6680 O.3   604  EVA604     -0.2175
      8  CAE      -24.6680  -26.2480   -0.3950 C.1   604  EVA604      0.1599
      9  OAJ      -25.8800  -25.9180    1.6650 O.3   604  EVA604     -0.2021
     10  OAK      -25.3680  -25.4940   -1.0420 O.2   604  EVA604     -0.2244
     11  CD1      -25.1990  -26.8900    0.8840 C.3   604  EVA604      0.2886
     12  OD2      -24.6420  -28.3880    2.5970 O.3   604  EVA604     -0.2163
     13  OXT      -20.3220  -27.7470   -1.1610 O.co2 604  EVA604     -0.2434
@<TRIPOS>BOND
     1     3     1   ar
     2    13     1   ar
     3     1     4    1
     4    10     8    2
     5     2     8    2
     6     2     4    1
     7     8    11    1
     8     4     5    1
     9     5     7    1
    10     5     6    1
    11    11     9    1
    12    11     6    1
    13     6    12    1
