@<TRIPOS>MOLECULE
3k4f_Q86_A_1.pdb
 16 17 0 0 0
SMALL
GASTEIGER

@<TRIPOS>ATOM
      1  C          5.7370  -21.2950    3.5270 C.2   301  Q86301      0.1755
      2  N          6.0980  -19.8150    1.5900 N.ar  301  Q86301     -0.2224
      3  O          5.1180  -22.0430    2.7840 O.2   301  Q86301     -0.2939
      4  CA         6.2080  -19.9460    3.0400 C.3   301  Q86301      0.1931
      5  CAA        1.7070  -23.3210    5.8030 C.ar  301  Q86301     -0.0003
      6  CAB        1.4990  -22.5980    6.9750 C.ar  301  Q86301     -0.0000
      7  CAC        2.5780  -22.0040    7.6290 C.ar  301  Q86301     -0.0003
      8  CAD        3.8670  -22.1370    7.1110 C.ar  301  Q86301     -0.0043
      9  CAE        4.0770  -22.8590    5.9350 C.ar  301  Q86301     -0.0218
     10  CAF        2.9960  -23.4520    5.2850 C.ar  301  Q86301     -0.0043
     11  CAG        5.4680  -23.0180    5.3600 C.3   301  Q86301      0.0342
     12  CAH        6.0590  -21.6710    4.9560 C.3   301  Q86301      0.0713
     13  NAL        4.9430  -19.1830    1.1290 N.ar  301  Q86301     -0.1447
     14  CAM        5.0720  -19.1710   -0.2150 C.ar  301  Q86301      0.2210
     15  NAN        6.2470  -19.7630   -0.5430 N.ar  301  Q86301     -0.2007
     16  CAO        6.8850  -20.1670    0.5780 C.ar  301  Q86301      0.1976
@<TRIPOS>BOND
     1    15    14   ar
     2    15    16   ar
     3    14    13   ar
     4    16     2   ar
     5    13     2   ar
     6     2     4    1
     7     3     1    2
     8     4     1    1
     9     1    12    1
    10    12    11    1
    11    10     5   ar
    12    10     9   ar
    13    11     9    1
    14     5     6   ar
    15     9     8   ar
    16     6     7   ar
    17     8     7   ar
