@<TRIPOS>MOLECULE
3k4f_HEM_A_1.pdb
 43 50 0 0 0
SMALL
GASTEIGER

@<TRIPOS>ATOM
      1  CHA        8.0810  -17.6460   -3.4700 C.2   300  HEM300      0.0000
      2  CHB        3.8720  -20.0130   -3.9420 C.2   300  HEM300      0.0000
      3  CHC        5.5850  -23.5680   -1.1050 C.2   300  HEM300      0.0000
      4  CHD       10.0320  -21.6740   -1.4710 C.2   300  HEM300      0.0000
      5  C1A        6.7730  -17.9320   -3.8050 C.ar  300  HEM300      0.0000
      6  C2A        5.8420  -17.0580   -4.4950 C.ar  300  HEM300      0.0000
      7  C3A        4.6790  -17.7130   -4.6260 C.ar  300  HEM300      0.0000
      8  C4A        4.8320  -19.0230   -4.0210 C.ar  300  HEM300      0.0000
      9  CMA        3.3900  -17.1820   -5.2980 C.3   300  HEM300      0.0000
     10  CAA        6.1500  -15.6230   -4.9880 C.3   300  HEM300      0.0000
     11  CBA        6.6450  -15.6690   -6.4300 C.3   300  HEM300      0.0000
     12  CGA        7.8390  -14.7640   -6.5820 C.2   300  HEM300      0.0000
     13  O1A        7.6450  -13.5490   -6.8550 O.co2 300  HEM300      0.0000
     14  O2A        8.9860  -15.2590   -6.4300 O.co2 300  HEM300      0.0000
     15  C1B        3.9390  -21.1570   -3.1720 C.2   300  HEM300      0.0000
     16  C2B        2.8490  -22.0760   -2.8950 C.2   300  HEM300      0.0000
     17  C3B        3.3270  -23.0560   -2.1080 C.2   300  HEM300      0.0000
     18  C4B        4.7320  -22.7920   -1.8660 C.2   300  HEM300      0.0000
     19  CMB        1.4030  -21.9150   -3.4290 C.3   300  HEM300      0.0000
     20  CAB        2.5720  -24.2790   -1.5330 C.2   300  HEM300      0.0000
     21  CBB        1.2530  -24.2510   -1.3160 C.2   300  HEM300      0.0000
     22  C1C        6.9460  -23.3920   -0.9600 C.ar  300  HEM300      0.0000
     23  C2C        7.8680  -24.2530   -0.2400 C.ar  300  HEM300      0.0000
     24  C3C        9.0910  -23.7220   -0.3480 C.ar  300  HEM300      0.0000
     25  C4C        8.9930  -22.5120   -1.1360 C.ar  300  HEM300      0.0000
     26  CMC        7.5050  -25.5480    0.5260 C.3   300  HEM300      0.0000
     27  CAC       10.3950  -24.2830    0.2580 C.2   300  HEM300      0.0000
     28  CBC       10.8870  -23.7300    1.3690 C.2   300  HEM300      0.0000
     29  C1D        9.9460  -20.4250   -2.0480 C.2   300  HEM300      0.0000
     30  C2D       11.0680  -19.5620   -2.3440 C.2   300  HEM300      0.0000
     31  C3D       10.4570  -18.3000   -2.9650 C.2   300  HEM300      0.0000
     32  C4D        9.0280  -18.5290   -2.9890 C.2   300  HEM300      0.0000
     33  CMD       12.5660  -19.8420   -2.0860 C.3   300  HEM300      0.0000
     34  CAD       11.2180  -17.0580   -3.4710 C.3   300  HEM300      0.0000
     35  CBD       11.4850  -17.2550   -4.9600 C.3   300  HEM300      0.0000
     36  CGD       12.3100  -16.1160   -5.4970 C.2   300  HEM300      0.0000
     37  O1D       13.4680  -16.3630   -5.9210 O.co2 300  HEM300      0.0000
     38  O2D       11.8090  -14.9640   -5.5060 O.co2 300  HEM300      0.0000
     39  NA         6.1210  -19.1170   -3.5330 N.ar  300  HEM300      0.0000
     40  NB         5.0670  -21.6290   -2.5310 N.2   300  HEM300      0.0000
     41  NC         7.6730  -22.3440   -1.4920 N.ar  300  HEM300      0.0000
     42  ND         8.7730  -19.7840   -2.4420 N.2   300  HEM300      0.0000
     43 FE          6.9150  -20.7180   -2.4880 Fe    300  HEM300      0.0000
@<TRIPOS>BOND
     1    13    12   ar
     2    12    11    1
     3    12    14   ar
     4    11    10    1
     5    37    36   ar
     6    38    36   ar
     7    36    35    1
     8     9     7    1
     9    10     6    1
    10    35    34    1
    11     7     6   ar
    12     7     8   ar
    13     6     5   ar
    14     8     2    2
    15     8    39   ar
    16     2    15    1
    17     5    39   ar
    18     5     1    2
    19    39    43    1
    20    34    31    1
    21     1    32    1
    22    19    16    1
    23    15    16    1
    24    15    40    2
    25    32    31    1
    26    32    42    2
    27    31    30    2
    28    16    17    2
    29    40    43    1
    30    40    18    1
    31    43    42    1
    32    43    41    1
    33    42    29    1
    34    30    33    1
    35    30    29    1
    36    17    18    1
    37    17    20    1
    38    29     4    2
    39    18     3    2
    40    20    21    2
    41    41    25   ar
    42    41    22   ar
    43     4    25    1
    44    25    24   ar
    45     3    22    1
    46    22    23   ar
    47    24    23   ar
    48    24    27    1
    49    23    26    1
    50    27    28    2
