@<TRIPOS>MOLECULE
3k4h_MAL_A_1.pdb
 23 24 0 0 0
SMALL
GASTEIGER

@<TRIPOS>ATOM
      1  C1        65.1570   10.9750  107.2510 C.3   501  MAL501      0.2695
      2  C2        65.6800    9.5540  107.2670 C.3   501  MAL501      0.2406
      3  C3        66.9300    9.5390  106.4040 C.3   501  MAL501      0.2198
      4  C4        66.6060   10.0040  104.9720 C.3   501  MAL501      0.2144
      5  C5        65.8990   11.3390  104.9930 C.3   501  MAL501      0.1835
      6  C6        65.4480   11.6730  103.5920 C.3   501  MAL501      0.2142
      7  O1        66.1800   11.7820  107.8220 O.3   501  MAL501     -0.3257
      8  O2        65.9990    9.2060  108.5950 O.3   501  MAL501     -0.2149
      9  O3        67.4870    8.2480  106.5110 O.3   501  MAL501     -0.2174
     10  O4        67.7600   10.3020  104.2530 O.3   501  MAL501     -0.2176
     11  O5        64.8170   11.3380  105.9180 O.3   501  MAL501     -0.3256
     12  O6        66.2570   12.7380  103.1700 O.3   501  MAL501     -0.2176
     13  C1'       66.1410   14.6170  110.9140 C.3   501  MAL501      0.3023
     14  C2'       65.8180   13.1650  111.2270 C.3   501  MAL501      0.2433
     15  C3'       66.4460   12.2660  110.1860 C.3   501  MAL501      0.2168
     16  C4'       65.8270   12.6700  108.8600 C.3   501  MAL501      0.1804
     17  C5'       66.2980   14.0820  108.5070 C.3   501  MAL501      0.1804
     18  C6'       65.6190   14.5630  107.2110 C.3   501  MAL501      0.2141
     19  O1'       67.4710   14.8760  111.2820 O.3   501  MAL501     -0.1869
     20  O2'       66.3390   12.8340  112.4910 O.3   501  MAL501     -0.2148
     21  O3'       66.2160   10.9110  110.5190 O.3   501  MAL501     -0.2175
     22  O5'       65.9910   14.9880  109.5510 O.3   501  MAL501     -0.3237
     23  O6'       66.4100   15.4830  106.4930 O.3   501  MAL501     -0.2176
@<TRIPOS>BOND
     1    12     6    1
     2     6     5    1
     3    10     4    1
     4     4     5    1
     5     4     3    1
     6     5    11    1
     7    11     1    1
     8     3     9    1
     9     3     2    1
    10    23    18    1
    11    18    17    1
    12     1     2    1
    13     1     7    1
    14     2     8    1
    15     7    16    1
    16    17    16    1
    17    17    22    1
    18    16    15    1
    19    22    13    1
    20    15    21    1
    21    15    14    1
    22    13    14    1
    23    13    19    1
    24    14    20    1
