@<TRIPOS>MOLECULE
3k4l_SHG_A_1.pdb
 12 12 0 0 0
SMALL
GASTEIGER

@<TRIPOS>ATOM
      1  C1       -10.5570   12.2420  -19.5230 C.3   901  SHG901      0.3046
      2  C2       -10.7000   13.4460  -20.4180 C.3   901  SHG901      0.2524
      3  C3        -9.3860   14.0870  -20.8310 C.3   901  SHG901      0.2221
      4  C4        -8.1770   14.0520  -19.9160 C.3   901  SHG901      0.2146
      5  C5        -8.1970   12.8710  -18.9470 C.3   901  SHG901      0.1836
      6  C6        -7.4020   13.0650  -17.6540 C.3   901  SHG901      0.2142
      7  O1       -11.7330   11.9500  -18.8560 O.3   901  SHG901     -0.1867
      8  O3        -9.5990   15.2720  -21.5050 O.3   901  SHG901     -0.2172
      9  O4        -6.9380   14.0590  -20.6370 O.3   901  SHG901     -0.2176
     10  O5        -9.4140   12.2070  -18.6490 O.3   901  SHG901     -0.3235
     11  O6        -6.8160   11.7850  -17.4380 O.3   901  SHG901     -0.2176
     12  F2       -11.6380   13.3480  -21.4350 F     901  SHG901     -0.2289
@<TRIPOS>BOND
     1     8     3    1
     2    12     2    1
     3     3     2    1
     4     3     4    1
     5     9     4    1
     6     2     1    1
     7     4     5    1
     8     1     7    1
     9     1    10    1
    10     5    10    1
    11     5     6    1
    12     6    11    1
