@<TRIPOS>MOLECULE
3k4m_SHG_A_1.pdb
 12 12 0 0 0
SMALL
GASTEIGER

@<TRIPOS>ATOM
      1  C1         9.3020   12.5680  100.5470 C.2   901  SHG901      0.3528
      2  C2         8.7840   13.7760  101.3100 C.3   901  SHG901      0.2911
      3  C3         7.5680   14.3580  100.6080 C.3   901  SHG901      0.2292
      4  C4         7.4220   14.2390   99.1260 C.3   901  SHG901      0.2278
      5  C5         8.0490   13.0450   98.4620 C.3   901  SHG901      0.2344
      6  C6         8.4670   13.2610   97.0050 C.3   901  SHG901      0.2281
      7  O1        10.5370   12.0320  100.9310 O.2   901  SHG901     -0.2470
      8  O3         7.1450   15.6510  100.9680 O.3   901  SHG901     -0.2167
      9  O4         6.0460   14.5570   98.8310 O.3   901  SHG901     -0.2163
     10  O5         9.1320   12.4330   99.1530 O.3   901  SHG901     -0.4448
     11  O6         8.6320   11.9250   96.4940 O.3   901  SHG901     -0.2163
     12  F2         8.5060   13.5160  102.6420 F     901  SHG901     -0.2223
@<TRIPOS>BOND
     1    11     6    1
     2     6     5    1
     3     5     4    1
     4     5    10    1
     5     9     4    1
     6     4     3    1
     7    10     1    1
     8     1     7    2
     9     1     2    1
    10     3     8    1
    11     3     2    1
    12     2    12    1
