@<TRIPOS>MOLECULE
3k4q_IHS_A_1.pdb
 36 36 0 0 0
SMALL
GASTEIGER

@<TRIPOS>ATOM
      1  C1        -5.4270   11.5670   35.3950 C.3   500  IHS500      0.2070
      2  O1        -6.2860   12.4390   35.9960 O.3   500  IHS500     -0.2383
      3  S1        -6.3460   13.8460   35.4360 S.3   500  IHS500     -0.0001
      4  C2        -6.2250   10.5000   34.6730 C.3   500  IHS500      0.2070
      5  O2        -5.3510   14.6690   36.1360 O.3   500  IHS500     -0.2682
      6  S2        -8.6190   10.3110   35.6880 S.3   500  IHS500     -0.0001
      7  C3        -5.2410    9.5270   34.0600 C.3   500  IHS500      0.2070
      8  O3        -7.7320   14.1040   35.8650 O.2   500  IHS500     -0.3452
      9  S3        -6.3230    8.3920   32.1870 S.3   500  IHS500     -0.0001
     10  C4        -3.9130    9.3270   34.7570 C.3   500  IHS500      0.2070
     11  O4        -6.2920   14.0400   33.9770 O.2   500  IHS500     -0.3452
     12  S4        -2.3910    7.6710   33.6890 S.3   500  IHS500     -0.0001
     13  C5        -3.3430   10.6370   35.3290 C.3   500  IHS500      0.2070
     14  S5        -0.8480   11.2490   35.2760 S.3   500  IHS500     -0.0001
     15  C6        -4.3470   11.1260   36.3570 C.3   500  IHS500      0.2070
     16  S6        -3.5770   12.4480   38.5140 S.3   500  IHS500     -0.0001
     17  O12       -7.2150    9.7940   35.3990 O.3   500  IHS500     -0.2383
     18  O13       -5.8900    8.3120   33.6510 O.3   500  IHS500     -0.2383
     19  O14       -3.1400    8.9750   33.6450 O.3   500  IHS500     -0.2383
     20  O15       -2.0420   10.5110   35.8820 O.3   500  IHS500     -0.2383
     21  O16       -3.8010   12.2710   37.0000 O.3   500  IHS500     -0.2383
     22  O22       -8.5550   11.0220   36.9940 O.3   500  IHS500     -0.2682
     23  O23       -6.8450    7.0600   31.8270 O.2   500  IHS500     -0.3452
     24  O24       -2.1770    7.0670   32.3710 O.2   500  IHS500     -0.3452
     25  O25       -0.8470   11.0760   33.8220 O.2   500  IHS500     -0.3452
     26  O26       -2.6660   11.3620   38.9410 O.2   500  IHS500     -0.3452
     27  O32       -9.1090   11.2830   34.7160 O.2   500  IHS500     -0.3452
     28  O33       -5.1220    8.8340   31.4090 O.2   500  IHS500     -0.3452
     29  O34       -3.0370    6.7150   34.5830 O.3   500  IHS500     -0.2682
     30  O35       -0.9350   12.6770   35.6060 O.2   500  IHS500     -0.3452
     31  O36       -4.8520   12.4100   39.2470 O.3   500  IHS500     -0.2682
     32  O42       -9.4470    9.1240   35.8710 O.2   500  IHS500     -0.3452
     33  O43       -7.2760    9.4620   31.9380 O.3   500  IHS500     -0.2682
     34  O44       -1.0740    8.1920   34.1620 O.2   500  IHS500     -0.3452
     35  O45        0.3930   10.6750   35.8290 O.3   500  IHS500     -0.2682
     36  O46       -2.9610   13.7750   38.6620 O.2   500  IHS500     -0.3452
@<TRIPOS>BOND
     1    28     9    2
     2    23     9    2
     3    33     9    1
     4     9    18    1
     5    24    12    2
     6    19    12    1
     7    19    10    1
     8    18     7    1
     9    12    34    2
    10    12    29    1
    11    25    14    2
    12    11     3    2
    13     7     4    1
    14     7    10    1
    15     4     1    1
    16     4    17    1
    17    27     6    2
    18    10    13    1
    19    14    30    2
    20    14    35    1
    21    14    20    1
    22    13    20    1
    23    13    15    1
    24     1     2    1
    25     1    15    1
    26    17     6    1
    27     3     8    2
    28     3     2    1
    29     3     5    1
    30     6    32    2
    31     6    22    1
    32    15    21    1
    33    21    16    1
    34    16    36    2
    35    16    26    2
    36    16    31    1
