@<TRIPOS>MOLECULE
3k4s_0MO_A_1.pdb
 20 21 0 0 0
SMALL
GASTEIGER

@<TRIPOS>ATOM
      1  C1        24.7640  -12.6900   14.3700 C.3   414  0MO414      0.0001
      2  N1        25.9090   -7.5750   19.3900 N.2   414  0MO414     -0.1848
      3  O1        23.0100   -9.7190   13.6320 O.3   414  0MO414     -0.4724
      4  C2        23.5900  -12.5780   13.4110 C.3   414  0MO414      0.0038
      5  N2        25.0830   -5.5860   18.9030 N.2   414  0MO414     -0.1865
      6  O2        23.8230   -7.9800   11.6130 O.3   414  0MO414     -0.4684
      7  C3        22.3190  -12.0160   14.0530 C.3   414  0MO414      0.0473
      8  O3        25.6150   -6.0320   21.0380 O.2   414  0MO414     -0.2023
      9  C4        22.4710  -10.6090   14.6010 C.3   414  0MO414      0.2056
     10  C5        23.4150   -8.4470   13.9620 C.ar  414  0MO414      0.1719
     11  C6        23.8710   -7.5250   12.8980 C.ar  414  0MO414      0.1724
     12  C7        24.0330   -7.0530   10.5320 C.3   414  0MO414      0.2526
     13  C8        24.2990   -6.2170   13.2250 C.ar  414  0MO414      0.0397
     14  C9        24.2680   -5.8010   14.5720 C.ar  414  0MO414     -0.0009
     15  C10       23.8440   -6.6950   15.5820 C.ar  414  0MO414     -0.0169
     16  C11       23.7760   -6.2730   17.0370 C.3   414  0MO414      0.0537
     17  C12       25.1460   -6.2730   17.6300 C.3   414  0MO414      0.1457
     18  C13       25.5550   -7.6990   17.9840 C.3   414  0MO414      0.1647
     19  C14       25.5380   -6.3770   19.8680 C.1   414  0MO414      0.2387
     20  C15       23.4210   -7.9920   15.2830 C.ar  414  0MO414      0.0358
@<TRIPOS>BOND
     1    12     6    1
     2     6    11    1
     3    11    13   ar
     4    11    10   ar
     5    13    14   ar
     6     4     7    1
     7     4     1    1
     8     3    10    1
     9     3     9    1
    10    10    20   ar
    11     7     9    1
    12    14    15   ar
    13    20    15   ar
    14    15    16    1
    15    16    17    1
    16    17    18    1
    17    17     5    1
    18    18     2    1
    19     5    19    2
    20     2    19    2
    21    19     8    2
