@<TRIPOS>MOLECULE
3k4u_LYS_A_1.pdb
 10 9 0 0 0
SMALL
GASTEIGER

@<TRIPOS>ATOM
      1  N         -2.5660  -10.4040  -11.3480 N.3   501  LYS501     -0.1208
      2  CA        -2.0140   -9.1780  -11.9040 C.3   501  LYS501      0.1943
      3  C         -0.7150   -8.7030  -11.2170 C.2   501  LYS501      0.3819
      4  O          0.2400   -8.2400  -11.8490 O.co2 501  LYS501     -0.2441
      5  CB        -3.0610   -8.0820  -11.8640 C.3   501  LYS501      0.0307
      6  CG        -3.5650   -7.6040  -13.2220 C.3   501  LYS501      0.0036
      7  CD        -3.4100   -6.0890  -13.3010 C.3   501  LYS501      0.0206
      8  CE        -4.7010   -5.3730  -13.0700 C.3   501  LYS501      0.1093
      9  NZ        -4.6840   -3.9860  -13.6430 N.3   501  LYS501     -0.1314
     10  OXT       -0.5680   -8.7950   -9.9920 O.co2 501  LYS501     -0.2441
@<TRIPOS>BOND
     1     9     8    1
     2     7     6    1
     3     7     8    1
     4     6     5    1
     5     2     5    1
     6     2     1    1
     7     2     3    1
     8     4     3   ar
     9     3    10   ar
