@<TRIPOS>MOLECULE
3k4v_ROC_B_1.pdb
 50 53 0 0 0
SMALL
GASTEIGER

@<TRIPOS>ATOM
      1  C         15.1090   17.6350   33.4220 C.2   201  ROC201      0.2910
      2  C         16.8580   11.2750   23.3700 C.3   201  ROC201      0.0000
      3  O         14.5450   16.8050   34.2880 O.2   201  ROC201     -0.2659
      4  N1        16.3270   19.7140   32.9450 N.2   201  ROC201     -0.4013
      5  C2        16.1050   18.6860   33.8260 C.2   201  ROC201      0.1679
      6  C3        16.7590   18.6650   35.0560 C.3   201  ROC201      0.0899
      7  C4        17.6860   19.6830   35.3160 C.2   201  ROC201     -0.0160
      8  C5        18.7880   21.7480   34.6780 C.ar  201  ROC201      0.0022
      9  C6        18.9710   22.7780   33.7550 C.ar  201  ROC201      0.0002
     10  C7        18.2640   22.7810   32.5530 C.ar  201  ROC201      0.0026
     11  C8        17.3650   21.7470   32.2850 C.ar  201  ROC201      0.0320
     12  C4A       17.8300   20.7600   34.4500 C.ar  201  ROC201      0.0257
     13  C8A       17.1860   20.7190   33.2070 C.ar  201  ROC201      0.1309
     14  N         14.7330   17.6330   32.1330 N.am  201  ROC201     -0.1916
     15  CA        13.9060   16.5840   31.5370 C.3   201  ROC201      0.1823
     16  C1        14.5930   16.0690   30.2860 C.2   201  ROC201      0.2618
     17  O1        14.5730   16.4830   29.0730 O.2   201  ROC201     -0.2715
     18  CB        12.5320   17.1760   31.2720 C.3   201  ROC201      0.1195
     19  CG        11.8880   17.5890   32.5830 C.2   201  ROC201      0.2630
     20  OD1       11.8070   18.7770   32.8640 O.2   201  ROC201     -0.2716
     21  ND2       11.4670   16.6320   33.2930 N.am  201  ROC201     -0.0877
     22  C9        15.5480   12.8920   29.2810 C.3   201  ROC201      0.1879
     23  O2        15.8590   12.0250   30.3910 O.3   201  ROC201     -0.2198
     24  CA1       16.1760   14.2820   29.5180 C.3   201  ROC201      0.1313
     25  N2        15.3090   14.9420   30.4940 N.am  201  ROC201     -0.2027
     26  CB1       17.6580   14.1910   29.9720 C.3   201  ROC201      0.0506
     27  CG1       18.0720   15.5770   30.4710 C.ar  201  ROC201     -0.0204
     28  CD1       18.2890   16.6560   29.6270 C.ar  201  ROC201     -0.0042
     29  CD2       18.2130   15.7270   31.8380 C.ar  201  ROC201     -0.0042
     30  CE1       18.6880   17.8980   30.1430 C.ar  201  ROC201     -0.0003
     31  CE2       18.6120   16.9530   32.3590 C.ar  201  ROC201     -0.0003
     32  CZ        18.7830   18.0510   31.5190 C.ar  201  ROC201     -0.0000
     33  N11       15.3420   12.2660   26.7900 N.3   201  ROC201     -0.2643
     34  CM        16.1460   12.3090   27.9940 C.3   201  ROC201      0.1075
     35  C21       16.0400   12.4270   25.4890 C.3   201  ROC201      0.1365
     36  CC        17.3140   13.2610   25.5520 C.2   201  ROC201      0.2558
     37  O3        17.3380   14.4090   25.9470 O.2   201  ROC201     -0.2719
     38  C31       15.0950   12.9530   24.4180 C.3   201  ROC201      0.0254
     39  C3A       13.7260   12.2990   24.3070 C.3   201  ROC201      0.0032
     40  C41       12.8960   12.8880   23.1410 C.3   201  ROC201      0.0001
     41  C51       12.3110   14.2870   23.4580 C.3   201  ROC201      0.0000
     42  C61       11.6670   14.3720   24.8530 C.3   201  ROC201      0.0000
     43  C71       12.5910   13.8630   25.9500 C.3   201  ROC201      0.0014
     44  C7A       13.0520   12.4220   25.6750 C.3   201  ROC201      0.0161
     45  C81       13.9120   11.9620   26.8640 C.3   201  ROC201      0.0725
     46  N3        18.4620   12.6500   25.1700 N.am  201  ROC201     -0.2077
     47  CD        19.8050   13.2130   25.0590 C.3   201  ROC201      0.0788
     48  C11       20.7060   12.1170   24.5140 C.3   201  ROC201      0.0217
     49  C22       19.7800   14.3920   24.0800 C.3   201  ROC201      0.0217
     50  C32       20.3380   13.6310   26.3920 C.3   201  ROC201      0.0217
@<TRIPOS>BOND
     1    40    41    1
     2    40    39    1
     3    41    42    1
     4    49    47    1
     5    39    38    1
     6    39    44    1
     7    38    35    1
     8    48    47    1
     9    42    43    1
    10    47    46    1
    11    47    50    1
    12    46    36   am
    13    35    36    1
    14    35    33    1
    15    36    37    2
    16    44    43    1
    17    44    45    1
    18    33    45    1
    19    33    34    1
    20    34    22    1
    21    17    16    2
    22    22    24    1
    23    22    23    1
    24    24    26    1
    25    24    25    1
    26    28    30   ar
    27    28    27   ar
    28    26    27    1
    29    30    32   ar
    30    16    25   am
    31    16    15    1
    32    27    29   ar
    33    18    15    1
    34    18    19    1
    35    32    31   ar
    36    15    14    1
    37    29    31   ar
    38    14     1   am
    39    11    10   ar
    40    11    13   ar
    41    10     9   ar
    42    19    20    2
    43    19    21   am
    44     4    13    2
    45     4     5    2
    46    13    12   ar
    47     1     5    1
    48     1     3    2
    49     9     8   ar
    50     5     6    1
    51    12     8   ar
    52    12     7    2
    53     6     7    1
