@<TRIPOS>MOLECULE
3k4y_IPE_A_1.pdb
 14 13 0 0 0
SMALL
GASTEIGER

@<TRIPOS>ATOM
      1  C1        47.8940   14.9540    8.2120 C.3   300  IPE300      0.1535
      2  O1        49.0750   15.2820    8.9360 O.3   300  IPE300     -0.3135
      3  C2        46.6940   15.4350    9.0200 C.3   300  IPE300      0.0545
      4  C3        45.4980   15.6300    8.1200 C.2   300  IPE300     -0.0414
      5  C4        44.3280   15.9360    8.6490 C.2   300  IPE300     -0.0090
      6  C5        45.6370   15.4730    6.6340 C.3   300  IPE300      0.0264
      7  PA        50.5030   14.6370    8.5640 P.3   300  IPE300      0.2230
      8  O1A       50.3690   13.2980    7.9440 O.2   300  IPE300     -0.5169
      9  O2A       51.4310   14.5760    9.8790 O.3   300  IPE300     -0.4370
     10  O3A       51.1140   15.6750    7.4920 O.3   300  IPE300     -0.2261
     11  PB        51.3110   15.2420    5.9540 P.3   300  IPE300      0.5373
     12  O1B       52.2010   16.3530    5.2080 O.2   300  IPE300     -0.2221
     13  O2B       51.9930   13.9310    5.9040 O.3   300  IPE300     -0.1143
     14  O3B       49.8800   15.1190    5.2330 O.3   300  IPE300     -0.1143
@<TRIPOS>BOND
     1    12    11    2
     2    14    11    1
     3    13    11    1
     4    11    10    1
     5     6     4    1
     6    10     7    1
     7     8     7    2
     8     4     5    2
     9     4     3    1
    10     1     2    1
    11     1     3    1
    12     7     2    1
    13     7     9    1
