@<TRIPOS>MOLECULE
3k4z_XGP_A_1.pdb
 16 16 0 0 0
SMALL
GASTEIGER

@<TRIPOS>ATOM
      1  P         18.8960   19.3520   62.3710 P.3   295  XGP295      0.5346
      2  C1        20.0480   17.0790   61.9120 C.3   295  XGP295      0.2781
      3  C2        20.3470   15.8330   62.7320 C.3   295  XGP295      0.2410
      4  O2        20.8100   16.2070   64.0430 O.3   295  XGP295     -0.2149
      5  C3        21.3230   14.9400   61.9870 C.3   295  XGP295      0.2198
      6  O3        21.4470   13.7060   62.6750 O.3   295  XGP295     -0.2174
      7  C4        20.6740   14.7180   60.6100 C.3   295  XGP295      0.2144
      8  O4        21.4120   13.7840   59.8160 O.3   295  XGP295     -0.2176
      9  C5        20.5400   16.0680   59.8950 C.3   295  XGP295      0.1835
     10  O5        19.5160   16.7620   60.5990 O.3   295  XGP295     -0.3253
     11  C6        20.2070   15.8900   58.3840 C.3   295  XGP295      0.2142
     12  O6        19.3600   16.9580   57.8850 O.3   295  XGP295     -0.2176
     13  OP1       19.1300   17.7910   62.7210 O.3   295  XGP295     -0.2416
     14  OP2       18.4270   19.5570   60.9590 O.2   295  XGP295     -0.2223
     15  OP3       20.2470   20.1510   62.7550 O.3   295  XGP295     -0.1145
     16  OP4       17.7530   19.8100   63.4300 O.3   295  XGP295     -0.1145
@<TRIPOS>BOND
     1    12    11    1
     2    11     9    1
     3     8     7    1
     4     9    10    1
     5     9     7    1
     6    10     2    1
     7     7     5    1
     8    14     1    2
     9     2    13    1
    10     2     3    1
    11     5     6    1
    12     5     3    1
    13     1    13    1
    14     1    15    1
    15     1    16    1
    16     3     4    1
