@<TRIPOS>MOLECULE
3k4z_CBI_A_1.pdb
 23 24 0 0 0
SMALL
GASTEIGER

@<TRIPOS>ATOM
      1  C1        21.2640   12.6740   59.3210 C.3   294  CBI294      0.2695
      2  C2        21.8170   12.3860   57.9490 C.3   294  CBI294      0.2406
      3  C3        22.0290   10.8950   57.7470 C.3   294  CBI294      0.2198
      4  C4        22.8220   10.3460   58.9570 C.3   294  CBI294      0.2144
      5  C5        22.1000   10.7370   60.2520 C.3   294  CBI294      0.1835
      6  C6        22.7050   10.1760   61.5400 C.3   294  CBI294      0.2142
      7  O2        20.8970   12.9560   57.0320 O.3   294  CBI294     -0.2149
      8  O3        22.6950   10.6360   56.5210 O.3   294  CBI294     -0.2174
      9  O4        22.9480    8.9060   58.7960 O.3   294  CBI294     -0.2176
     10  O5        22.1020   12.1460   60.3220 O.3   294  CBI294     -0.3256
     11  O6        23.9860   10.7580   61.7630 O.3   294  CBI294     -0.2176
     12  C1'       20.2700   16.9570   61.8890 C.3   294  CBI294      0.3023
     13  C2'       20.3980   15.6210   62.6110 C.3   294  CBI294      0.2433
     14  C3'       21.0360   14.5720   61.7210 C.3   294  CBI294      0.2168
     15  C4'       20.4080   14.6280   60.3260 C.3   294  CBI294      0.1804
     16  C5'       20.2150   16.0560   59.8000 C.3   294  CBI294      0.1804
     17  C6'       19.5380   16.0890   58.4220 C.3   294  CBI294      0.2141
     18  O1'       19.6840   17.9260   62.7560 O.3   294  CBI294     -0.1869
     19  O2'       21.1810   15.7160   63.8110 O.3   294  CBI294     -0.2148
     20  O3'       20.9110   13.2880   62.3470 O.3   294  CBI294     -0.2175
     21  O4'       21.3060   14.0640   59.4070 O.3   294  CBI294     -0.3257
     22  O5'       19.4620   16.7990   60.7300 O.3   294  CBI294     -0.3237
     23  O6'       19.2870   17.4330   57.9580 O.3   294  CBI294     -0.2176
@<TRIPOS>BOND
     1     8     3    1
     2     7     2    1
     3     3     2    1
     4     3     4    1
     5     2     1    1
     6    23    17    1
     7    17    16    1
     8     9     4    1
     9     4     5    1
    10     1    21    1
    11     1    10    1
    12    21    15    1
    13    16    15    1
    14    16    22    1
    15     5    10    1
    16     5     6    1
    17    15    14    1
    18    22    12    1
    19     6    11    1
    20    14    20    1
    21    14    13    1
    22    12    13    1
    23    12    18    1
    24    13    19    1
