@<TRIPOS>MOLECULE
3k52_IP8_A_1.pdb
 10 9 0 0 0
SMALL
GASTEIGER

@<TRIPOS>ATOM
      1  O         50.6290   15.3620    7.3010 O.2   300  IP8300     -0.2224
      2  C1        47.4720   14.9510    8.0580 C.3   300  IP8300      0.1581
      3  O1        48.6670   15.2400    8.7840 O.3   300  IP8300     -0.2699
      4  P1        50.0430   14.5000    8.3920 P.3   300  IP8300      0.5326
      5  C2        46.4610   16.0780    8.2610 C.3   300  IP8300      0.0547
      6  O2        50.8340   14.4910    9.6780 O.3   300  IP8300     -0.1145
      7  C3        45.1570   15.7300    7.5770 C.2   300  IP8300     -0.0414
      8  O3        49.6060   13.1420    7.9030 O.3   300  IP8300     -0.1145
      9  C4        43.8580   15.9240    8.3020 C.3   300  IP8300      0.0264
     10  C5        45.1600   15.2550    6.3430 C.2   300  IP8300     -0.0090
@<TRIPOS>BOND
     1    10     7    2
     2     1     4    2
     3     7     5    1
     4     7     9    1
     5     8     4    1
     6     2     5    1
     7     2     3    1
     8     4     3    1
     9     4     6    1
