@<TRIPOS>MOLECULE
3k54_1N1_A_1.pdb
 33 36 0 0 0
SMALL
GASTEIGER

@<TRIPOS>ATOM
      1  C1       -14.2950   -4.4390    1.1320 C.ar    1  1N11        0.1120
      2  C2       -15.4330   -4.5540    1.9400 C.ar    1  1N11        0.1065
      3  C3       -15.5720   -4.5200    3.4190 C.2     1  1N11        0.2766
      4  N6       -20.4830   -6.3450   -7.3550 N.3     1  1N11       -0.2675
      5  C7       -14.5870   -4.1280    8.4070 C.ar    1  1N11        0.0006
      6  C8       -14.3140   -5.3180    7.7380 C.ar    1  1N11       -0.0029
      7  C9       -14.2940   -5.3970    6.3330 C.ar    1  1N11       -0.0057
      8  C10      -13.9970   -6.7560    5.7400 C.3     1  1N11        0.0324
      9  C11      -17.6210   -4.9810   -2.0970 C.2     1  1N11        0.2025
     10  C12      -17.9880   -5.0860   -3.4200 C.3     1  1N11        0.1532
     11  C13      -19.3460   -5.2400   -3.6950 C.2     1  1N11        0.1809
     12  C14      -19.9060   -5.1660   -1.4500 C.1     1  1N11        0.1168
     13  C15      -20.9560   -5.2090   -0.3630 C.3     1  1N11        0.1429
     14  C16      -18.9710   -4.9140   -6.0670 C.3     1  1N11        0.1102
     15  C19      -21.2120   -5.7860   -5.1200 C.3     1  1N11        0.1102
     16  C20      -20.7360   -7.2570   -8.4670 C.3     1  1N11        0.1082
     17  C21      -21.9360   -8.0950   -8.0500 C.3     1  1N11        0.1993
     18  N        -16.2990   -4.8520   -1.7600 N.pl3   1  1N11       -0.1613
     19  C        -15.8850   -4.7340   -0.4750 C.ar    1  1N11        0.1855
     20  N1       -14.5830   -4.5440   -0.2000 N.ar    1  1N11       -0.2208
     21  S        -16.8940   -4.8120    0.9770 S.2     1  1N11       -0.0450
     22  N2       -14.4840   -4.2780    4.1730 N.am    1  1N11       -0.1744
     23  C4       -14.5250   -4.2730    5.5470 C.ar    1  1N11        0.0802
     24  C5       -14.7930   -3.0770    6.2340 C.ar    1  1N11        0.0726
     25  C6       -14.8230   -2.9920    7.6340 C.ar    1  1N11        0.0127
     26 CL        -15.0970   -1.5690    5.3200 Cl      1  1N11       -0.0809
     27  O        -16.6920   -4.6860    3.8680 O.2     1  1N11       -0.2674
     28  N3       -20.2880   -5.2750   -2.7360 N.2     1  1N11       -0.3326
     29  N4       -18.5860   -5.0230   -1.1540 N.2     1  1N11       -0.3308
     30  N5       -19.8170   -5.3260   -4.9730 N.pl3   1  1N11       -0.2831
     31  C17      -19.0790   -6.0530   -7.0520 C.3     1  1N11        0.0939
     32  C18      -21.5930   -5.7880   -6.5920 C.3     1  1N11        0.0939
     33  O1       -23.1060   -7.4510   -8.5910 O.3     1  1N11       -0.2189
@<TRIPOS>BOND
     1    33    17    1
     2    16    17    1
     3    16     4    1
     4     4    31    1
     5     4    32    1
     6    31    14    1
     7    32    15    1
     8    14    30    1
     9    15    30    1
    10    30    11    1
    11    11    10    1
    12    11    28    2
    13    10     9    1
    14    28    12    2
    15     9    18    1
    16     9    29    2
    17    18    19    1
    18    12    29    2
    19    12    13    1
    20    19    20   ar
    21    19    21   ar
    22    20     1   ar
    23    21     2   ar
    24     1     2   ar
    25     2     3    1
    26     3    27    2
    27     3    22   am
    28    22    23    1
    29    26    24    1
    30    23    24   ar
    31    23     7   ar
    32     8     7    1
    33    24    25   ar
    34     7     6   ar
    35    25     5   ar
    36     6     5   ar
