@<TRIPOS>MOLECULE
3k56_IS3_A_1.pdb
 14 13 0 0 0
SMALL
GASTEIGER

@<TRIPOS>ATOM
      1  O         49.6500   13.1260    8.3400 O.3   300  IS3300     -0.2407
      2  C1        47.5450   14.9850    9.0080 C.3   300  IS3300      0.1535
      3  O1        48.8990   15.4480    9.0300 O.3   300  IS3300     -0.3135
      4  P1        50.2380   14.5510    8.8510 P.3   300  IS3300      0.2215
      5  C2        46.9730   14.8490    7.6000 C.3   300  IS3300      0.0545
      6  O2        50.9480   14.4510   10.1820 O.3   300  IS3300     -0.4371
      7  P2        50.5330   11.8240    7.8160 P.3   300  IS3300      0.4340
      8  C3        45.5530   15.4030    7.4500 C.2   300  IS3300     -0.0414
      9  O3        51.0380   15.1290    7.7090 O.2   300  IS3300     -0.5170
     10  C4        44.8400   15.2560    6.1250 C.3   300  IS3300      0.0264
     11  O4        51.0250   12.3140    6.4790 O.2   300  IS3300     -0.2423
     12  C5        44.9070   16.0010    8.4460 C.2   300  IS3300     -0.0090
     13  O5        49.7310   10.4840    7.8210 O.3   300  IS3300     -0.1305
     14  S6        52.0360   11.4980    9.1350 S.3   300  IS3300      0.0416
@<TRIPOS>BOND
     1    10     8    1
     2    11     7    2
     3     8     5    1
     4     8    12    2
     5     5     2    1
     6     9     4    2
     7     7    13    1
     8     7     1    1
     9     7    14    1
    10     1     4    1
    11     4     3    1
    12     4     6    1
    13     2     3    1
