@<TRIPOS>MOLECULE
3k5c_0BI_A_1.pdb
 42 46 0 0 0
SMALL
GASTEIGER

@<TRIPOS>ATOM
      1  N1        30.3240    6.1340   15.4260 N.2   387  0BI387     -0.2018
      2  C3        31.5350    6.2000   14.6000 C.3   387  0BI387      0.1508
      3  C5        32.5990    7.0850   15.3410 C.3   387  0BI387      0.0543
      4  C8        31.9990    8.4280   15.7910 C.ar  387  0BI387     -0.0171
      5  C9        31.6290    8.6180   17.1450 C.ar  387  0BI387      0.0327
      6  C11       31.0670    9.8490   17.5730 C.ar  387  0BI387      0.1382
      7  C12       30.8750   10.8930   16.6320 C.ar  387  0BI387      0.0369
      8  C14       31.2430   10.7040   15.2840 C.ar  387  0BI387      0.0028
      9  C16       31.8050    9.4800   14.8580 C.ar  387  0BI387     -0.0040
     10  O18       30.6920   10.0740   18.8970 O.3   387  0BI387     -0.4755
     11  C19       31.0670    9.2520   20.0160 C.3   387  0BI387      0.2055
     12  C22       29.9070    9.1350   21.0350 C.3   387  0BI387      0.0494
     13  C25       28.5720    8.6240   20.4400 C.3   387  0BI387      0.0301
     14  C28       28.5740    7.0780   20.3360 C.3   387  0BI387      0.1256
     15  N31       27.3260    6.6510   19.7040 N.2   387  0BI387     -0.2704
     16  C33       27.1260    6.5070   18.3630 C.2   387  0BI387      0.0759
     17  C34       28.1760    6.5270   17.4020 C.2   387  0BI387      0.0262
     18  C36       27.9010    6.3650   16.0240 C.2   387  0BI387      0.0661
     19  C37       26.5620    6.1840   15.5900 C.3   387  0BI387      0.0627
     20  C39       25.5060    6.1630   16.5320 C.2   387  0BI387     -0.0083
     21  C40       25.7970    6.3240   17.9110 C.2   387  0BI387      0.0129
     22  C42       24.0580    5.9660   16.0590 C.3   387  0BI387      0.1649
     23  O45       23.8000    4.5450   16.0490 O.3   387  0BI387     -0.3467
     24  C46       22.8490    4.1140   17.0520 C.3   387  0BI387      0.1746
     25  C50       29.0430    6.3860   15.0350 C.1   387  0BI387      0.1463
     26  O51       28.7720    6.6410   13.8680 O.2   387  0BI387     -0.2226
     27  C52       32.0520    4.7610   14.3420 C.3   387  0BI387      0.1926
     28  O54       33.1810    4.7900   13.4590 O.3   387  0BI387     -0.2195
     29  C56       30.9820    3.8940   13.6320 C.3   387  0BI387      0.1238
     30  N59       31.5390    2.6060   13.1720 N.3   387  0BI387     -0.2140
     31  C61       30.7230    2.0080   12.1030 C.3   387  0BI387      0.0782
     32  C62       30.8500    0.4730   12.0100 C.3   387  0BI387      0.0219
     33  C65       29.5460    1.1030   12.5430 C.3   387  0BI387      0.0219
     34  C68       30.6640    2.7160   10.7430 C.ar  387  0BI387     -0.0084
     35  C69       31.8650    2.9700   10.0440 C.ar  387  0BI387     -0.0073
     36  C71       31.8490    3.6230    8.7830 C.ar  387  0BI387     -0.0228
     37  C72       30.6010    4.0190    8.2390 C.ar  387  0BI387     -0.0043
     38  C74       29.3930    3.7720    8.9320 C.ar  387  0BI387     -0.0006
     39  C76       29.4240    3.1210   10.1850 C.ar  387  0BI387     -0.0030
     40  C78       33.1790    3.8790    8.0490 C.3   387  0BI387      0.0223
     41  C80       33.7770    5.2540    8.4540 C.3   387  0BI387      0.0047
     42  C84       34.2290    2.7360    8.1420 C.3   387  0BI387      0.0047
@<TRIPOS>BOND
     1    40    42    1
     2    40    41    1
     3    40    36    1
     4    37    36   ar
     5    37    38   ar
     6    36    35   ar
     7    38    39   ar
     8    35    34   ar
     9    39    34   ar
    10    34    31    1
    11    32    31    1
    12    32    33    1
    13    31    33    1
    14    31    30    1
    15    30    29    1
    16    28    27    1
    17    29    27    1
    18    26    25    2
    19    27     2    1
    20     2     3    1
    21     2     1    1
    22     9     8   ar
    23     9     4   ar
    24    25     1    2
    25    25    18    1
    26     8     7   ar
    27     3     4    1
    28    19    18    1
    29    19    20    1
    30     4     5   ar
    31    18    17    2
    32    23    22    1
    33    23    24    1
    34    22    20    1
    35    20    21    2
    36     7     6   ar
    37     5     6   ar
    38    17    16    1
    39     6    10    1
    40    21    16    1
    41    16    15    2
    42    10    11    1
    43    15    14    1
    44    11    12    1
    45    14    13    1
    46    13    12    1
