@<TRIPOS>MOLECULE
3k5d_XLI_A_1.pdb
 37 36 0 0 0
SMALL
GASTEIGER

@<TRIPOS>ATOM
      1  C          3.2040    7.3270   28.8540 C.2   393  XLI393      0.2423
      2  O          3.9620    7.4530   29.8440 O.2   393  XLI393     -0.2733
      3  CH3        3.8210    7.1200   27.5150 C.3   393  XLI393      0.0964
      4  N          1.8540    7.3650   28.9110 N.am  393  XLI393     -0.1978
      5  CA         1.1910    7.6010   30.1850 C.3   393  XLI393      0.1727
      6  C1         1.0610    6.3140   30.9770 C.2   393  XLI393      0.2616
      7  O1         0.8770    5.2740   30.3610 O.2   393  XLI393     -0.2715
      8  CB        -0.1120    8.4700   30.1280 C.3   393  XLI393      0.0311
      9  CG        -1.3520    7.8840   29.3890 C.3   393  XLI393      0.0022
     10  CD1       -1.0350    7.6270   27.8940 C.3   393  XLI393      0.0001
     11  CD2       -2.5450    8.8520   29.4920 C.3   393  XLI393      0.0001
     12  N1         1.1600    6.3920   32.3300 N.am  393  XLI393     -0.1963
     13  CA1        1.0580    5.2230   33.1830 C.3   393  XLI393      0.1736
     14  C2        -0.0620    5.4590   34.1780 C.2   393  XLI393      0.2613
     15  O2         0.1940    5.6830   35.3600 O.2   393  XLI393     -0.2715
     16  CB1        2.3990    4.8730   33.9040 C.3   393  XLI393      0.0427
     17  CG1        3.4650    4.3590   32.8960 C.3   393  XLI393      0.0599
     18  SD         5.0840    4.3490   33.7130 S.3   393  XLI393     -0.1393
     19  CE         5.6870    6.0000   33.2390 C.3   393  XLI393      0.0692
     20  N2        -1.3400    5.4090   33.7120 N.am  393  XLI393     -0.2031
     21  CA2       -2.5110    5.6340   34.5730 C.3   393  XLI393      0.1256
     22  C3        -3.1970    4.2820   34.9500 C.3   393  XLI393      0.1722
     23  O3        -3.9420    3.7700   33.8320 O.3   393  XLI393     -0.2213
     24  CB2       -3.4780    6.6650   33.9230 C.3   393  XLI393      0.0243
     25  CG2       -2.8680    8.0660   33.6110 C.3   393  XLI393      0.0018
     26 CD11       -3.9420    8.9100   32.8690 C.3   393  XLI393      0.0001
     27 CD21       -2.4310    8.8390   34.8860 C.3   393  XLI393      0.0001
     28  CM        -2.3250    3.1700   35.6230 C.3   393  XLI393      0.0438
     29  CA3       -3.0600    2.2520   36.6480 C.3   393  XLI393      0.0808
     30  CB3       -2.3110    0.8990   36.7820 C.3   393  XLI393      0.0097
     31  C4        -3.1640    2.8470   38.0420 C.2   393  XLI393      0.2410
     32  O4        -2.3070    3.6260   38.4360 O.2   393  XLI393     -0.2734
     33  C11       -4.4570    2.9680   40.1460 C.3   393  XLI393      0.1151
     34  N3        -4.2310    2.4700   38.7950 N.am  393  XLI393     -0.2054
     35  C21       -5.8970    2.6680   40.6250 C.3   393  XLI393      0.0234
     36  C31       -6.0620    2.8680   42.1560 C.3   393  XLI393      0.0018
     37  C41       -6.0320    4.3670   42.5490 C.3   393  XLI393      0.0001
@<TRIPOS>BOND
     1     3     1    1
     2    10     9    1
     3     1     4   am
     4     1     2    2
     5     4     5    1
     6     9    11    1
     7     9     8    1
     8     8     5    1
     9     5     6    1
    10     7     6    2
    11     6    12   am
    12    12    13    1
    13    26    25    1
    14    17    18    1
    15    17    16    1
    16    13    16    1
    17    13    14    1
    18    19    18    1
    19    25    24    1
    20    25    27    1
    21    20    14   am
    22    20    21    1
    23    23    22    1
    24    24    21    1
    25    14    15    2
    26    21    22    1
    27    22    28    1
    28    28    29    1
    29    29    30    1
    30    29    31    1
    31    31    32    2
    32    31    34   am
    33    34    33    1
    34    33    35    1
    35    35    36    1
    36    36    37    1
