@<TRIPOS>MOLECULE
3k5e_K5E_A_1.pdb
 19 21 0 0 0
SMALL
GASTEIGER

@<TRIPOS>ATOM
      1  S         27.4080   12.4750   11.5710 S.2   369  K5E369      0.0574
      2  C1        31.9510   11.3690   16.7580 C.ar  369  K5E369      0.1958
      3  N1        28.3040   12.1830   13.9040 N.2   369  K5E369     -0.3383
      4  O1        32.4100   10.5890   17.8010 O.3   369  K5E369     -0.2866
      5  C2        32.8630   11.9650   15.8840 C.ar  369  K5E369      0.0420
      6  N2        27.4050   14.2750   13.3320 N.2   369  K5E369     -0.3427
      7  O2        28.4760   13.5420   17.9900 O.3   369  K5E369     -0.2223
      8  C3        32.4120   12.7580   14.8400 C.ar  369  K5E369      0.0034
      9  C4        31.0360   12.9490   14.6380 C.ar  369  K5E369      0.0025
     10  C5        30.1150   12.3470   15.4980 C.ar  369  K5E369      0.0300
     11  C6        30.5760   11.5580   16.5550 C.ar  369  K5E369      0.0443
     12  C7        28.6470   12.5500   15.2910 C.2   369  K5E369      0.1304
     13  C8        27.7330   13.0090   13.0270 C.1   369  K5E369      0.1785
     14  C9        27.6410   14.7970   14.5430 C.2   369  K5E369      0.1083
     15  C10       28.2680   13.9550   15.6000 C.3   369  K5E369      0.1324
     16  C11       28.5740   14.5240   16.9490 C.3   369  K5E369      0.1649
     17  C12       27.7380   15.7740   17.2350 C.3   369  K5E369      0.0342
     18  C13       27.9290   16.7630   16.0890 C.3   369  K5E369      0.0097
     19  C14       27.2570   16.2460   14.8090 C.3   369  K5E369      0.0560
@<TRIPOS>BOND
     1     1    13    2
     2    13     6    2
     3    13     3    2
     4     6    14    2
     5     3    12    2
     6    14    19    1
     7    14    15    1
     8     9     8   ar
     9     9    10   ar
    10    19    18    1
    11     8     5   ar
    12    12    10    1
    13    12    15    1
    14    10    11   ar
    15    15    16    1
    16     5     2   ar
    17    18    17    1
    18    11     2   ar
    19     2     4    1
    20    16    17    1
    21    16     7    1
