@<TRIPOS>MOLECULE
3k5e_ADP_A_1.pdb
 27 29 0 0 0
SMALL
GASTEIGER

@<TRIPOS>ATOM
      1  PB        17.5600    5.5290   17.1770 P.3   603  ADP603      0.5373
      2  O1B       16.2860    6.0820   17.8010 O.3   603  ADP603     -0.1143
      3  O2B       17.3410    4.1790   16.5340 O.3   603  ADP603     -0.1143
      4  O3B       18.3200    6.5030   16.3330 O.2   603  ADP603     -0.2221
      5  PA        19.6990    6.1950   18.9430 P.3   603  ADP603      0.2231
      6  O1A       20.7860    6.1140   17.9090 O.2   603  ADP603     -0.5169
      7  O2A       19.1530    7.5450   19.3150 O.3   603  ADP603     -0.4370
      8  O3A       18.4810    5.2610   18.4660 O.3   603  ADP603     -0.2261
      9  O5'       20.1510    5.4030   20.2630 O.3   603  ADP603     -0.3111
     10  C5'       19.2520    5.1050   21.3330 C.3   603  ADP603      0.1813
     11  C4'       20.0460    5.0860   22.6350 C.3   603  ADP603      0.1821
     12  O4'       20.6760    3.8200   22.8190 O.3   603  ADP603     -0.3135
     13  C3'       21.1450    6.1410   22.6240 C.3   603  ADP603      0.2184
     14  O3'       21.1980    6.6770   23.9440 O.3   603  ADP603     -0.2174
     15  C2'       22.4080    5.3820   22.2900 C.3   603  ADP603      0.2570
     16  O2'       23.5780    5.8950   22.9330 O.3   603  ADP603     -0.2130
     17  C1'       22.1010    3.9790   22.7710 C.3   603  ADP603      0.3186
     18  N9        22.7010    3.0200   21.8220 N.pl3 603  ADP603     -0.1439
     19  C8        22.1830    2.6380   20.6410 C.3   603  ADP603      0.3377
     20  N7        23.0020    1.7480   20.0400 N.2   603  ADP603     -0.2095
     21  C5        24.0660    1.5640   20.8480 C.2   603  ADP603      0.2526
     22  C6        25.3010    0.7500   20.8210 C.2   603  ADP603      0.4393
     23  N6        25.5400   -0.0540   19.7620 N.pl3 603  ADP603      0.2180
     24  N1        26.1600    0.8430   21.8690 N.2   603  ADP603      0.0021
     25  C2        25.9210    1.6480   22.9340 C.3   603  ADP603      0.5254
     26  N3        24.8060    2.4110   23.0220 N.2   603  ADP603     -0.0055
     27  C4        23.8680    2.4080   22.0280 C.2   603  ADP603      0.3518
@<TRIPOS>BOND
     1     4     1    2
     2     3     1    1
     3     1     2    1
     4     1     8    1
     5     6     5    2
     6     8     5    1
     7     5     7    1
     8     5     9    1
     9    23    22    1
    10    20    19    1
    11    20    21    2
    12     9    10    1
    13    19    18    1
    14    22    21    1
    15    22    24    2
    16    21    27    1
    17    10    11    1
    18    18    27    1
    19    18    17    1
    20    24    25    1
    21    27    26    2
    22    15    13    1
    23    15    17    1
    24    15    16    1
    25    13    11    1
    26    13    14    1
    27    11    12    1
    28    17    12    1
    29    25    26    1
