@<TRIPOS>MOLECULE
3k5f_AYH_A_1.pdb
 36 37 0 0 0
SMALL
GASTEIGER

@<TRIPOS>ATOM
      1  N1         5.3980   12.3450   27.3600 N.am  387  AYH387     -0.2042
      2  C3         4.4390   13.4230   27.5040 C.3   387  AYH387      0.1299
      3  C5         4.9510   14.8010   27.0400 C.3   387  AYH387      0.1726
      4  O7         5.9910   15.2350   27.9560 O.3   387  AYH387     -0.2213
      5  C9         5.5030   14.7330   25.6000 C.3   387  AYH387      0.0438
      6  C12        5.4720   16.1790   25.0290 C.3   387  AYH387      0.0808
      7  C14        6.4290   16.3060   23.8230 C.3   387  AYH387      0.0097
      8  C18        4.0800   16.5060   24.5070 C.2   387  AYH387      0.2410
      9  O19        3.3990   15.6480   23.9640 O.2   387  AYH387     -0.2734
     10  N20        3.6610   17.7610   24.6840 N.am  387  AYH387     -0.2054
     11  C22        2.3260   18.1390   24.1970 C.3   387  AYH387      0.1151
     12  C25        1.9920   19.5650   24.6590 C.3   387  AYH387      0.0234
     13  C28        0.8220   20.1520   23.8200 C.3   387  AYH387      0.0018
     14  C31       -0.5160   19.4390   24.1580 C.3   387  AYH387      0.0001
     15  C35        3.9200   13.5130   28.9450 C.3   387  AYH387      0.0506
     16  C38        3.4990   12.1220   29.4440 C.ar  387  AYH387     -0.0204
     17  C39        2.5630   11.3550   28.7230 C.ar  387  AYH387     -0.0042
     18  C41        2.1950   10.0720   29.1780 C.ar  387  AYH387     -0.0003
     19  C43        2.7570    9.5620   30.3670 C.ar  387  AYH387     -0.0000
     20  C45        3.6810   10.3360   31.0900 C.ar  387  AYH387     -0.0003
     21  C47        4.0530   11.6070   30.6260 C.ar  387  AYH387     -0.0042
     22  C49        5.2480   11.5000   26.3220 C.2   387  AYH387      0.2409
     23  O50        4.3640   11.6110   25.4850 O.2   387  AYH387     -0.2734
     24  C51        6.2560   10.3740   26.2340 C.3   387  AYH387      0.0783
     25  C53        5.9140    9.3680   27.3790 C.3   387  AYH387      0.0108
     26  C56        6.8850    8.1560   27.3990 C.3   387  AYH387      0.0189
     27  C58        6.9590    7.4770   25.9830 C.3   387  AYH387      0.0017
     28  C61        7.3610    8.5040   24.8940 C.3   387  AYH387      0.0005
     29  C64        6.2940    9.6490   24.8550 C.3   387  AYH387      0.0091
     30  C67        6.4440    7.1220   28.5230 C.3   387  AYH387      0.0787
     31  N68        6.3920    7.8410   29.8130 N.am  387  AYH387     -0.2088
     32  C70        7.5030    8.4410   30.2950 C.2   387  AYH387      0.2418
     33  O71        8.5850    8.3920   29.7250 O.2   387  AYH387     -0.2733
     34  C72        7.3570    9.2020   31.5980 C.3   387  AYH387      0.0964
     35  C76        5.0450    6.5250   28.2770 C.3   387  AYH387      0.0217
     36  C80        7.4340    5.9340   28.5790 C.3   387  AYH387      0.0217
@<TRIPOS>BOND
     1    13    14    1
     2    13    12    1
     3     7     6    1
     4     9     8    2
     5    11    12    1
     6    11    10    1
     7     8    10   am
     8     8     6    1
     9    29    28    1
    10    29    24    1
    11    28    27    1
    12     6     5    1
    13    23    22    2
    14     5     3    1
    15    27    26    1
    16    24    22    1
    17    24    25    1
    18    22     1   am
    19     3     2    1
    20     3     4    1
    21     1     2    1
    22    25    26    1
    23    26    30    1
    24     2    15    1
    25    35    30    1
    26    30    36    1
    27    30    31    1
    28    17    18   ar
    29    17    16   ar
    30    15    16    1
    31    18    19   ar
    32    16    21   ar
    33    33    32    2
    34    31    32   am
    35    32    34    1
    36    19    20   ar
    37    21    20   ar
