@<TRIPOS>MOLECULE
3k5g_BJC_A_1.pdb
 41 44 0 0 0
SMALL
GASTEIGER

@<TRIPOS>ATOM
      1  N1        27.6370    8.2520   19.5530 N.am  387  BJC387     -0.2827
      2  C2        28.5930    9.3660   19.2720 C.3   387  BJC387      0.0933
      3  C5        29.7890    9.5810   20.2450 C.3   387  BJC387      0.0220
      4  C8        30.4600    8.2180   20.5230 C.3   387  BJC387      0.0113
      5  C11       29.4070    7.2850   21.1720 C.3   387  BJC387      0.0853
      6  C14       28.0530    7.2720   20.4590 C.2   387  BJC387      0.2255
      7  O15       27.3750    6.3040   20.7620 O.2   387  BJC387     -0.2749
      8  C16       26.2700    8.1580   18.8900 C.3   387  BJC387      0.0603
      9  C17       26.2680    6.8450   17.9980 C.3   387  BJC387      0.0172
     10  C19       27.4310    6.8230   16.9450 C.3   387  BJC387      0.0107
     11  C22       27.5270    5.5230   16.1050 C.3   387  BJC387      0.0783
     12  C24       26.1260    5.1630   15.4930 C.3   387  BJC387      0.0091
     13  C27       25.0420    5.0610   16.6010 C.3   387  BJC387      0.0005
     14  C30       24.9010    6.4230   17.3500 C.3   387  BJC387      0.0016
     15  C33       28.6210    5.7200   15.0800 C.2   387  BJC387      0.2409
     16  O34       28.3560    5.9510   13.9040 O.2   387  BJC387     -0.2734
     17  N35       29.9080    5.6310   15.5430 N.am  387  BJC387     -0.2042
     18  C37       31.1040    5.7940   14.7090 C.3   387  BJC387      0.1313
     19  C39       31.7840    4.4230   14.4310 C.3   387  BJC387      0.1894
     20  O41       32.9750    4.5940   13.6490 O.3   387  BJC387     -0.2197
     21  C43       30.8440    3.4930   13.6170 C.3   387  BJC387      0.1237
     22  N46       31.5050    2.2430   13.1800 N.3   387  BJC387     -0.2105
     23  C48       30.7800    1.4800   12.1190 C.3   387  BJC387      0.1151
     24  C51       30.7080    2.2840   10.7970 C.ar  387  BJC387     -0.0051
     25  C52       31.8860    2.7240   10.1500 C.ar  387  BJC387     -0.0072
     26  C54       31.8370    3.4630    8.9350 C.ar  387  BJC387     -0.0228
     27  C55       30.5690    3.7540    8.3730 C.ar  387  BJC387     -0.0043
     28  C57       29.3790    3.3170    9.0130 C.ar  387  BJC387     -0.0006
     29  C59       29.4450    2.5830   10.2200 C.ar  387  BJC387     -0.0029
     30  C61       33.1400    3.9240    8.2400 C.3   387  BJC387      0.0223
     31  C63       33.6320    5.2620    8.8310 C.3   387  BJC387      0.0047
     32  C67       34.2950    2.8890    8.2110 C.3   387  BJC387      0.0047
     33  C71       32.0740    6.7870   15.4350 C.3   387  BJC387      0.0506
     34  C74       31.5320    8.1840   15.7920 C.ar  387  BJC387     -0.0204
     35  C75       30.4350    8.7880   15.1050 C.ar  387  BJC387     -0.0042
     36  C77       29.9820   10.0820   15.4740 C.ar  387  BJC387     -0.0003
     37  C79       30.6180   10.7780   16.5280 C.ar  387  BJC387     -0.0000
     38  C81       31.7090   10.1870   17.2170 C.ar  387  BJC387     -0.0003
     39  C83       32.1590    8.8950   16.8490 C.ar  387  BJC387     -0.0042
     40  C85       25.9590    9.4170   17.9870 C.3   387  BJC387      0.0199
     41  C89       25.0780    8.2000   19.9150 C.3   387  BJC387      0.0199
@<TRIPOS>BOND
     1    32    30    1
     2    30    31    1
     3    30    26    1
     4    27    26   ar
     5    27    28   ar
     6    26    25   ar
     7    28    29   ar
     8    25    24   ar
     9    29    24   ar
    10    24    23    1
    11    23    22    1
    12    22    21    1
    13    21    19    1
    14    20    19    1
    15    16    15    2
    16    19    18    1
    17    18    33    1
    18    18    17    1
    19    15    17   am
    20    15    11    1
    21    35    36   ar
    22    35    34   ar
    23    33    34    1
    24    36    37   ar
    25    12    11    1
    26    12    13    1
    27    34    39   ar
    28    11    10    1
    29    37    38   ar
    30    13    14    1
    31    39    38   ar
    32    10     9    1
    33    14     9    1
    34    40     8    1
    35     9     8    1
    36     8     1    1
    37     8    41    1
    38     2     1    1
    39     2     3    1
    40     1     6   am
    41     3     4    1
    42     6     7    2
    43     6     5    1
    44     4     5    1
