@<TRIPOS>MOLECULE
3k5h_ATP_A_1.pdb
 31 33 0 0 0
SMALL
GASTEIGER

@<TRIPOS>ATOM
      1  PG        10.9120   29.4490   31.0620 P.3   400  ATP400      0.5373
      2  O1G       11.4940   28.1160   30.7410 O.3   400  ATP400     -0.1143
      3  O2G        9.5340   29.7710   30.5600 O.2   400  ATP400     -0.2221
      4  O3G       11.1190   29.6160   32.6400 O.3   400  ATP400     -0.1143
      5  PB        12.8110   31.5250   30.5810 P.3   400  ATP400      0.2277
      6  O1B       12.2300   32.8860   30.4650 O.2   400  ATP400     -0.5168
      7  O2B       13.4400   31.1470   31.9300 O.3   400  ATP400     -0.4368
      8  O3B       11.6840   30.5030   30.1460 O.3   400  ATP400     -0.2258
      9  PA        14.8910   30.1470   29.2120 P.3   400  ATP400      0.2189
     10  O1A       14.2710   28.9570   29.9060 O.3   400  ATP400     -0.4371
     11  O2A       16.2770   30.5280   29.6350 O.2   400  ATP400     -0.5170
     12  O3A       13.9650   31.4120   29.5160 O.3   400  ATP400     -0.2700
     13  O5'       14.7810   30.2590   27.6060 O.3   400  ATP400     -0.3112
     14  C5'       13.7380   29.5050   26.9490 C.3   400  ATP400      0.1813
     15  C4'       14.4500   28.8610   25.7870 C.3   400  ATP400      0.1821
     16  O4'       15.3920   29.8370   25.2730 O.3   400  ATP400     -0.3135
     17  C3'       15.3970   27.7180   26.1520 C.3   400  ATP400      0.2184
     18  O3'       14.4980   26.6010   26.2990 O.3   400  ATP400     -0.2174
     19  C2'       16.2220   27.6990   24.8520 C.3   400  ATP400      0.2570
     20  O2'       15.6560   26.8920   23.7770 O.3   400  ATP400     -0.2130
     21  C1'       16.2880   29.1690   24.4550 C.3   400  ATP400      0.3186
     22  N9        17.5760   29.5500   24.9660 N.pl3 400  ATP400     -0.1439
     23  C8        17.8580   29.9670   26.2220 C.3   400  ATP400      0.3377
     24  N7        19.1780   30.1490   26.3830 N.2   400  ATP400     -0.2095
     25  C5        19.7660   29.8570   25.1610 C.2   400  ATP400      0.2526
     26  C6        21.1300   29.9000   24.7420 C.2   400  ATP400      0.4393
     27  N6        22.2080   30.2610   25.3040 N.pl3 400  ATP400      0.2180
     28  N1        21.1410   29.4710   23.4480 N.2   400  ATP400      0.0021
     29  C2        20.0900   29.1460   22.6250 C.3   400  ATP400      0.5254
     30  N3        18.8480   29.0860   23.0070 N.2   400  ATP400     -0.0055
     31  C4        18.7570   29.4940   24.2800 C.2   400  ATP400      0.3518
@<TRIPOS>BOND
     1    29    30    1
     2    29    28    1
     3    30    31    2
     4    28    26    2
     5    20    19    1
     6    31    22    1
     7    31    25    1
     8    21    19    1
     9    21    22    1
    10    21    16    1
    11    26    25    1
    12    26    27    1
    13    19    17    1
    14    22    23    1
    15    25    24    2
    16    16    15    1
    17    15    17    1
    18    15    14    1
    19    17    18    1
    20    23    24    1
    21    14    13    1
    22    13     9    1
    23     9    12    1
    24     9    11    2
    25     9    10    1
    26    12     5    1
    27     8     5    1
    28     8     1    1
    29     6     5    2
    30     3     1    2
    31     5     7    1
    32     2     1    1
    33     1     4    1
