@<TRIPOS>MOLECULE
3k5i_AIR_A_1.pdb
 19 20 0 0 0
SMALL
GASTEIGER

@<TRIPOS>ATOM
      1  N1         6.1680   30.5790   36.1900 N.ar  402  AIR402     -0.2702
      2  C2         7.0230   30.8690   37.2130 C.ar  402  AIR402      0.1814
      3  N3         8.2860   31.0870   36.8540 N.ar  402  AIR402     -0.2208
      4  C4         8.2480   30.8750   35.4880 C.ar  402  AIR402      0.1365
      5  C5         6.9600   30.5710   35.0530 C.ar  402  AIR402      0.1735
      6  N6         6.4680   30.3130   33.8000 N.pl3 402  AIR402     -0.1072
      7  C1'        4.7040   30.3640   36.1180 C.3   402  AIR402      0.2408
      8  C2'        3.9980   30.4260   37.4920 C.3   402  AIR402      0.2337
      9  C3'        4.0160   31.9620   37.5790 C.3   402  AIR402      0.2161
     10  C4'        3.4240   32.2820   36.2040 C.3   402  AIR402      0.1803
     11  O4'        4.2550   31.4680   35.3540 O.3   402  AIR402     -0.3306
     12  O2'        2.7190   29.7840   37.6700 O.3   402  AIR402     -0.2155
     13  O3'        3.3150   32.3760   38.7320 O.3   402  AIR402     -0.2175
     14  C5'        2.5300   33.3400   35.5860 C.3   402  AIR402      0.1859
     15  O5'        3.0480   33.8810   34.3370 O.3   402  AIR402     -0.2675
     16  P          2.2290   35.0790   33.6270 P.3   402  AIR402      0.5327
     17  O6         1.7480   34.6380   32.1400 O.2   402  AIR402     -0.2224
     18  O7         3.2180   36.1930   33.6300 O.3   402  AIR402     -0.1145
     19  O8         1.0130   35.3520   34.4830 O.3   402  AIR402     -0.1145
@<TRIPOS>BOND
     1    17    16    2
     2    16    18    1
     3    16    15    1
     4    16    19    1
     5     6     5    1
     6    15    14    1
     7     5     4   ar
     8     5     1   ar
     9    11     7    1
    10    11    10    1
    11     4     3   ar
    12    14    10    1
    13     7     1    1
    14     7     8    1
    15     1     2   ar
    16    10     9    1
    17     3     2   ar
    18     8     9    1
    19     8    12    1
    20     9    13    1
