@<TRIPOS>MOLECULE
3k5i_ADP_A_1.pdb
 27 29 0 0 0
SMALL
GASTEIGER

@<TRIPOS>ATOM
      1  PB        14.2240   31.9990   30.4860 P.3   400  ADP400      0.5373
      2  O1B       13.3130   33.1230   30.1730 O.2   400  ADP400     -0.2221
      3  O2B       14.3350   32.2630   31.9720 O.3   400  ADP400     -0.1143
      4  O3B       14.0660   30.4440   30.4970 O.3   400  ADP400     -0.1143
      5  PA        16.7540   31.0390   29.1980 P.3   400  ADP400      0.2231
      6  O1A       16.5160   29.6570   29.6210 O.3   400  ADP400     -0.4370
      7  O2A       18.1880   31.4040   29.4910 O.2   400  ADP400     -0.5169
      8  O3A       15.6730   32.0670   29.7960 O.3   400  ADP400     -0.2261
      9  O5'       16.5890   30.9260   27.6030 O.3   400  ADP400     -0.3111
     10  C5'       15.4750   30.2580   26.9990 C.3   400  ADP400      0.1813
     11  C4'       15.9390   29.5200   25.7680 C.3   400  ADP400      0.1821
     12  O4'       16.5740   30.4510   24.8540 O.3   400  ADP400     -0.3135
     13  C3'       17.0300   28.4730   25.9070 C.3   400  ADP400      0.2184
     14  O3'       16.3240   27.2300   26.0530 O.3   400  ADP400     -0.2174
     15  C2'       17.7110   28.3990   24.5350 C.3   400  ADP400      0.2570
     16  O2'       16.7720   28.0080   23.4890 O.3   400  ADP400     -0.2130
     17  C1'       17.7240   29.8950   24.3040 C.3   400  ADP400      0.3186
     18  N9        19.0140   30.3720   24.7770 N.pl3 400  ADP400     -0.1439
     19  C8        19.2590   30.8170   26.0470 C.3   400  ADP400      0.3377
     20  N7        20.5800   31.0410   26.2350 N.2   400  ADP400     -0.2095
     21  C5        21.1140   30.7830   24.9890 C.2   400  ADP400      0.2526
     22  C6        22.4580   30.9680   24.5180 C.2   400  ADP400      0.4393
     23  N6        23.5150   31.2820   25.0140 N.pl3 400  ADP400      0.2180
     24  N1        22.6730   30.6160   23.2170 N.2   400  ADP400      0.0021
     25  C2        21.6760   30.2070   22.3460 C.3   400  ADP400      0.5254
     26  N3        20.4360   30.1490   22.7530 N.2   400  ADP400     -0.0055
     27  C4        20.1780   30.4070   24.0470 C.2   400  ADP400      0.3518
@<TRIPOS>BOND
     1    25    26    1
     2    25    24    1
     3    26    27    2
     4    24    22    2
     5    16    15    1
     6    27    18    1
     7    27    21    1
     8    17    15    1
     9    17    18    1
    10    17    12    1
    11    22    21    1
    12    22    23    1
    13    15    13    1
    14    18    19    1
    15    12    11    1
    16    21    20    2
    17    11    13    1
    18    11    10    1
    19    13    14    1
    20    19    20    1
    21    10     9    1
    22     9     5    1
    23     5     7    2
    24     5     6    1
    25     5     8    1
    26     8     1    1
    27     2     1    2
    28     1     4    1
    29     1     3    1
