@<TRIPOS>MOLECULE
3k5k_SAH_A_1.pdb
 26 28 0 0 0
SMALL
GASTEIGER

@<TRIPOS>ATOM
      1  N        -44.6380   -1.4980   47.5510 N.3   1198  SAH1198    -0.1208
      2  CA       -44.2850   -0.5560   46.4340 C.3   1198  SAH1198     0.1952
      3  CB       -42.7770   -0.5950   46.1330 C.3   1198  SAH1198     0.0422
      4  CG       -41.9650    0.3680   47.0080 C.3   1198  SAH1198     0.0597
      5  SD       -42.2240    2.0590   46.5160 S.3   1198  SAH1198    -0.1375
      6  C        -45.0350   -0.9600   45.2090 C.2   1198  SAH1198     0.3819
      7  O        -44.7470   -0.4420   44.1210 O.co2 1198  SAH1198    -0.2441
      8  OXT      -45.9400   -1.8120   45.2570 O.co2 1198  SAH1198    -0.2441
      9  C5'      -42.5710    2.7950   48.0890 C.3   1198  SAH1198     0.0899
     10  C4'      -44.0790    2.7370   48.3790 C.3   1198  SAH1198     0.1630
     11  O4'      -44.4370    1.3900   48.7490 O.3   1198  SAH1198    -0.3153
     12  C3'      -44.5070    3.6000   49.5680 C.3   1198  SAH1198     0.2168
     13  O3'      -44.9340    4.9220   49.2150 O.3   1198  SAH1198    -0.2175
     14  C2'      -45.6560    2.8050   50.1260 C.3   1198  SAH1198     0.2569
     15  O2'      -46.8140    3.0380   49.3230 O.3   1198  SAH1198    -0.2130
     16  C1'      -45.2260    1.3610   49.9490 C.3   1198  SAH1198     0.3185
     17  N9       -44.3910    0.9770   51.1210 N.pl3 1198  SAH1198    -0.1439
     18  C8       -43.0500    0.8170   51.1300 C.3   1198  SAH1198     0.3377
     19  N7       -42.5870    0.4580   52.3520 N.2   1198  SAH1198    -0.2095
     20  C5       -43.6580    0.3930   53.1650 C.2   1198  SAH1198     0.2526
     21  C6       -43.8940    0.0790   54.5960 C.2   1198  SAH1198     0.4393
     22  N6       -42.8770   -0.2430   55.4380 N.pl3 1198  SAH1198     0.2180
     23  N1       -45.1760    0.1270   55.0310 N.2   1198  SAH1198     0.0021
     24  C2       -46.2200    0.4400   54.2380 C.3   1198  SAH1198     0.5254
     25  N3       -46.0840    0.7270   52.9260 N.2   1198  SAH1198    -0.0055
     26  C4       -44.8430    0.7240   52.3500 C.2   1198  SAH1198     0.3518
@<TRIPOS>BOND
     1     7     6   ar
     2     6     8   ar
     3     6     2    1
     4     3     2    1
     5     3     4    1
     6     2     1    1
     7     5     4    1
     8     5     9    1
     9     9    10    1
    10    10    11    1
    11    10    12    1
    12    11    16    1
    13    13    12    1
    14    15    14    1
    15    12    14    1
    16    16    14    1
    17    16    17    1
    18    17    18    1
    19    17    26    1
    20    18    19    1
    21    26    25    2
    22    26    20    1
    23    19    20    2
    24    25    24    1
    25    20    21    1
    26    24    23    1
    27    21    23    2
    28    21    22    1
