@<TRIPOS>MOLECULE
3k5k_DXQ_A_1.pdb
 35 38 0 0 0
SMALL
GASTEIGER

@<TRIPOS>ATOM
      1  N1       -38.7770   15.9130   47.5210 N.2   2000  DXQ2000    -0.3112
      2  C2       -37.4490   15.6330   47.5040 C.1   2000  DXQ2000     0.2037
      3  N3       -37.0030   14.4500   48.0140 N.2   2000  DXQ2000    -0.3320
      4  C4       -37.8570   13.5280   48.5240 C.2   2000  DXQ2000     0.1341
      5  C5       -39.2230   13.8220   48.5450 C.2   2000  DXQ2000     0.0762
      6  C6       -39.6740   15.0420   48.0260 C.2   2000  DXQ2000     0.2150
      7  CAA      -41.9220   11.0810   50.0540 C.3   2000  DXQ2000     0.2526
      8  CAB      -38.5760    5.9330   48.4780 C.3   2000  DXQ2000     0.0897
      9  CAC      -36.2480    5.8140   48.7130 C.3   2000  DXQ2000     0.0897
     10  CAD      -35.3610   20.3800   48.6450 C.3   2000  DXQ2000     0.0897
     11  CAE      -44.4990   19.1530   46.1560 C.3   2000  DXQ2000     0.0896
     12  CAF      -37.3950   12.3090   49.0460 C.3   2000  DXQ2000     0.1270
     13  CAG      -40.1330   12.9040   49.0760 C.2   2000  DXQ2000     0.0459
     14  CAH      -36.4600    8.2880   50.5860 C.3   2000  DXQ2000     0.0646
     15  CAI      -34.3000   16.8470   48.1410 C.3   2000  DXQ2000     0.0396
     16  CAJ      -36.6090    9.6460   49.8580 C.3   2000  DXQ2000     0.2065
     17  CAK      -41.7860   16.5160   46.0070 C.3   2000  DXQ2000     0.0390
     18  CAL      -41.6870   17.6730   48.1980 C.3   2000  DXQ2000     0.0390
     19  CAM      -37.5320    7.2360   50.2180 C.3   2000  DXQ2000     0.0760
     20  CAN      -34.9220   18.0370   48.9040 C.3   2000  DXQ2000     0.0740
     21  CAO      -35.1320   16.2510   46.9870 C.3   2000  DXQ2000     0.1046
     22  CAP      -42.9960   17.3670   45.5810 C.3   2000  DXQ2000     0.0739
     23  CAQ      -42.9380   18.5040   47.8710 C.3   2000  DXQ2000     0.0739
     24  CAR      -36.9170   18.8200   47.7460 C.3   2000  DXQ2000     0.0947
     25  CAS      -37.1060   17.8550   46.5700 C.3   2000  DXQ2000     0.1204
     26  NAV      -40.9950   15.2560   48.0730 N.pl3 2000  DXQ2000    -0.2106
     27  OAW      -40.5330   10.7670   50.1180 O.2   2000  DXQ2000    -0.4687
     28  OAX      -37.9330   10.1690   50.1010 O.2   2000  DXQ2000    -0.4762
     29  CAY      -39.6770   11.6860   49.5940 C.2   2000  DXQ2000     0.1688
     30  CAZ      -38.3080   11.3800   49.5720 C.2   2000  DXQ2000     0.1567
     31  CBE      -41.8670   16.3200   47.5160 C.3   2000  DXQ2000     0.0978
     32  NBF      -37.3920    6.7200   48.8310 N.3   2000  DXQ2000    -0.2702
     33  NBG      -35.4850   19.0550   47.9960 N.3   2000  DXQ2000    -0.2700
     34  NBH      -43.1620   18.5950   46.4070 N.3   2000  DXQ2000    -0.2714
     35  NBI      -36.5810   16.5440   47.0050 N.pl3 2000  DXQ2000    -0.2327
@<TRIPOS>BOND
     1    22    17    1
     2    22    34    1
     3    17    31    1
     4    11    34    1
     5    34    23    1
     6    25    35    1
     7    25    24    1
     8    21    35    1
     9    21    15    1
    10    35     2    1
    11     2     1    2
    12     2     3    2
    13    31    26    1
    14    31    18    1
    15     1     6    2
    16    24    33    1
    17    23    18    1
    18    33    10    1
    19    33    20    1
    20     3     4    2
    21     6    26    1
    22     6     5    1
    23    15    20    1
    24     8    32    1
    25     4     5    1
    26     4    12    1
    27     5    13    2
    28     9    32    1
    29    32    19    1
    30    12    30    1
    31    13    29    1
    32    30    29    2
    33    30    28    1
    34    29    27    1
    35    16    28    1
    36    16    14    1
    37     7    27    1
    38    19    14    1
