@<TRIPOS>MOLECULE
3k5u_PFQ_A_1.pdb
 25 28 0 0 0
SMALL
GASTEIGER

@<TRIPOS>ATOM
      1  C2        -4.4370  -30.5870    9.6760 C.3   1001  PFQ1001     0.3939
      2  C10       -3.4870  -32.0960    5.5850 C.2   1001  PFQ1001     0.1437
      3  C11       -2.8700  -32.8540    4.6080 C.ar  1001  PFQ1001     0.0343
      4  C12       -2.7970  -32.5120    3.2670 C.ar  1001  PFQ1001     0.0030
      5  C13       -2.0850  -33.3120    2.3840 C.ar  1001  PFQ1001     0.0001
      6  C14       -1.5640  -34.5360    2.8100 C.ar  1001  PFQ1001     0.0000
      7  C15       -1.4940  -34.8140    4.1790 C.ar  1001  PFQ1001     0.0001
      8  C16       -2.2470  -34.0300    5.0540 C.ar  1001  PFQ1001     0.0030
      9  C19       -4.7640  -28.9360    4.4230 C.ar  1001  PFQ1001    -0.0002
     10  C20       -5.4030  -28.2510    3.4060 C.ar  1001  PFQ1001    -0.0000
     11  C21       -6.1070  -28.9490    2.4200 C.ar  1001  PFQ1001    -0.0000
     12  C22       -6.0620  -30.3430    2.4350 C.ar  1001  PFQ1001    -0.0000
     13  N1        -3.8240  -31.5750    9.0540 N.2   1001  PFQ1001    -0.1873
     14  C6        -3.8210  -31.6010    7.7190 C.2   1001  PFQ1001     0.2206
     15  O6        -3.1970  -32.4680    6.8720 O.2   1001  PFQ1001    -0.4395
     16  C5        -4.5200  -30.6580    6.9630 C.3   1001  PFQ1001     0.2098
     17  N9        -5.9870  -28.7640    7.0820 N.pl3 1001  PFQ1001    -0.0320
     18  C4        -5.2200  -29.6860    7.6640 C.2   1001  PFQ1001     0.3468
     19  N3        -5.1140  -29.6700    9.0090 N.2   1001  PFQ1001    -0.0365
     20  C17       -5.6490  -30.9990    3.6130 C.ar  1001  PFQ1001    -0.0002
     21  C1        -4.3130  -30.9980    5.6250 C.2   1001  PFQ1001     0.0326
     22  C18       -4.8980  -30.3180    4.5670 C.ar  1001  PFQ1001    -0.0000
     23  C23       -8.0290  -28.3500    8.4710 C.3   1001  PFQ1001     0.2372
     24  C8        -6.7290  -27.7610    7.8700 C.3   1001  PFQ1001     0.2862
     25  O24       -8.7000  -27.3760    9.2920 O.3   1001  PFQ1001    -0.2156
@<TRIPOS>BOND
     1     5     6   ar
     2     5     4   ar
     3    11    12   ar
     4    11    10   ar
     5    12    20   ar
     6     6     7   ar
     7     4     3   ar
     8    10     9   ar
     9    20    22   ar
    10     7     8   ar
    11     9    22   ar
    12    22    21    1
    13     3     8   ar
    14     3     2    1
    15     2    21    2
    16     2    15    1
    17    21    16    1
    18    15    14    1
    19    16    18    1
    20    16    14    1
    21    17    18    1
    22    17    24    1
    23    18    19    2
    24    14    13    2
    25    24    23    1
    26    23    25    1
    27    19     1    1
    28    13     1    1
