@<TRIPOS>MOLECULE
3k5v_STI_A_1.pdb
 37 41 0 0 0
SMALL
GASTEIGER

@<TRIPOS>ATOM
      1  C1        26.1890   19.7940   59.0330 C.ar    2  STI2        0.0208
      2  C6        25.0280   19.0110   59.1320 C.ar    2  STI2        0.0057
      3  C5        24.6620   18.1880   58.0500 C.ar    2  STI2        0.0497
      4  C4        25.4500   18.1820   56.8820 C.ar    2  STI2        0.1014
      5  N3        26.5600   18.9590   56.8070 N.ar    2  STI2       -0.2422
      6  C2        26.9360   19.7370   57.8520 C.ar    2  STI2        0.0989
      7  C7        23.4400   17.3620   58.1540 C.2     2  STI2        0.1472
      8  C12       22.6960   17.2530   59.3270 C.2     2  STI2        0.0546
      9  C11       21.5440   16.4500   59.3200 C.2     2  STI2        0.1144
     10  N10       21.2200   15.7820   58.2000 N.2     2  STI2       -0.1683
     11  C9        21.9570   15.8840   57.0720 C.1     2  STI2        0.1696
     12  N8        23.0700   16.6510   57.0650 N.2     2  STI2       -0.3361
     13  N13       21.6160   15.2020   55.9510 N.pl3   2  STI2       -0.1360
     14  C14       20.5770   14.3150   55.8650 C.ar    2  STI2        0.0799
     15  C19       20.7090   12.9750   56.2700 C.ar    2  STI2       -0.0057
     16  C18       19.6170   12.0950   56.1500 C.ar    2  STI2       -0.0016
     17  C17       18.3950   12.5370   55.6060 C.ar    2  STI2        0.0164
     18  C16       18.2460   13.8870   55.2350 C.ar    2  STI2        0.0750
     19  C15       19.3440   14.7450   55.3330 C.ar    2  STI2        0.0336
     20  N21       17.0170   14.2970   54.6170 N.am    2  STI2       -0.1754
     21  C22       16.6790   15.5240   54.1690 C.2     2  STI2        0.2690
     22  C23       15.3690   15.6700   53.4180 C.ar    2  STI2        0.0554
     23  C25       15.2050   16.7830   52.5970 C.ar    2  STI2        0.0043
     24  C26       14.0260   16.9550   51.8580 C.ar    2  STI2       -0.0028
     25  C27       13.0340   15.9750   51.9310 C.ar    2  STI2       -0.0061
     26  C28       13.2040   14.8450   52.7330 C.ar    2  STI2       -0.0028
     27  C29       14.3830   14.6780   53.4700 C.ar    2  STI2        0.0043
     28  C46       11.7370   16.1660   51.1190 C.3     2  STI2        0.0992
     29  N48       10.5380   16.0050   51.9680 N.3     2  STI2       -0.2665
     30  C53       10.4590   16.9200   53.1340 C.3     2  STI2        0.0899
     31  C52        9.2430   16.5420   53.9990 C.3     2  STI2        0.0897
     32  N51        8.0140   16.6060   53.1580 N.3     2  STI2       -0.2691
     33  C54        6.8060   16.3060   53.9750 C.3     2  STI2        0.0897
     34  C50        8.0770   15.7080   51.9750 C.3     2  STI2        0.0897
     35  C49        9.3140   16.0470   51.1090 C.3     2  STI2        0.0899
     36  O29       17.3270   16.5300   54.3770 O.2     2  STI2       -0.2680
     37  C20       22.0460   12.4840   56.8480 C.3     2  STI2        0.0324
@<TRIPOS>BOND
     1    35    29    1
     2    35    34    1
     3    28    25    1
     4    28    29    1
     5    24    25   ar
     6    24    23   ar
     7    25    26   ar
     8    29    30    1
     9    34    32    1
    10    23    22   ar
    11    26    27   ar
    12    30    31    1
    13    32    33    1
    14    32    31    1
    15    22    27   ar
    16    22    21    1
    17    21    36    2
    18    21    20   am
    19    20    18    1
    20    18    19   ar
    21    18    17   ar
    22    19    14   ar
    23    17    16   ar
    24    14    13    1
    25    14    15   ar
    26    13    11    1
    27    16    15   ar
    28    15    37    1
    29     5     4   ar
    30     5     6   ar
    31     4     3   ar
    32    12    11    2
    33    12     7    2
    34    11    10    2
    35     6     1   ar
    36     3     7    1
    37     3     2   ar
    38     7     8    1
    39    10     9    1
    40     1     2   ar
    41     9     8    2
