@<TRIPOS>MOLECULE
3k5v_STJ_A_1.pdb
 27 29 0 0 0
SMALL
GASTEIGER

@<TRIPOS>ATOM
      1  F1        16.7690   38.2120   48.9130 F       1  STJ1       -0.1328
      2  C2        17.3270   38.7500   50.0250 C.3     1  STJ1        0.5753
      3  F3        16.5120   38.6120   51.1080 F       1  STJ1       -0.1328
      4  F4        18.5320   38.1730   50.2750 F       1  STJ1       -0.1328
      5  O5        17.5150   40.1250   49.7490 O.3     1  STJ1       -0.4045
      6  C6        18.0890   40.9540   50.7170 C.ar    1  STJ1        0.1470
      7  C7        19.4740   41.2320   50.7140 C.ar    1  STJ1        0.0408
      8  C9        20.0180   42.0800   51.6830 C.ar    1  STJ1        0.0475
      9  C11       19.2070   42.6490   52.6690 C.ar    1  STJ1        0.1833
     10  C12       17.8240   42.3790   52.6550 C.ar    1  STJ1        0.0475
     11  C14       17.2730   41.5340   51.6840 C.ar    1  STJ1        0.0408
     12  N16       19.6440   43.4880   53.6350 N.pl3   1  STJ1       -0.0097
     13  C18       20.9160   43.8190   53.9800 C.2     1  STJ1        0.3450
     14  N19       22.0110   43.3680   53.3070 N.2     1  STJ1       -0.0366
     15  C20       23.2650   43.7190   53.6850 C.3     1  STJ1        0.3913
     16  N22       23.4470   44.5390   54.7480 N.2     1  STJ1       -0.2225
     17  C23       22.3930   45.0220   55.4550 C.2     1  STJ1        0.0705
     18  C24       21.0870   44.6670   55.0730 C.3     1  STJ1        0.1663
     19  C26       22.6470   45.9230   56.6020 C.ar    1  STJ1        0.0140
     20  C27       23.8620   46.6160   56.6180 C.ar    1  STJ1        0.0058
     21  C29       24.1870   47.4950   57.6510 C.ar    1  STJ1        0.0567
     22  C30       23.2770   47.6830   58.7090 C.ar    1  STJ1        0.0046
     23  C32       22.0520   46.9900   58.7050 C.ar    1  STJ1        0.0002
     24  C34       21.7330   46.1090   57.6520 C.ar    1  STJ1        0.0012
     25  C36       25.5380   48.1710   57.5250 C.2     1  STJ1        0.2842
     26  O37       25.6350   49.0640   56.6990 O.2     1  STJ1       -0.2667
     27  N38       26.6090   47.7820   58.2540 N.am    1  STJ1       -0.0837
@<TRIPOS>BOND
     1     1     2    1
     2     5     2    1
     3     5     6    1
     4     2     4    1
     5     2     3    1
     6     7     6   ar
     7     7     8   ar
     8     6    11   ar
     9     8     9   ar
    10    11    10   ar
    11    10     9   ar
    12     9    12    1
    13    14    15    1
    14    14    13    2
    15    12    13    1
    16    15    16    1
    17    13    18    1
    18    16    17    2
    19    18    17    1
    20    17    19    1
    21    19    20   ar
    22    19    24   ar
    23    20    21   ar
    24    26    25    2
    25    25    21    1
    26    25    27   am
    27    21    22   ar
    28    24    23   ar
    29    23    22   ar
