@<TRIPOS>MOLECULE
3k5x_P8D_A_1.pdb
 15 14 0 0 0
SMALL
GASTEIGER

@<TRIPOS>ATOM
      1  C1       -24.9770   32.0890  -15.4850 C.3   401  P8D401      0.0311
      2  N1       -23.7790   30.1720  -16.4460 N.3   401  P8D401     -0.1224
      3  C2       -24.4010   30.6870  -15.2160 C.3   401  P8D401      0.1712
      4  P3       -25.6610   29.4480  -14.7410 P.3   401  P8D401      0.2709
      5  C4       -26.2570   29.8510  -13.0780 C.3   401  P8D401      0.1026
      6  C5       -27.7880   30.0400  -12.8560 C.3   401  P8D401      0.1244
      7  C6       -28.6010   28.8240  -13.3640 C.2   401  P8D401      0.3654
      8  C7       -28.0390   30.4630  -11.3930 C.3   401  P8D401      0.1258
      9  C8       -27.6100   31.8570  -10.9160 C.2   401  P8D401      0.3654
     10  O31      -25.0960   28.0730  -14.7130 O.3   401  P8D401     -0.1664
     11  O32      -26.8740   29.5180  -15.7730 O.2   401  P8D401     -0.2855
     12  O61      -29.8290   28.9360  -13.4050 O.co2 401  P8D401     -0.2456
     13  O62      -27.9860   27.7990  -13.7320 O.co2 401  P8D401     -0.2456
     14  O81      -27.8840   32.8360  -11.6360 O.co2 401  P8D401     -0.2456
     15  O82      -27.0080   31.9010   -9.8270 O.co2 401  P8D401     -0.2456
@<TRIPOS>BOND
     1     2     3    1
     2    11     4    2
     3     1     3    1
     4     3     4    1
     5     4    10    1
     6     4     5    1
     7    13     7   ar
     8    12     7   ar
     9     7     6    1
    10     5     6    1
    11     6     8    1
    12    14     9   ar
    13     8     9    1
    14     9    15   ar
