@<TRIPOS>MOLECULE
3k60_ADP_A_1.pdb
 27 29 0 0 0
SMALL
GASTEIGER

@<TRIPOS>ATOM
      1  PB        67.6300  -19.3220   16.8890 P.3   400  ADP400      0.5373
      2  O1B       67.1750  -20.3970   15.9270 O.2   400  ADP400     -0.2221
      3  O2B       68.4170  -18.2020   16.2730 O.3   400  ADP400     -0.1143
      4  O3B       66.5500  -18.8710   17.8340 O.3   400  ADP400     -0.1143
      5  PA        69.5710  -21.3380   17.5420 P.3   400  ADP400      0.2231
      6  O1A       68.7710  -22.2620   16.6530 O.2   400  ADP400     -0.5169
      7  O2A       70.1620  -21.8760   18.8220 O.3   400  ADP400     -0.4370
      8  O3A       68.6810  -20.0360   17.8920 O.3   400  ADP400     -0.2261
      9  O5'       70.8000  -20.7720   16.6740 O.3   400  ADP400     -0.3111
     10  C5'       71.6810  -19.8020   17.2280 C.3   400  ADP400      0.1813
     11  C4'       72.2580  -18.9310   16.1200 C.3   400  ADP400      0.1821
     12  O4'       73.2230  -19.6400   15.3420 O.3   400  ADP400     -0.3135
     13  C3'       71.2170  -18.4870   15.1060 C.3   400  ADP400      0.2184
     14  O3'       70.5400  -17.3070   15.5240 O.3   400  ADP400     -0.2174
     15  C2'       72.0620  -18.1790   13.8990 C.3   400  ADP400      0.2570
     16  O2'       72.5450  -16.8440   14.0430 O.3   400  ADP400     -0.2130
     17  C1'       73.2290  -19.1370   14.0050 C.3   400  ADP400      0.3186
     18  N9        72.9360  -20.2390   13.0710 N.pl3 400  ADP400     -0.1439
     19  C8        72.3840  -21.4210   13.4040 C.3   400  ADP400      0.3377
     20  N7        72.2420  -22.2130   12.3130 N.2   400  ADP400     -0.2095
     21  C5        72.7050  -21.5250   11.2530 C.2   400  ADP400      0.2526
     22  C6        72.8450  -21.7720    9.7990 C.2   400  ADP400      0.4393
     23  N6        72.4430  -22.9430    9.2570 N.pl3 400  ADP400      0.2180
     24  N1        73.3810  -20.7920    9.0370 N.2   400  ADP400      0.0021
     25  C2        73.7790  -19.6230    9.5780 C.3   400  ADP400      0.5254
     26  N3        73.6850  -19.3250   10.8860 N.2   400  ADP400     -0.0055
     27  C4        73.1600  -20.2230   11.7580 C.2   400  ADP400      0.3518
@<TRIPOS>BOND
     1    24    25    1
     2    24    22    2
     3    23    22    1
     4    25    26    1
     5    22    21    1
     6    26    27    2
     7    21    27    1
     8    21    20    2
     9    27    18    1
    10    20    19    1
    11    18    19    1
    12    18    17    1
    13    15    17    1
    14    15    16    1
    15    15    13    1
    16    17    12    1
    17    13    14    1
    18    13    11    1
    19    12    11    1
    20     2     1    2
    21    11    10    1
    22     3     1    1
    23     6     5    2
    24     9    10    1
    25     9     5    1
    26     1     4    1
    27     1     8    1
    28     5     8    1
    29     5     7    1
