@<TRIPOS>MOLECULE
3k6b_NT2_A_1.pdb
 28 28 0 0 0
SMALL
GASTEIGER

@<TRIPOS>ATOM
      1  S81       56.9220   25.7110   28.4810 S.3   501  NT2501     -0.0001
      2  O82       56.4560   25.7260   27.0420 O.3   501  NT2501     -0.2384
      3  C83       55.4910   26.7400   26.7170 C.3   501  NT2501      0.2048
      4  C84       54.1630   26.1040   26.1200 C.3   501  NT2501      0.1818
      5  O85       53.2470   27.1040   25.6020 O.3   501  NT2501     -0.3237
      6  C86       53.4440   25.3400   27.2640 C.3   501  NT2501      0.2046
      7  O87       52.8680   26.1470   28.3540 O.3   501  NT2501     -0.2384
      8  C8C       56.1400   27.7990   25.7450 C.3   501  NT2501      0.2095
      9  O8D       57.1630   28.5740   26.4110 O.3   501  NT2501     -0.2382
     10  C8I       55.0630   28.7410   25.1620 C.3   501  NT2501      0.2338
     11  O8J       55.6700   29.5690   24.1830 O.3   501  NT2501     -0.2357
     12  C8O       53.8870   27.9070   24.5690 C.3   501  NT2501      0.3014
     13  O8P       54.3980   27.0500   23.6230 O.3   501  NT2501     -0.1870
     14  S88       51.9400   25.4630   29.3660 S.3   501  NT2501     -0.0001
     15  O8A       52.8610   24.8920   30.4140 O.3   501  NT2501     -0.2682
     16  O8B       50.9950   24.5360   28.6980 O.2   501  NT2501     -0.3452
     17  O89       51.0700   26.5090   29.9550 O.2   501  NT2501     -0.3452
     18  O8Q       57.7540   24.4590   28.5880 O.2   501  NT2501     -0.3452
     19  O8R       55.7820   25.6660   29.4880 O.3   501  NT2501     -0.2682
     20  O8S       57.7420   26.9540   28.7390 O.2   501  NT2501     -0.3452
     21  S8E       58.5520   28.3140   25.8290 S.3   501  NT2501     -0.0001
     22  O8F       58.6690   29.0900   24.5360 O.2   501  NT2501     -0.3452
     23  O8G       59.5690   28.8150   26.7970 O.3   501  NT2501     -0.2682
     24  O8H       58.8320   26.8370   25.6830 O.2   501  NT2501     -0.3452
     25  S8K       55.3570   31.0170   24.4230 S.3   501  NT2501      0.0000
     26  O8L       55.8780   31.7520   23.2470 O.2   501  NT2501     -0.3452
     27  O8M       56.0890   31.3540   25.7070 O.3   501  NT2501     -0.2682
     28  O8N       53.8860   31.2530   24.3230 O.2   501  NT2501     -0.3452
@<TRIPOS>BOND
     1    26    25    2
     2    13    12    1
     3    11    25    1
     4    11    10    1
     5    28    25    2
     6    25    27    1
     7    22    21    2
     8    12    10    1
     9    12     5    1
    10    10     8    1
    11     5     4    1
    12    24    21    2
    13     8     9    1
    14     8     3    1
    15    21     9    1
    16    21    23    1
    17     4     3    1
    18     4     6    1
    19     3     2    1
    20     2     1    1
    21     6     7    1
    22     7    14    1
    23     1    18    2
    24     1    20    2
    25     1    19    1
    26    16    14    2
    27    14    17    2
    28    14    15    1
