@<TRIPOS>MOLECULE
3k6h_FMN_A_1.pdb
 31 33 0 0 0
SMALL
GASTEIGER

@<TRIPOS>ATOM
      1  N1        56.8190   22.8650   56.3300 N.2   199  FMN199     -0.2887
      2  C2        57.2370   21.4530   56.7550 C.1   199  FMN199      0.3669
      3  O2        58.5800   21.2130   57.0630 O.2   199  FMN199     -0.1744
      4  N3        56.2000   20.3240   56.8250 N.2   199  FMN199     -0.2300
      5  C4        54.7980   20.5940   56.4790 C.1   199  FMN199      0.2513
      6  O4        53.8220   19.5980   56.4900 O.2   199  FMN199     -0.2057
      7  C4A       54.3900   21.9900   56.0620 C.2   199  FMN199      0.2703
      8  N5        52.8890   22.2700   55.6960 N.2   199  FMN199     -0.3882
      9  C5A       52.4770   23.6490   55.2770 C.2   199  FMN199      0.1277
     10  C6        50.9590   23.9480   54.8930 C.3   199  FMN199      0.0820
     11  C7        50.5360   25.4290   54.4460 C.2   199  FMN199     -0.0408
     12  C7M       49.0650   25.7050   54.0780 C.3   199  FMN199      0.0265
     13  C8        51.6230   26.5920   54.3910 C.2   199  FMN199     -0.0280
     14  C8M       51.2160   28.0260   53.9870 C.3   199  FMN199      0.0304
     15  C9        53.1440   26.3000   54.7690 C.2   199  FMN199      0.0123
     16  C9A       53.5440   24.8090   55.2100 C.2   199  FMN199      0.0796
     17  N10       54.9960   24.5180   55.5660 N.pl3 199  FMN199     -0.2497
     18  C10       55.4350   23.1180   55.9940 C.2   199  FMN199      0.2451
     19  C1'       55.9720   25.6110   55.5200 C.3   199  FMN199      0.1651
     20  C2'       56.1360   26.3510   56.8570 C.2   199  FMN199      0.2036
     21  O2'       55.2060   26.6140   57.5260 O.2   199  FMN199     -0.2915
     22  C3'       57.3740   27.2300   56.9950 C.3   199  FMN199      0.2430
     23  O3'       57.4850   27.5770   58.3470 O.3   199  FMN199     -0.2122
     24  C4'       57.1510   28.4730   56.1120 C.3   199  FMN199      0.2193
     25  O4'       57.5640   28.1500   54.8030 O.3   199  FMN199     -0.2172
     26  C5'       58.1000   29.5470   56.6980 C.3   199  FMN199      0.1896
     27  O5'       57.7070   30.8510   56.3150 O.3   199  FMN199     -0.2674
     28  P         58.2010   32.0930   57.2990 P.3   199  FMN199      0.5327
     29  O1P       57.9430   33.5510   56.5640 O.2   199  FMN199     -0.2224
     30  O2P       59.8130   31.9160   57.6150 O.3   199  FMN199     -0.1145
     31  O3P       57.4410   32.0090   58.5380 O.3   199  FMN199     -0.1145
@<TRIPOS>BOND
     1    14    13    1
     2    12    11    1
     3    13    11    2
     4    13    15    1
     5    11    10    1
     6    15    16    2
     7    25    24    1
     8    10     9    1
     9    16     9    1
    10    16    17    1
    11     9     8    2
    12    19    17    1
    13    19    20    1
    14    17    18    1
    15     8     7    2
    16    18     7    1
    17    18     1    2
    18     7     5    1
    19    24    26    1
    20    24    22    1
    21    27    26    1
    22    27    28    1
    23     1     2    2
    24     5     6    2
    25     5     4    2
    26    29    28    2
    27     2     4    2
    28     2     3    2
    29    20    22    1
    30    20    21    2
    31    22    23    1
    32    28    30    1
    33    28    31    1
