@<TRIPOS>MOLECULE
3k6l_2BB_A_1.pdb
 24 23 0 0 0
SMALL
GASTEIGER

@<TRIPOS>ATOM
      1  C1        -5.1250   13.5500  -20.1160 C.3   170  2BB170      0.0000
      2  N1        -1.2300   10.0880  -18.0950 N.am  170  2BB170     -0.2004
      3  O1        -1.1530    8.9520  -21.3930 O.3   170  2BB170     -0.2157
      4  C2        -4.8340   12.2350  -20.8140 C.3   170  2BB170      0.0006
      5  N2        -3.7430    9.8740  -23.2090 N.am  170  2BB170     -0.1978
      6  O2        -2.3100    8.3050  -18.8260 O.2   170  2BB170     -0.5374
      7  C3        -6.0610   11.3320  -20.7530 C.3   170  2BB170      0.0000
      8  N3        -5.7830   12.0670  -25.0340 N.am  170  2BB170     -0.2746
      9  O3        -1.4020    9.6330  -16.7900 O.3   170  2BB170     -0.4026
     10  C4        -3.5820   11.5900  -20.1970 C.3   170  2BB170      0.0121
     11  O4        -2.2650   11.5310  -22.8230 O.2   170  2BB170     -0.2732
     12  C5        -3.0740   10.3570  -20.9440 C.3   170  2BB170      0.1147
     13  O5        -6.4530   10.1750  -24.1100 O.2   170  2BB170     -0.2730
     14  C6        -1.6820    9.9260  -20.4720 C.3   170  2BB170      0.2050
     15  C7        -1.7580    9.3630  -19.0730 C.2   170  2BB170      0.1180
     16  C8        -3.0010   10.6420  -22.4140 C.2   170  2BB170      0.2442
     17  C9        -4.1210   10.3060  -24.5520 C.3   170  2BB170      0.1711
     18  C10       -5.5400   10.8420  -24.5640 C.2   170  2BB170      0.2456
     19  C11       -7.1260   12.6310  -25.0100 C.3   170  2BB170      0.1150
     20  C12       -4.7760   12.9580  -25.6010 C.3   170  2BB170      0.1150
     21  C13       -3.8210    9.2320  -25.6000 C.3   170  2BB170      0.0269
     22  C14       -2.3180    8.9540  -25.7140 C.3   170  2BB170      0.0022
     23  C15       -4.3090    9.6760  -26.9860 C.3   170  2BB170      0.0022
     24  C16       -4.4570    7.8890  -25.2200 C.3   170  2BB170      0.0022
@<TRIPOS>BOND
     1    23    21    1
     2    22    21    1
     3    20     8    1
     4    21    24    1
     5    21    17    1
     6     8    19    1
     7     8    18   am
     8    18    17    1
     9    18    13    2
    10    17     5    1
    11     5    16   am
    12    11    16    2
    13    16    12    1
    14     3    14    1
    15    12    14    1
    16    12    10    1
    17     4     7    1
    18     4    10    1
    19     4     1    1
    20    14    15    1
    21    15     6    2
    22    15     2   am
    23     2     9    1
