@<TRIPOS>MOLECULE
3k6p_5FB_A_1.pdb
 29 31 0 0 0
SMALL
GASTEIGER

@<TRIPOS>ATOM
      1  C15       36.0560   -2.3890   35.3520 C.ar    1  5FB1        0.0403
      2  C20       34.7780    1.1560   37.8020 C.ar    1  5FB1        0.0134
      3  C21       35.5420    2.3750   37.5420 C.ar    1  5FB1        0.0686
      4  C22       34.9030    3.7310   37.7300 C.1     1  5FB1        0.1004
      5  C24       36.9190    2.3240   37.1050 C.ar    1  5FB1        0.0172
      6  C26       38.9840    0.9110   36.3970 C.3     1  5FB1        0.4214
      7  C01       37.4810   -4.6950   39.5060 C.3     1  5FB1        0.2526
      8  O02       37.0440   -3.5210   38.8730 O.3     1  5FB1       -0.4684
      9  C03       36.4510   -3.5810   37.6150 C.ar    1  5FB1        0.1726
     10  C04       35.6290   -4.7100   37.1930 C.ar    1  5FB1        0.0359
     11  C05       35.0430   -4.6650   35.8610 C.ar    1  5FB1       -0.0169
     12  C06       34.2870   -5.8590   35.2680 C.3     1  5FB1        0.0563
     13  C07       35.0130   -6.9440   34.8920 C.3     1  5FB1        0.1865
     14  S08       36.2230   -7.6530   35.9810 S.3     1  5FB1        0.0093
     15  C09       35.9390   -9.3090   35.7030 C.1     1  5FB1        0.2450
     16  O10       36.3860  -10.2310   36.3360 O.2     1  5FB1       -0.2017
     17  N11       34.5970   -9.4650   34.9950 N.2     1  5FB1       -0.2557
     18  C12       34.2670   -8.1170   34.2210 C.1     1  5FB1        0.2022
     19  O13       33.1980   -7.9530   33.7300 O.2     1  5FB1       -0.2125
     20  C14       35.2480   -3.5060   34.9250 C.ar    1  5FB1       -0.0009
     21  C16       36.6420   -2.4190   36.6650 C.ar    1  5FB1        0.1789
     22  O17       37.4890   -1.3700   37.0480 O.3     1  5FB1       -0.4505
     23  C18       36.7750   -0.1660   37.1770 C.ar    1  5FB1        0.1493
     24  C19       35.3940   -0.1350   37.6130 C.ar    1  5FB1        0.0381
     25  N23       34.4680    4.7300   37.8870 N.1     1  5FB1       -0.1908
     26  C25       37.5360    1.0440   36.9260 C.ar    1  5FB1        0.1065
     27  F27       38.9520    0.2660   35.2050 F       1  5FB1       -0.1657
     28  F28       39.7560    0.1320   37.2030 F       1  5FB1       -0.1657
     29  F29       39.5080    2.1740   36.2690 F       1  5FB1       -0.1657
@<TRIPOS>BOND
     1    19    18    2
     2    18    13    1
     3    18    17    2
     4    13    12    1
     5    13    14    1
     6    20     1   ar
     7    20    11   ar
     8    17    15    2
     9    27     6    1
    10    12    11    1
    11     1    21   ar
    12    15    14    1
    13    15    16    2
    14    11    10   ar
    15    29     6    1
    16     6    26    1
    17     6    28    1
    18    21    22    1
    19    21     9   ar
    20    26     5   ar
    21    26    23   ar
    22    22    23    1
    23     5     3   ar
    24    23    24   ar
    25    10     9   ar
    26     3     4    1
    27     3     2   ar
    28    24     2   ar
    29     9     8    1
    30     4    25    3
    31     8     7    1
