@<TRIPOS>MOLECULE
3k6v_CIT_A_1.pdb
 13 12 0 0 0
SMALL
GASTEIGER

@<TRIPOS>ATOM
      1  C1        33.5850   49.1170   11.6970 C.2   501  CIT501      0.3680
      2  O1        33.2580   49.0140   10.4990 O.co2 501  CIT501     -0.2455
      3  O2        33.9150   50.2400   12.1280 O.co2 501  CIT501     -0.2455
      4  C2        33.5860   47.9080   12.6070 C.3   501  CIT501      0.1560
      5  C3        34.3890   46.7630   11.9910 C.3   501  CIT501      0.2402
      6  O7        35.6630   47.2530   11.4970 O.3   501  CIT501     -0.2129
      7  C4        34.5240   45.8100   13.2660 C.3   501  CIT501      0.1560
      8  C5        33.2280   45.5780   13.9840 C.2   501  CIT501      0.3680
      9  O3        33.3100   45.1330   15.2410 O.co2 501  CIT501     -0.2455
     10  O4        32.2140   45.9800   13.4460 O.co2 501  CIT501     -0.2455
     11  C6        33.6380   46.1210   10.8340 C.2   501  CIT501      0.3927
     12  O5        32.4050   45.9230   10.8810 O.co2 501  CIT501     -0.2429
     13  O6        34.2630   45.7860    9.8080 O.co2 501  CIT501     -0.2429
@<TRIPOS>BOND
     1    13    11   ar
     2     2     1   ar
     3    11    12   ar
     4    11     5    1
     5     6     5    1
     6     1     3   ar
     7     1     4    1
     8     5     4    1
     9     5     7    1
    10     7     8    1
    11    10     8   ar
    12     8     9   ar
