@<TRIPOS>MOLECULE
3k73_NAD_O_1.pdb
 44 48 0 0 0
SMALL
GASTEIGER

@<TRIPOS>ATOM
      1  PA        25.8740  -29.1330   30.1450 P.3     0  NAD0        0.2189
      2  O1A       24.9400  -30.1940   29.7390 O.3     0  NAD0       -0.4371
      3  O2A       25.9400  -27.8800   29.3920 O.2     0  NAD0       -0.5170
      4  O5B       27.2770  -29.8900   30.1310 O.3     0  NAD0       -0.3112
      5  C5B       27.3820  -31.2120   30.5840 C.3     0  NAD0        0.1813
      6  C4B       28.4030  -31.9000   29.7020 C.3     0  NAD0        0.1821
      7  O4B       28.9010  -33.0840   30.3060 O.3     0  NAD0       -0.3135
      8  C3B       27.7200  -32.3150   28.4210 C.3     0  NAD0        0.2184
      9  O3B       28.4530  -31.6490   27.4210 O.3     0  NAD0       -0.2174
     10  C2B       27.8200  -33.8470   28.3860 C.3     0  NAD0        0.2570
     11  O2B       28.0480  -34.1910   27.0400 O.3     0  NAD0       -0.2130
     12  C1B       29.0440  -34.0430   29.2940 C.3     0  NAD0        0.3186
     13  N9A       29.5260  -35.3530   29.7910 N.pl3   0  NAD0       -0.1439
     14  C8A       30.8480  -35.7820   29.6700 C.3     0  NAD0        0.3377
     15  N7A       31.0850  -37.0120   30.2010 N.2     0  NAD0       -0.2095
     16  C5A       29.8870  -37.3980   30.6530 C.2     0  NAD0        0.2526
     17  C6A       29.5620  -38.5730   31.2790 C.2     0  NAD0        0.4393
     18  N6A       30.5340  -39.2910   31.7970 N.pl3   0  NAD0        0.2180
     19  N1A       28.2530  -38.7510   31.6780 N.2     0  NAD0        0.0021
     20  C2A       27.3170  -37.7280   31.4290 C.3     0  NAD0        0.5254
     21  N3A       27.6520  -36.5250   30.8010 N.2     0  NAD0       -0.0055
     22  C4A       28.9120  -36.3820   30.4180 C.2     0  NAD0        0.3518
     23  O3        25.5950  -28.7400   31.6780 O.3     0  NAD0       -0.2703
     24  PN        26.1570  -27.4440   32.3700 P.3     0  NAD0        0.2189
     25  O1N       25.2250  -26.3010   32.2700 O.3     0  NAD0       -0.4371
     26  O2N       27.5550  -27.2400   31.8850 O.2     0  NAD0       -0.5170
     27  O5D       26.2280  -27.9190   33.8990 O.3     0  NAD0       -0.3112
     28  C5D       27.2480  -28.7470   34.4340 C.3     0  NAD0        0.1813
     29  C4D       27.1210  -28.8730   35.9570 C.3     0  NAD0        0.1799
     30  O4D       27.3680  -27.6040   36.5620 O.3     0  NAD0       -0.3327
     31  C3D       25.7490  -29.3340   36.4690 C.3     0  NAD0        0.2158
     32  O3D       25.9110  -29.8520   37.8030 O.3     0  NAD0       -0.2175
     33  C2D       25.0670  -27.9830   36.5340 C.3     0  NAD0        0.2309
     34  O2D       24.0310  -28.0320   37.4400 O.3     0  NAD0       -0.2158
     35  C1D       26.1770  -27.1290   37.1440 C.3     0  NAD0        0.2263
     36  N1N       26.0190  -25.6720   36.9470 N.pl3   0  NAD0       -0.2787
     37  C2N       25.4420  -25.1110   35.8240 C.3     0  NAD0        0.1244
     38  C3N       25.3660  -23.7110   35.7560 C.2     0  NAD0        0.0544
     39  C7N       24.7790  -23.0320   34.5920 C.2     0  NAD0        0.2818
     40  O7N       24.6090  -23.7400   33.3620 O.2     0  NAD0       -0.2670
     41  N7N       24.4120  -21.7700   34.8470 N.am    0  NAD0       -0.0839
     42  C4N       25.7760  -22.8780   36.7960 C.2     0  NAD0        0.0033
     43  C5N       26.3330  -23.4750   37.9210 C.2     0  NAD0        0.0157
     44  C6N       26.4510  -24.8600   37.9730 C.2     0  NAD0        0.0633
@<TRIPOS>BOND
     1    11    10    1
     2     9     8    1
     3    10     8    1
     4    10    12    1
     5     8     6    1
     6    12    13    1
     7    12     7    1
     8     3     1    2
     9    14    13    1
    10    14    15    1
    11     6     7    1
    12     6     5    1
    13     2     1    1
    14    13    22    1
    15     4     1    1
    16     4     5    1
    17     1    23    1
    18    15    16    2
    19    22    16    1
    20    22    21    2
    21    16    17    1
    22    21    20    1
    23    17    19    2
    24    17    18    1
    25    20    19    1
    26    23    24    1
    27    26    24    2
    28    25    24    1
    29    24    27    1
    30    40    39    2
    31    27    28    1
    32    28    29    1
    33    39    41   am
    34    39    38    1
    35    38    37    1
    36    38    42    2
    37    37    36    1
    38    29    31    1
    39    29    30    1
    40    31    33    1
    41    31    32    1
    42    33    35    1
    43    33    34    1
    44    30    35    1
    45    42    43    1
    46    36    35    1
    47    36    44    1
    48    43    44    2
