@<TRIPOS>MOLECULE
3k7f_F2C_A_1.pdb
 28 30 0 0 0
SMALL
GASTEIGER

@<TRIPOS>ATOM
      1  C1       -44.9300   46.9130    7.4350 C.ar    1  F2C1       -0.0003
      2  C2       -44.4330   45.6170    7.3080 C.ar    1  F2C1       -0.0043
      3  C3       -44.4250   44.7690    8.4130 C.ar    1  F2C1       -0.0222
      4  C4       -44.9310   45.2130    9.6360 C.ar    1  F2C1       -0.0043
      5  C5       -45.4330   46.5060    9.7600 C.ar    1  F2C1       -0.0003
      6  C6       -45.4300   47.3620    8.6550 C.ar    1  F2C1       -0.0000
      7  C7       -43.8960   43.3490    8.3220 C.3     1  F2C1        0.0264
      8  C8       -43.3560   42.9290    6.9580 C.3     1  F2C1        0.0047
      9  C9       -42.6810   41.5610    7.1250 C.3     1  F2C1        0.0003
     10  C10      -42.3650   40.8890    5.7890 C.3     1  F2C1        0.0001
     11  C11      -41.4530   39.6730    6.0040 C.3     1  F2C1        0.0031
     12  C12      -40.0130   40.0820    6.3410 C.3     1  F2C1        0.0426
     13  C13      -39.1440   38.8480    6.5800 C.3     1  F2C1        0.2274
     14  O14      -39.6200   38.1450    7.7340 O.3     1  F2C1       -0.2131
     15  C15      -37.6950   39.2320    6.8400 C.ar    1  F2C1        0.2363
     16  N16      -36.5260   38.6410    6.6510 N.ar    1  F2C1       -0.2082
     17  C17      -35.6030   39.4840    7.1030 C.ar    1  F2C1        0.1415
     18  C18      -36.2120   40.5700    7.5710 C.ar    1  F2C1        0.1915
     19  O19      -37.5430   40.4250    7.4150 O.2     1  F2C1       -0.4335
     20  C20      -35.5750   41.7690    8.1620 C.2     1  F2C1        0.1495
     21  N21      -34.2700   41.7360    8.4620 N.2     1  F2C1       -0.3960
     22  C22      -33.6660   42.8180    8.9890 C.2     1  F2C1        0.2101
     23  C23      -34.3770   43.9810    9.2520 C.2     1  F2C1        0.0347
     24  C24      -35.7300   44.0340    8.9460 C.2     1  F2C1       -0.0157
     25  C25      -36.3350   42.9130    8.3910 C.3     1  F2C1        0.0883
     26  C26      -32.2080   42.7220    9.3060 C.2     1  F2C1        0.4168
     27  O27      -31.6220   41.6470    9.0450 O.co2   1  F2C1       -0.2377
     28  O28      -31.6300   43.7020    9.8210 O.co2   1  F2C1       -0.2377
@<TRIPOS>BOND
     1    10    11    1
     2    10     9    1
     3    11    12    1
     4    12    13    1
     5    13    15    1
     6    13    14    1
     7    16    15   ar
     8    16    17   ar
     9    15    19   ar
    10     8     9    1
    11     8     7    1
    12    17    18   ar
    13     2     1   ar
    14     2     3   ar
    15    19    18   ar
    16     1     6   ar
    17    18    20    1
    18    20    25    1
    19    20    21    2
    20     7     3    1
    21    25    24    1
    22     3     4   ar
    23    21    22    2
    24     6     5   ar
    25    24    23    2
    26    22    23    1
    27    22    26    1
    28    27    26   ar
    29    26    28   ar
    30     4     5   ar
