@<TRIPOS>MOLECULE
3k7m_GP7_X_1.pdb
 43 42 0 0 0
SMALL
GASTEIGER

@<TRIPOS>ATOM
      1  P        -53.4000    6.3430   83.0430 P.3   435  GP7435      0.5327
      2  C1       -52.2200    4.1920   82.1120 C.3   435  GP7435      0.2010
      3  C2       -51.0000    5.0250   81.7760 C.3   435  GP7435      0.2422
      4  O2       -51.3420    5.9420   80.7410 O.3   435  GP7435     -0.4457
      5  C3       -49.9000    4.0830   81.3150 C.3   435  GP7435      0.2543
      6  O3       -48.7500    4.2420   82.1350 O.3   435  GP7435     -0.4444
      7  C11      -48.4230    3.1680   83.0350 C.2   435  GP7435      0.3171
      8  O11      -49.3230    2.4210   83.3400 O.2   435  GP7435     -0.2501
      9  C12      -47.0260    2.9830   83.5640 C.3   435  GP7435      0.1096
     10  C13      -46.1550    2.3840   82.4770 C.3   435  GP7435      0.0116
     11  C14      -44.7180    2.2660   82.9360 C.3   435  GP7435      0.0006
     12  C15      -43.8120    2.1880   81.7290 C.3   435  GP7435      0.0000
     13  C16      -42.3780    2.3900   82.1500 C.3   435  GP7435      0.0000
     14  C17      -41.4470    1.7670   81.1370 C.3   435  GP7435      0.0000
     15  C18      -41.1710    2.7240   80.0040 C.3   435  GP7435      0.0000
     16  C19      -41.7380    2.1700   78.7220 C.3   435  GP7435      0.0000
     17  O1P      -52.3700    7.2290   82.3850 O.2   435  GP7435     -0.2224
     18  C20      -40.8830    2.6090   77.5590 C.3   435  GP7435      0.0000
     19  C21      -41.7270    2.6700   76.3070 C.3   435  GP7435      0.0000
     20  C22      -41.0510    1.8940   75.2050 C.3   435  GP7435      0.0000
     21  C23      -42.0550    1.4590   74.1630 C.3   435  GP7435      0.0000
     22  C24      -41.4090    0.4100   73.2890 C.3   435  GP7435      0.0000
     23  C25      -40.0930   -0.0310   73.8740 C.3   435  GP7435      0.0000
     24  O2P      -54.8230    6.8360   82.9100 O.3   435  GP7435     -0.1145
     25  C31      -50.3070    6.9380   80.5390 C.2   435  GP7435      0.3171
     26  O31      -50.5770    8.1140   80.6900 O.2   435  GP7435     -0.2501
     27  C32      -48.9210    6.5010   80.1560 C.3   435  GP7435      0.1096
     28  C33      -48.1500    7.6610   79.5570 C.3   435  GP7435      0.0116
     29  C34      -48.2990    7.6820   78.0500 C.3   435  GP7435      0.0006
     30  C35      -46.9570    7.4680   77.3860 C.3   435  GP7435      0.0000
     31  C36      -47.0970    7.5120   75.8820 C.3   435  GP7435      0.0000
     32  C37      -45.7620    7.7560   75.2110 C.3   435  GP7435      0.0000
     33  C38      -44.9360    6.4970   75.0910 C.3   435  GP7435      0.0000
     34  C39      -43.7140    6.7930   74.2490 C.3   435  GP7435      0.0000
     35  O3P      -53.3650    5.0340   82.1140 O.3   435  GP7435     -0.2662
     36  C40      -42.9470    5.5350   73.9280 C.3   435  GP7435      0.0000
     37  C41      -42.4750    5.5750   72.4930 C.3   435  GP7435      0.0000
     38  C42      -41.6910    6.8400   72.2380 C.3   435  GP7435      0.0000
     39  C43      -40.7510    6.6330   71.0800 C.3   435  GP7435      0.0000
     40  C44      -39.7570    7.7700   71.0150 C.3   435  GP7435      0.0000
     41  C45      -38.9610    7.7160   69.7310 C.3   435  GP7435      0.0000
     42  C46      -38.0890    8.9330   69.6100 C.3   435  GP7435      0.0000
     43  O4P      -53.0300    5.8390   84.4210 O.3   435  GP7435     -0.1145
@<TRIPOS>BOND
     1    42    41    1
     2    41    40    1
     3    40    39    1
     4    39    38    1
     5    38    37    1
     6    37    36    1
     7    22    23    1
     8    22    21    1
     9    36    34    1
    10    21    20    1
    11    34    33    1
    12    33    32    1
    13    20    19    1
    14    32    31    1
    15    31    30    1
    16    19    18    1
    17    30    29    1
    18    18    16    1
    19    29    28    1
    20    16    15    1
    21    28    27    1
    22    15    14    1
    23    27    25    1
    24    25    26    2
    25    25     4    1
    26     4     3    1
    27    14    13    1
    28     5     3    1
    29     5     6    1
    30    12    13    1
    31    12    11    1
    32     3     2    1
    33     2    35    1
    34    35     1    1
    35     6     7    1
    36    17     1    2
    37    10    11    1
    38    10     9    1
    39    24     1    1
    40     7     8    2
    41     7     9    1
    42     1    43    1
