@<TRIPOS>MOLECULE
3k7q_GP7_X_1.pdb
 43 42 0 0 0
SMALL
GASTEIGER

@<TRIPOS>ATOM
      1  P        -53.0910    6.8220   84.0570 P.3   435  GP7435      0.5327
      2  C1       -52.6650    4.8170   82.3610 C.3   435  GP7435      0.2010
      3  C2       -51.2850    5.0110   81.7330 C.3   435  GP7435      0.2422
      4  O2       -51.4450    5.7040   80.4900 O.3   435  GP7435     -0.4457
      5  C3       -50.6510    3.6390   81.4940 C.3   435  GP7435      0.2543
      6  O3       -49.6460    3.3520   82.4770 O.3   435  GP7435     -0.4444
      7  C11      -48.2230    3.5340   82.1970 C.2   435  GP7435      0.3171
      8  O11      -47.8860    4.3560   81.3650 O.2   435  GP7435     -0.2501
      9  C12      -47.1650    2.7330   82.9290 C.3   435  GP7435      0.1096
     10  C13      -46.0490    2.3210   81.9670 C.3   435  GP7435      0.0116
     11  C14      -44.6480    2.6140   82.5080 C.3   435  GP7435      0.0006
     12  C15      -43.6030    1.9050   81.6380 C.3   435  GP7435      0.0000
     13  C16      -42.2080    2.5350   81.7660 C.3   435  GP7435      0.0000
     14  C17      -41.2340    2.0040   80.7100 C.3   435  GP7435      0.0000
     15  C18      -41.7810    2.1580   79.2930 C.3   435  GP7435      0.0000
     16  C19      -40.6840    2.3980   78.2640 C.3   435  GP7435      0.0000
     17  O1P      -52.2260    5.8610   84.8300 O.3   435  GP7435     -0.1145
     18  C20      -41.2900    2.8230   76.9320 C.3   435  GP7435      0.0000
     19  C21      -40.8270    1.9330   75.7870 C.3   435  GP7435      0.0000
     20  C22      -41.6140    2.2300   74.5130 C.3   435  GP7435      0.0000
     21  C23      -42.0130    0.9490   73.7860 C.3   435  GP7435      0.0000
     22  C24      -41.0320    0.6090   72.6670 C.3   435  GP7435      0.0000
     23  C25      -40.0100   -0.4240   73.1030 C.3   435  GP7435      0.0000
     24  O2P      -52.4280    8.1320   83.6880 O.2   435  GP7435     -0.2224
     25  C31      -50.3770    6.6500   80.1760 C.2   435  GP7435      0.3171
     26  O31      -50.5440    7.8360   80.4370 O.2   435  GP7435     -0.2501
     27  C32      -49.1060    6.1430   79.5210 C.3   435  GP7435      0.1096
     28  C33      -48.0490    7.2210   79.3230 C.3   435  GP7435      0.0116
     29  C34      -48.0530    7.6630   77.8650 C.3   435  GP7435      0.0006
     30  C35      -46.7260    7.3400   77.1910 C.3   435  GP7435      0.0000
     31  C36      -46.9100    7.2030   75.6840 C.3   435  GP7435      0.0000
     32  C37      -45.6530    7.6030   74.9220 C.3   435  GP7435      0.0000
     33  C38      -44.6890    6.4370   74.7540 C.3   435  GP7435      0.0000
     34  C39      -43.6290    6.7750   73.7190 C.3   435  GP7435      0.0000
     35  O3P      -53.2840    6.0790   82.6370 O.3   435  GP7435     -0.2662
     36  C40      -42.6690    5.6140   73.4910 C.3   435  GP7435      0.0000
     37  C41      -42.0770    5.6390   72.0840 C.3   435  GP7435      0.0000
     38  C42      -41.3230    6.9390   71.8280 C.3   435  GP7435      0.0000
     39  C43      -40.2000    6.7370   70.8280 C.3   435  GP7435      0.0000
     40  C44      -39.7290    8.0780   70.2820 C.3   435  GP7435      0.0000
     41  C45      -38.4730    7.9010   69.4390 C.3   435  GP7435      0.0000
     42  C46      -37.6160    9.1500   69.4710 C.3   435  GP7435      0.0000
     43  O4P      -54.4860    6.9670   84.6300 O.3   435  GP7435     -0.1145
@<TRIPOS>BOND
     1    41    42    1
     2    41    40    1
     3    40    39    1
     4    39    38    1
     5    38    37    1
     6    37    36    1
     7    22    23    1
     8    22    21    1
     9    36    34    1
    10    34    33    1
    11    21    20    1
    12    20    19    1
    13    33    32    1
    14    32    31    1
    15    31    30    1
    16    19    18    1
    17    18    16    1
    18    30    29    1
    19    29    28    1
    20    16    15    1
    21    15    14    1
    22    28    27    1
    23    27    25    1
    24    25    26    2
    25    25     4    1
    26     4     3    1
    27    14    13    1
    28     8     7    2
    29     5     3    1
    30     5     6    1
    31    12    13    1
    32    12    11    1
    33     3     2    1
    34    10    11    1
    35    10     9    1
    36     7     6    1
    37     7     9    1
    38     2    35    1
    39    35     1    1
    40    24     1    2
    41     1    43    1
    42     1    17    1
