@<TRIPOS>MOLECULE
3k7q_HNL_X_1.pdb
 13 14 0 0 0
SMALL
GASTEIGER

@<TRIPOS>ATOM
      1  N1       -44.1650   15.0970   66.6730 N.2   433  HNL433     -0.1750
      2  C2       -44.4200   17.6790   67.5490 C.2   433  HNL433      0.0110
      3  C3       -43.2080   17.2640   66.9910 C.2   433  HNL433      0.0129
      4  C4       -43.0700   15.9500   66.5520 C.2   433  HNL433      0.1081
      5  C5       -45.4620   16.8310   67.6660 C.2   433  HNL433      0.0938
      6  C6       -45.3530   15.5440   67.2380 C.1   433  HNL433      0.1551
      7  O6       -46.3280   14.7620   67.3370 O.2   433  HNL433     -0.2219
      8  C7       -42.0870   18.2360   66.9130 C.3   433  HNL433      0.0817
      9  C8       -41.3300   18.2450   65.5900 C.3   433  HNL433      0.0220
     10  C9       -39.9320   18.7220   65.9750 C.3   433  HNL433      0.0191
     11  C10      -39.8540   18.6550   67.4990 C.3   433  HNL433      0.0724
     12  N11      -41.0600   17.9190   67.9150 N.3   433  HNL433     -0.2691
     13  C12      -41.4920   18.3080   69.2650 C.3   433  HNL433      0.0899
@<TRIPOS>BOND
     1     9    10    1
     2     9     8    1
     3    10    11    1
     4     4     1    1
     5     4     3    2
     6     1     6    2
     7     8     3    1
     8     8    12    1
     9     3     2    1
    10     6     7    2
    11     6     5    1
    12    11    12    1
    13     2     5    2
    14    12    13    1
