@<TRIPOS>MOLECULE
3k7s_R52_A_1.pdb
 14 13 0 0 0
SMALL
GASTEIGER

@<TRIPOS>ATOM
      1  O2        17.8770   34.8830   37.5790 O.2   160  R52160     -0.2854
      2  C1        17.1730   35.8790   37.6870 C.2   160  R52160      0.2427
      3  O3        17.0490   36.2180   35.2880 O.3   160  R52160     -0.2118
      4  C3        15.7020   37.7080   36.7060 C.3   160  R52160      0.2224
      5  O4        14.4920   37.7290   35.9340 O.3   160  R52160     -0.2171
      6  C2        16.5860   38.8850   36.2730 C.3   160  R52160      0.2151
      7  O5        17.7200   39.0160   37.1390 O.3   160  R52160     -0.2176
      8  C5        15.8120   40.2030   36.3060 C.3   160  R52160      0.1892
      9  C4        16.3190   36.3170   36.5160 C.3   160  R52160      0.2486
     10  O6        16.6670   41.2810   35.9100 O.3   160  R52160     -0.2674
     11  P1        16.1140   42.7940   35.8700 P.3   160  R52160      0.5327
     12  O9        14.8360   42.7300   35.0600 O.2   160  R52160     -0.2224
     13  O7        17.2390   43.5630   35.2150 O.3   160  R52160     -0.1145
     14  O8        15.8830   43.1330   37.3270 O.3   160  R52160     -0.1145
@<TRIPOS>BOND
     1    12    11    2
     2    13    11    1
     3     3     9    1
     4    11    10    1
     5    11    14    1
     6    10     8    1
     7     5     4    1
     8     6     8    1
     9     6     4    1
    10     6     7    1
    11     9     4    1
    12     9     2    1
    13     1     2    2
