@<TRIPOS>MOLECULE
3k7t_GP7_A_1.pdb
 43 42 0 0 0
SMALL
GASTEIGER

@<TRIPOS>ATOM
      1  P         13.7430   88.9520   20.4820 P.3   435  GP7435      0.5327
      2  C1        14.9900   91.2350   21.2090 C.3   435  GP7435      0.2010
      3  C2        14.5080   91.9770   19.9610 C.3   435  GP7435      0.2422
      4  O2        15.6300   92.2460   19.1240 O.3   435  GP7435     -0.4457
      5  C3        13.7500   93.2660   20.2820 C.3   435  GP7435      0.2543
      6  O3        13.1820   93.7710   19.0650 O.3   435  GP7435     -0.4444
      7  C11       11.7690   93.6270   18.7180 C.2   435  GP7435      0.3171
      8  O11       11.0090   93.1220   19.5230 O.2   435  GP7435     -0.2501
      9  C12       11.2370   94.1040   17.3770 C.3   435  GP7435      0.1096
     10  C13       10.5770   95.4860   17.5220 C.3   435  GP7435      0.0116
     11  C14        9.7460   95.8930   16.2930 C.3   435  GP7435      0.0006
     12  C15       10.1940   97.2240   15.6790 C.3   435  GP7435      0.0000
     13  C16        9.6620   97.3020   14.2460 C.3   435  GP7435      0.0000
     14  C17        9.7250   98.7310   13.7040 C.3   435  GP7435      0.0000
     15  C18       11.0030   99.0010   12.9190 C.3   435  GP7435      0.0000
     16  C19       11.9680   99.8600   13.7060 C.3   435  GP7435      0.0000
     17  O1P       15.0120   88.6940   19.6970 O.3   435  GP7435     -0.1145
     18  C20       12.7450  100.6720   12.6900 C.3   435  GP7435      0.0000
     19  C21       14.1440  100.8840   13.2440 C.3   435  GP7435      0.0000
     20  C22       14.5000  102.3460   13.0670 C.3   435  GP7435      0.0000
     21  C23       15.9580  102.5770   13.4130 C.3   435  GP7435      0.0000
     22  C24       16.1410  103.9460   14.0850 C.3   435  GP7435      0.0000
     23  C25       15.7270  105.1560   13.2390 C.3   435  GP7435      0.0000
     24  O2P       13.3060   87.8030   21.3630 O.3   435  GP7435     -0.1145
     25  C31       15.4140   91.7630   17.7540 C.2   435  GP7435      0.3171
     26  O31       15.9810   90.7350   17.3930 O.2   435  GP7435     -0.2501
     27  C32       14.5050   92.5100   16.7850 C.3   435  GP7435      0.1096
     28  C33       15.2650   93.0110   15.5620 C.3   435  GP7435      0.0116
     29  C34       16.2200   94.1680   15.8970 C.3   435  GP7435      0.0006
     30  C35       17.3370   94.2940   14.8470 C.3   435  GP7435      0.0000
     31  C36       18.5190   95.1200   15.3520 C.3   435  GP7435      0.0000
     32  C37       19.2930   95.7690   14.2010 C.3   435  GP7435      0.0000
     33  C38       18.5910   97.0090   13.6380 C.3   435  GP7435      0.0000
     34  C39       19.5380   97.9350   12.8510 C.3   435  GP7435      0.0000
     35  O3P       14.1410   90.1210   21.5290 O.3   435  GP7435     -0.2662
     36  C40       18.7810   99.0600   12.1200 C.3   435  GP7435      0.0000
     37  C41       19.6340  100.2460   11.6860 C.3   435  GP7435      0.0000
     38  C42       19.4600  100.4770   10.1970 C.3   435  GP7435      0.0000
     39  C43       20.5700  101.3850    9.7050 C.3   435  GP7435      0.0000
     40  C44       20.5620  101.6240    8.1980 C.3   435  GP7435      0.0000
     41  C45       21.6850  102.6220    7.8940 C.3   435  GP7435      0.0000
     42  C46       21.8360  102.8540    6.4020 C.3   435  GP7435      0.0000
     43  O4P       12.6050   89.5370   19.6770 O.2   435  GP7435     -0.2224
@<TRIPOS>BOND
     1    42    41    1
     2    41    40    1
     3    40    39    1
     4    39    38    1
     5    38    37    1
     6    37    36    1
     7    36    34    1
     8    18    19    1
     9    18    16    1
    10    34    33    1
    11    15    14    1
    12    15    16    1
    13    20    19    1
    14    20    21    1
    15    23    22    1
    16    21    22    1
    17    33    32    1
    18    14    13    1
    19    32    31    1
    20    13    12    1
    21    30    31    1
    22    30    29    1
    23    28    29    1
    24    28    27    1
    25    12    11    1
    26    11    10    1
    27    27    25    1
    28     9    10    1
    29     9     7    1
    30    26    25    2
    31    25     4    1
    32     7     6    1
    33     7     8    2
    34     6     5    1
    35     4     3    1
    36    43     1    2
    37    17     1    1
    38     3     5    1
    39     3     2    1
    40     1    24    1
    41     1    35    1
    42     2    35    1
