@<TRIPOS>MOLECULE
3k7y_PLP_A_1.pdb
 16 16 0 0 0
SMALL
GASTEIGER

@<TRIPOS>ATOM
      1  N1        21.3760   27.9200   24.5210 N.ar  406  PLP406     -0.2452
      2  C2        22.0610   28.7760   23.6970 C.ar  406  PLP406      0.0982
      3  C2A       22.4020   28.3130   22.3320 C.3   406  PLP406      0.0555
      4  C3        22.4060   30.0420   24.1450 C.ar  406  PLP406      0.2120
      5  O3        23.0750   30.9060   23.3150 O.3   406  PLP406     -0.2852
      6  C4        22.0660   30.4360   25.4400 C.ar  406  PLP406      0.0822
      7  C4A       22.3330   31.8600   25.8230 C.2   406  PLP406      0.2372
      8  O4A       21.4370   32.7020   25.6750 O.2   406  PLP406     -0.2830
      9  C5        21.3560   29.5680   26.2920 C.ar  406  PLP406      0.0333
     10  C6        21.0260   28.2990   25.8110 C.ar  406  PLP406      0.0969
     11  C5A       20.9500   29.8950   27.7320 C.3   406  PLP406      0.1819
     12  O4P       20.2770   31.1240   27.9430 O.3   406  PLP406     -0.2653
     13  P         19.9590   31.6430   29.4450 P.3   406  PLP406      0.5329
     14  O1P       18.7370   32.5160   29.4710 O.2   406  PLP406     -0.2224
     15  O2P       21.0870   32.5240   29.9110 O.3   406  PLP406     -0.1145
     16  O3P       19.7460   30.4270   30.3180 O.3   406  PLP406     -0.1145
@<TRIPOS>BOND
     1     3     2    1
     2     5     4    1
     3     2     4   ar
     4     2     1   ar
     5     4     6   ar
     6     1    10   ar
     7     6     7    1
     8     6     9   ar
     9     8     7    2
    10    10     9   ar
    11     9    11    1
    12    11    12    1
    13    12    13    1
    14    13    14    2
    15    13    15    1
    16    13    16    1
