@<TRIPOS>MOLECULE
3k83_1DO_B_1.pdb
 13 12 0 0 0
SMALL
GASTEIGER

@<TRIPOS>ATOM
      1  O2S       57.8330  -18.0290  -39.3710 O.3   580  1DO580     -0.2204
      2  C1        57.6330  -17.6010  -40.6990 C.3   580  1DO580      0.1821
      3  C2        57.3320  -18.8010  -41.5810 C.3   580  1DO580      0.0355
      4  C3        57.7660  -18.5940  -43.0200 C.3   580  1DO580      0.0027
      5  C4        59.2590  -18.7250  -43.1700 C.3   580  1DO580      0.0001
      6  C5        59.7010  -19.9990  -43.8650 C.3   580  1DO580      0.0000
      7  C6        61.1180  -20.3880  -43.4260 C.3   580  1DO580      0.0000
      8  C7        61.6140  -21.6970  -43.9990 C.3   580  1DO580      0.0000
      9  C8        61.4470  -22.8460  -43.0200 C.3   580  1DO580      0.0000
     10  C9        61.7840  -22.4010  -41.6330 C.3   580  1DO580      0.0000
     11  C10       60.7850  -22.9230  -40.6470 C.3   580  1DO580      0.0000
     12  C11       61.4370  -23.7320  -39.5570 C.3   580  1DO580      0.0000
     13  C12       62.0700  -22.8990  -38.4690 C.3   580  1DO580      0.0000
@<TRIPOS>BOND
     1     8     7    1
     2     8     9    1
     3     6     7    1
     4     6     5    1
     5     5     4    1
     6     4     3    1
     7     9    10    1
     8    10    11    1
     9     3     2    1
    10     2     1    1
    11    11    12    1
    12    12    13    1
