@<TRIPOS>MOLECULE
3k83_F27_A_1.pdb
 30 33 0 0 0
SMALL
GASTEIGER

@<TRIPOS>ATOM
      1  C12       54.5160  -14.5640   -6.3070 C.3     1  F271        0.0472
      2  C13       53.0230  -14.4190   -6.5880 C.3     1  F271        0.2277
      3  O14       52.6230  -15.1920   -7.7380 O.3     1  F271       -0.2131
      4  C15       52.6600  -12.9470   -6.8550 C.ar    1  F271        0.2364
      5  N16       51.5870  -12.2090   -6.6290 N.ar    1  F271       -0.2082
      6  C17       51.8460  -10.9880   -7.0830 C.ar    1  F271        0.1415
      7  C18       53.0740  -10.9730   -7.5920 C.ar    1  F271        0.1915
      8  O19       53.6130  -12.2080   -7.4570 O.2     1  F271       -0.4335
      9  C20       53.7450   -9.7970   -8.1980 C.2     1  F271        0.1495
     10  N21       53.0190   -8.7040   -8.4890 N.2     1  F271       -0.3960
     11  C22       53.6020   -7.6190   -9.0350 C.2     1  F271        0.2101
     12  C23       54.9640   -7.6110   -9.3110 C.2     1  F271        0.0347
     13  C24       55.7270   -8.7290   -9.0170 C.2     1  F271       -0.0157
     14  C25       55.1100   -9.8330   -8.4520 C.3     1  F271        0.0883
     15  C26       52.7690   -6.4110   -9.3500 C.2     1  F271        0.4168
     16  O27       51.5350   -6.4740   -9.1840 O.co2   1  F271       -0.2377
     17  O28       53.3340   -5.3730   -9.7660 O.co2   1  F271       -0.2377
     18  C29       55.0190  -16.0130   -6.1950 C.3     1  F271        0.0295
     19  C30       56.5060  -15.9740   -6.4990 C.ar    1  F271       -0.0221
     20  C31       57.5060  -16.1960   -5.5420 C.ar    1  F271       -0.0043
     21  C32       58.8570  -16.1240   -5.9400 C.ar    1  F271       -0.0003
     22  C33       59.2120  -15.8310   -7.2640 C.ar    1  F271       -0.0000
     23  C34       58.2020  -15.6130   -8.1950 C.ar    1  F271       -0.0003
     24  C35       56.8660  -15.6810   -7.8120 C.ar    1  F271       -0.0043
     25  C36       60.6500  -15.7570   -7.6890 C.ar    1  F271       -0.0000
     26  C37       61.0400  -16.2140   -8.9460 C.ar    1  F271       -0.0000
     27  C38       62.3790  -16.1470   -9.3480 C.ar    1  F271        0.0000
     28  C39       63.3470  -15.6150   -8.4910 C.ar    1  F271        0.0000
     29  C40       62.9660  -15.1550   -7.2360 C.ar    1  F271        0.0000
     30  C41       61.6220  -15.2250   -6.8360 C.ar    1  F271       -0.0000
@<TRIPOS>BOND
     1    17    15   ar
     2    15    16   ar
     3    15    11    1
     4    27    26   ar
     5    27    28   ar
     6    12    11    1
     7    12    13    2
     8    11    10    2
     9    13    14    1
    10    26    25   ar
    11    28    29   ar
    12    10     9    2
    13    14     9    1
    14     9     7    1
    15    23    24   ar
    16    23    22   ar
    17    24    19   ar
    18     3     2    1
    19    25    22    1
    20    25    30   ar
    21     7     8   ar
    22     7     6   ar
    23     8     4   ar
    24    22    21   ar
    25    29    30   ar
    26     6     5   ar
    27     4     5   ar
    28     4     2    1
    29     2     1    1
    30    19    18    1
    31    19    20   ar
    32     1    18    1
    33    21    20   ar
