@<TRIPOS>MOLECULE
3k84_K84_A_1.pdb
 30 31 0 0 0
SMALL
GASTEIGER

@<TRIPOS>ATOM
      1  C21      -45.0810   -4.5670   -2.3610 C.2     1  K841       -0.0307
      2  C22      -45.2890   -4.7110   -3.7330 C.2     1  K841       -0.0307
      3  C23      -46.4020   -5.3370   -4.2920 C.3     1  K841        0.0257
      4  C24      -46.3200   -5.3840   -5.8220 C.3     1  K841        0.0047
      5  C25      -47.4210   -6.2670   -6.4070 C.3     1  K841        0.0003
      6  C26      -47.4630   -7.6670   -5.7900 C.3     1  K841        0.0000
      7  C27      -48.3180   -8.6170   -6.6350 C.3     1  K841        0.0000
      8  C28      -48.4640  -10.0000   -5.9810 C.3     1  K841        0.0000
      9  C29      -47.1330  -10.7560   -5.9370 C.3     1  K841        0.0000
     10  C30      -46.5910  -11.0730   -7.3330 C.3     1  K841        0.0000
     11  OAA      -52.0980    1.0650   -1.3990 O.3     1  K841       -0.2130
     12  CAD      -46.5020    6.3830   -3.7080 C.ar    1  K841        0.0207
     13  CAG      -46.2620    5.0520   -3.3570 C.ar    1  K841        0.0033
     14  CAH      -47.7100    6.9830   -3.3180 C.ar    1  K841        0.0990
     15  CAK      -47.2280    4.3730   -2.6120 C.ar    1  K841        0.0240
     16  NAL      -50.2780    4.8930   -0.7460 N.ar    1  K841       -0.1055
     17  CAM      -48.5370   -2.4670   -0.3520 C.3     1  K841        0.0000
     18  CAN      -49.8260   -2.0530   -1.0220 C.3     1  K841        0.0001
     19  CAO      -47.7100   -3.2800   -1.3180 C.3     1  K841        0.0003
     20  CAP      -50.5440   -1.0420   -0.1470 C.3     1  K841        0.0031
     21  CAQ      -46.5590   -3.9240   -0.5590 C.3     1  K841        0.0047
     22  CAR      -49.9990    0.3710   -0.3870 C.3     1  K841        0.0426
     23  NAS      -48.6180    6.3130   -2.6110 N.ar    1  K841       -0.2391
     24  NAT      -50.9620    3.9840   -0.2590 N.ar    1  K841       -0.1087
     25  OAU      -49.4640    3.0140   -1.5440 O.2     1  K841       -0.4156
     26  CAV      -45.9580   -5.0500   -1.3960 C.3     1  K841        0.0257
     27  CAW      -48.4030    5.0340   -2.2580 C.ar    1  K841        0.1362
     28  CAX      -49.3570    4.3650   -1.5330 C.ar    1  K841        0.2674
     29  CAY      -50.5260    2.8040   -0.7030 C.ar    1  K841        0.2565
     30  CAZ      -51.1380    1.4050   -0.3670 C.3     1  K841        0.2290
@<TRIPOS>BOND
     1    10     9    1
     2     7     8    1
     3     7     6    1
     4     5     4    1
     5     5     6    1
     6     8     9    1
     7     4     3    1
     8     3     2    1
     9     2     1    2
    10    12    13   ar
    11    12    14   ar
    12    13    15   ar
    13    14    23   ar
    14    15    27   ar
    15    23    27   ar
    16     1    26    1
    17    27    28    1
    18    25    28   ar
    19    25    29   ar
    20    28    16   ar
    21    11    30    1
    22    26    21    1
    23    19    21    1
    24    19    17    1
    25    18    17    1
    26    18    20    1
    27    16    24   ar
    28    29    30    1
    29    29    24   ar
    30    22    30    1
    31    22    20    1
