@<TRIPOS>MOLECULE
3k88_NAD_A_1.pdb
 44 48 0 0 0
SMALL
GASTEIGER

@<TRIPOS>ATOM
      1  PA        80.2710   38.3370  -17.9230 P.3   1501  NAD1501     0.2189
      2  O1A       80.9610   39.4830  -16.9180 O.3   1501  NAD1501    -0.4371
      3  O2A       80.9480   38.4480  -19.2100 O.2   1501  NAD1501    -0.5170
      4  O5B       78.5850   38.6820  -18.1100 O.3   1501  NAD1501    -0.3112
      5  C5B       78.1850   40.0810  -17.9580 C.3   1501  NAD1501     0.1813
      6  C4B       77.3980   40.6580  -16.7110 C.3   1501  NAD1501     0.1821
      7  O4B       76.0280   40.1490  -16.4110 O.3   1501  NAD1501    -0.3135
      8  C3B       78.0250   40.5310  -15.2600 C.3   1501  NAD1501     0.2184
      9  O3B       79.2180   41.2700  -15.0730 O.3   1501  NAD1501    -0.2174
     10  C2B       76.8220   40.8540  -14.3210 C.3   1501  NAD1501     0.2570
     11  O2B       76.9020   42.0680  -13.5750 O.3   1501  NAD1501    -0.2130
     12  C1B       75.5600   40.6810  -15.1570 C.3   1501  NAD1501     0.3186
     13  N9A       74.4570   39.7780  -14.6600 N.pl3 1501  NAD1501    -0.1439
     14  C8A       73.2850   39.9580  -13.9480 C.3   1501  NAD1501     0.3377
     15  N7A       72.5390   38.7060  -13.9300 N.2   1501  NAD1501    -0.2095
     16  C5A       73.3540   37.7780  -14.7120 C.2   1501  NAD1501     0.2526
     17  C6A       73.2170   36.4230  -15.0700 C.2   1501  NAD1501     0.4393
     18  N6A       72.0400   35.7140  -14.6910 N.pl3 1501  NAD1501     0.2180
     19  N1A       74.1410   35.7910  -15.8230 N.2   1501  NAD1501     0.0021
     20  C2A       75.2710   36.4410  -16.2630 C.3   1501  NAD1501     0.5254
     21  N3A       75.4360   37.7850  -15.9130 N.2   1501  NAD1501    -0.0055
     22  C4A       74.4830   38.3960  -15.1560 C.2   1501  NAD1501     0.3518
     23  O3        80.5790   36.7580  -17.4420 O.3   1501  NAD1501    -0.2703
     24  PN        79.4290   35.6620  -18.0420 P.3   1501  NAD1501     0.2192
     25  O1N       79.3310   35.9430  -19.6890 O.2   1501  NAD1501    -0.5170
     26  O2N       78.0930   36.0210  -17.4760 O.3   1501  NAD1501    -0.4371
     27  O5D       79.8900   34.0240  -17.7830 O.3   1501  NAD1501    -0.3055
     28  C5D       79.0950   32.9000  -17.3210 C.3   1501  NAD1501     0.2165
     29  C4D       78.4800   33.0080  -15.8890 C.ar  1501  NAD1501     0.1967
     30  O4D       78.4810   34.2850  -15.2670 O.2   1501  NAD1501    -0.4347
     31  C3D       77.7850   32.0180  -14.9470 C.ar  1501  NAD1501     0.2712
     32  O3D       77.6370   30.6070  -15.1330 O.3   1501  NAD1501    -0.2800
     33  C2D       77.3760   32.7930  -13.7520 C.ar  1501  NAD1501     0.2860
     34  O2D       76.5950   32.2840  -12.6520 O.3   1501  NAD1501    -0.2783
     35  C1D       77.8640   34.1980  -13.9660 C.ar  1501  NAD1501     0.2455
     36  N1N       77.8070   35.4640  -13.2460 N.pl3 1501  NAD1501    -0.2502
     37  C2N       76.6360   35.7590  -12.6290 C.3   1501  NAD1501     0.1297
     38  C3N       76.5080   37.0850  -12.0870 C.2   1501  NAD1501     0.0547
     39  C7N       75.2170   37.2660  -11.2910 C.2   1501  NAD1501     0.2818
     40  O7N       74.5130   36.2760  -11.2240 O.2   1501  NAD1501    -0.2670
     41  N7N       74.9280   38.5920  -10.6700 N.am  1501  NAD1501    -0.0839
     42  C4N       77.4930   38.1330  -12.2950 C.2   1501  NAD1501     0.0033
     43  C5N       78.6510   37.8470  -13.0850 C.2   1501  NAD1501     0.0161
     44  C6N       78.7840   36.5330  -13.6090 C.2   1501  NAD1501     0.0681
@<TRIPOS>BOND
     1    25    24    2
     2     3     1    2
     3     4     5    1
     4     4     1    1
     5    24    27    1
     6    24    26    1
     7    24    23    1
     8     5     6    1
     9     1    23    1
    10     1     2    1
    11    27    28    1
    12    28    29    1
    13     6     7    1
    14     6     8    1
    15     7    12    1
    16    20    21    1
    17    20    19    1
    18    21    22    2
    19    29    30   ar
    20    29    31   ar
    21    19    17    2
    22    30    35   ar
    23     8     9    1
    24     8    10    1
    25    12    13    1
    26    12    10    1
    27    22    16    1
    28    22    13    1
    29    32    31    1
    30    17    16    1
    31    17    18    1
    32    31    33   ar
    33    16    15    2
    34    13    14    1
    35    10    11    1
    36    35    33   ar
    37    35    36    1
    38    14    15    1
    39    33    34    1
    40    44    36    1
    41    44    43    2
    42    36    37    1
    43    43    42    1
    44    37    38    1
    45    42    38    2
    46    38    39    1
    47    39    40    2
    48    39    41   am
