@<TRIPOS>MOLECULE
3k8b_HEM_A_1.pdb
 43 50 0 0 0
SMALL
GASTEIGER

@<TRIPOS>ATOM
      1  CHA      -12.0590    5.8520    8.1520 C.2   150  HEM150      0.0000
      2  CHB      -14.2870    1.6060    7.5810 C.2   150  HEM150      0.0000
      3  CHC      -12.9910    1.6030    2.9080 C.2   150  HEM150      0.0000
      4  CHD       -9.8490    5.2410    3.7940 C.2   150  HEM150      0.0000
      5  C1A      -12.8280    4.7450    8.4190 C.2   150  HEM150      0.0000
      6  C2A      -13.5550    4.4610    9.6610 C.2   150  HEM150      0.0000
      7  C3A      -14.1730    3.2700    9.4870 C.2   150  HEM150      0.0000
      8  C4A      -13.8520    2.7760    8.1530 C.2   150  HEM150      0.0000
      9  CMA      -15.0660    2.5390   10.5160 C.3   150  HEM150      0.0000
     10  CAA      -13.6170    5.3680   10.9330 C.3   150  HEM150      0.0000
     11  CBA      -12.6830    4.9230   12.0690 C.3   150  HEM150      0.0000
     12  CGA      -12.5600    5.9380   13.1970 C.2   150  HEM150      0.0000
     13  O1A      -13.5740    6.5230   13.6480 O.co2 150  HEM150      0.0000
     14  O2A      -11.4260    6.1710   13.6840 O.co2 150  HEM150      0.0000
     15  C1B      -14.2050    1.2790    6.2420 C.ar  150  HEM150      0.0000
     16  C2B      -14.9380    0.2150    5.5770 C.ar  150  HEM150      0.0000
     17  C3B      -14.5810    0.2070    4.2820 C.ar  150  HEM150      0.0000
     18  C4B      -13.6140    1.2740    4.0910 C.ar  150  HEM150      0.0000
     19  CMB      -15.9530   -0.7310    6.2680 C.3   150  HEM150      0.0000
     20  CAB      -15.1000   -0.7320    3.1560 C.2   150  HEM150      0.0000
     21  CBB      -15.2180   -2.0550    3.3260 C.2   150  HEM150      0.0000
     22  C1C      -11.9960    2.5440    2.7490 C.2   150  HEM150      0.0000
     23  C2C      -11.2420    2.7740    1.5420 C.2   150  HEM150      0.0000
     24  C3C      -10.3790    3.7800    1.7730 C.2   150  HEM150      0.0000
     25  C4C      -10.5450    4.2240    3.1490 C.2   150  HEM150      0.0000
     26  CMC      -11.4430    1.9790    0.2450 C.3   150  HEM150      0.0000
     27  CAC       -9.3560    4.3690    0.7780 C.2   150  HEM150      0.0000
     28  CBC       -8.5570    3.5550    0.0780 C.2   150  HEM150      0.0000
     29  C1D      -10.1110    5.7540    5.0630 C.ar  150  HEM150      0.0000
     30  C2D       -9.3660    6.7960    5.7470 C.ar  150  HEM150      0.0000
     31  C3D      -10.0560    6.9750    7.1080 C.ar  150  HEM150      0.0000
     32  C4D      -11.1600    6.0280    7.1140 C.ar  150  HEM150      0.0000
     33  CMD       -8.1360    7.5940    5.2510 C.3   150  HEM150      0.0000
     34  CAD       -9.6380    7.9910    8.2110 C.3   150  HEM150      0.0000
     35  CBD       -9.7310    7.3840    9.6130 C.3   150  HEM150      0.0000
     36  CGD       -8.4700    7.6400   10.3900 C.2   150  HEM150      0.0000
     37  O1D       -7.8190    6.6670   10.8510 O.co2 150  HEM150      0.0000
     38  O2D       -8.1250    8.8360   10.5490 O.co2 150  HEM150      0.0000
     39  NA       -13.0330    3.6990    7.5300 N.2   150  HEM150      0.0000
     40  NB       -13.4100    1.9070    5.2980 N.ar  150  HEM150      0.0000
     41  NC       -11.5430    3.4420    3.7010 N.2   150  HEM150      0.0000
     42  ND       -11.1500    5.3310    5.9070 N.ar  150  HEM150      0.0000
     43 FE        -12.2640    3.5760    5.4910 Fe    150  HEM150      0.0000
@<TRIPOS>BOND
     1    28    27    2
     2    26    23    1
     3    27    24    1
     4    23    24    2
     5    23    22    1
     6    24    25    1
     7    22     3    2
     8    22    41    1
     9     3    18    1
    10    25    41    2
    11    25     4    1
    12    20    21    2
    13    20    17    1
    14    41    43    1
    15     4    29    2
    16    18    17   ar
    17    18    40   ar
    18    17    16   ar
    19    29    30   ar
    20    29    42   ar
    21    33    30    1
    22    40    43    1
    23    40    15   ar
    24    43    42    1
    25    43    39    1
    26    16    15   ar
    27    16    19    1
    28    30    31   ar
    29    42    32   ar
    30    15     2    1
    31    31    32   ar
    32    31    34    1
    33    32     1    2
    34    39     8    1
    35    39     5    2
    36     2     8    2
    37     1     5    1
    38     8     7    1
    39    34    35    1
    40     5     6    1
    41     7     6    2
    42     7     9    1
    43    35    36    1
    44     6    10    1
    45    36    38   ar
    46    36    37   ar
    47    10    11    1
    48    11    12    1
    49    12    13   ar
    50    12    14   ar
