@<TRIPOS>MOLECULE
3k8c_RES_A_1.pdb
 14 13 0 0 0
SMALL
GASTEIGER

@<TRIPOS>ATOM
      1  O7        43.3420   29.4030   13.9430 O.3   160  RES160     -0.1145
      2  P         42.8750   29.3410   12.5080 P.3   160  RES160      0.5327
      3  O5        43.5170   28.2360   11.7370 O.2   160  RES160     -0.2224
      4  O6        42.7470   30.6890   11.8190 O.3   160  RES160     -0.1145
      5  O4        41.3290   28.8380   12.6630 O.3   160  RES160     -0.2674
      6  C4        40.2460   29.7510   12.9070 C.3   160  RES160      0.1895
      7  C3        39.0120   28.9000   13.1820 C.3   160  RES160      0.2182
      8  O3        39.2770   28.0340   14.2890 O.3   160  RES160     -0.2172
      9  C2        37.7080   29.6540   13.4520 C.3   160  RES160      0.2291
     10  O2        37.6510   30.8890   12.7220 O.3   160  RES160     -0.2134
     11  C1        36.5660   28.7040   13.1410 C.2   160  RES160      0.1201
     12  O1        36.4010   28.1380   12.0600 O.2   160  RES160     -0.5373
     13  N         35.7500   28.4440   14.1500 N.am  160  RES160     -0.2003
     14  ON        34.7040   27.5710   13.9200 O.3   160  RES160     -0.4026
@<TRIPOS>BOND
     1     3     2    2
     2     4     2    1
     3    12    11    2
     4     2     5    1
     5     2     1    1
     6     5     6    1
     7    10     9    1
     8     6     7    1
     9    11     9    1
    10    11    13   am
    11     7     9    1
    12     7     8    1
    13    14    13    1
