@<TRIPOS>MOLECULE
3k8d_KDO_A_1.pdb
 15 15 0 0 0
SMALL
GASTEIGER

@<TRIPOS>ATOM
      1  C1       -14.8500   61.3350  105.1950 C.2   1244  KDO1244     0.3914
      2  O1A      -14.1860   61.8610  104.0770 O.co2 1244  KDO1244    -0.2430
      3  O1B      -15.6540   60.4740  104.9980 O.co2 1244  KDO1244    -0.2430
      4  C2       -14.1620   61.4360  106.6070 C.3   1244  KDO1244     0.2204
      5  C3       -12.7230   62.0220  106.5640 C.3   1244  KDO1244     0.0769
      6  C4       -11.6390   60.9670  106.1850 C.3   1244  KDO1244     0.1877
      7  O4       -10.3410   61.4940  106.3790 O.3   1244  KDO1244    -0.2202
      8  C5       -11.8550   59.6140  106.9280 C.3   1244  KDO1244     0.2117
      9  O5       -11.7000   59.8000  108.3120 O.3   1244  KDO1244    -0.2177
     10  C6       -13.3230   59.1870  106.6950 C.3   1244  KDO1244     0.1814
     11  O6       -14.2380   60.1510  107.2430 O.3   1244  KDO1244    -0.3421
     12  C7       -13.6180   57.7870  107.3190 C.3   1244  KDO1244     0.2142
     13  O7       -12.9990   56.8310  106.4760 O.3   1244  KDO1244    -0.2176
     14  C8       -15.1640   57.5730  107.3680 C.3   1244  KDO1244     0.2174
     15  O8       -15.7480   57.7870  106.0930 O.3   1244  KDO1244    -0.2175
@<TRIPOS>BOND
     1     2     1   ar
     2     3     1   ar
     3     1     4    1
     4    15    14    1
     5     6     7    1
     6     6     5    1
     7     6     8    1
     8    13    12    1
     9     5     4    1
    10     4    11    1
    11    10     8    1
    12    10    11    1
    13    10    12    1
    14     8     9    1
    15    12    14    1
