@<TRIPOS>MOLECULE
3k8d_CTP_A_1.pdb
 29 30 0 0 0
SMALL
GASTEIGER

@<TRIPOS>ATOM
      1  N1       -12.4590   68.0370  109.7530 N.am  1243  CTP1243    -0.1778
      2  C2       -11.6350   68.9460  110.3850 C.1   1243  CTP1243     0.2756
      3  N3       -10.7520   69.6950  109.6400 N.2   1243  CTP1243    -0.3024
      4  C4       -10.6340   69.4830  108.2890 C.2   1243  CTP1243     0.2346
      5  C5       -11.4590   68.5600  107.6570 C.2   1243  CTP1243     0.0687
      6  C6       -12.2670   67.7370  108.4300 C.2   1243  CTP1243     0.0836
      7  O2       -11.6750   69.0950  111.6110 O.2   1243  CTP1243    -0.1925
      8  N4        -9.7200   70.1630  107.6120 N.pl3 1243  CTP1243    -0.0921
      9  C1'      -13.5140   67.3420  110.5050 C.3   1243  CTP1243     0.2400
     10  C2'      -14.8680   67.6790  109.8930 C.3   1243  CTP1243     0.2319
     11  O2'      -15.4280   68.8240  110.5080 O.3   1243  CTP1243    -0.2157
     12  C3'      -15.6920   66.4180  110.0900 C.3   1243  CTP1243     0.2158
     13  C4'      -14.6460   65.3240  110.2660 C.3   1243  CTP1243     0.1799
     14  O4'      -13.3730   65.9390  110.3710 O.3   1243  CTP1243    -0.3320
     15  O3'      -16.4620   66.5020  111.2750 O.3   1243  CTP1243    -0.2175
     16  C5'      -14.6880   64.3380  109.1000 C.3   1243  CTP1243     0.1813
     17  O5'      -14.3230   64.9650  107.8850 O.3   1243  CTP1243    -0.3112
     18  PA       -15.3790   65.1890  106.6840 P.3   1243  CTP1243     0.2189
     19  O1A      -14.7740   64.7740  105.3820 O.2   1243  CTP1243    -0.5170
     20  O2A      -16.6690   64.5010  107.0440 O.3   1243  CTP1243    -0.4371
     21  O3A      -15.6110   66.7800  106.7820 O.3   1243  CTP1243    -0.2700
     22  PB       -15.0890   67.8890  105.7380 P.3   1243  CTP1243     0.2277
     23  O1B      -13.6420   67.7130  105.4410 O.2   1243  CTP1243    -0.5168
     24  O2B      -15.2870   69.2160  106.4430 O.3   1243  CTP1243    -0.4368
     25  O3B      -16.0450   67.7520  104.4520 O.3   1243  CTP1243    -0.2258
     26  PG       -15.5120   67.6250  102.9280 P.3   1243  CTP1243     0.5373
     27  O1G      -14.8030   68.8850  102.4970 O.3   1243  CTP1243    -0.1143
     28  O2G      -16.7670   67.4030  102.1400 O.2   1243  CTP1243    -0.2221
     29  O3G      -14.5710   66.4510  102.7890 O.3   1243  CTP1243    -0.1143
@<TRIPOS>BOND
     1    28    26    2
     2    27    26    1
     3    29    26    1
     4    26    25    1
     5    25    22    1
     6    19    18    2
     7    23    22    2
     8    22    24    1
     9    22    21    1
    10    18    21    1
    11    18    20    1
    12    18    17    1
    13     8     4    1
    14     5     4    1
    15     5     6    2
    16    17    16    1
    17     4     3    2
    18     6     1    1
    19    16    13    1
    20     3     2    2
    21     1     2   am
    22     1     9    1
    23    10    12    1
    24    10     9    1
    25    10    11    1
    26    12    13    1
    27    12    15    1
    28    13    14    1
    29    14     9    1
    30     2     7    2
