@<TRIPOS>MOLECULE
3k8o_229_E_1.pdb
 19 20 0 0 0
SMALL
GASTEIGER

@<TRIPOS>ATOM
      1  O4       -44.5540   -1.1850   -0.6890 O.3   9006  2299006    -0.2175
      2  C11      -43.2180   -1.6590   -0.8700 C.3   9006  2299006     0.2163
      3  C6       -43.1120   -2.3930   -2.2130 C.3   9006  2299006     0.2032
      4  O3       -44.0800   -3.4520   -2.2870 O.3   9006  2299006    -0.2187
      5  C8       -43.2790   -1.4640   -3.4150 C.3   9006  2299006     0.1389
      6  C3       -43.2310   -2.3160   -4.6770 C.3   9006  2299006     0.2020
      7  O2       -42.9040   -1.5390   -5.8410 O.3   9006  2299006    -0.2188
      8  N2       -44.5590   -0.8100   -3.3010 N.3   9006  2299006    -0.2092
      9  C10      -44.8600    0.3600   -4.0870 C.3   9006  2299006     0.1182
     10  C4       -44.6800    1.5640   -3.2090 C.2   9006  2299006     0.0339
     11  C1       -43.4410    2.3030   -2.9820 C.2   9006  2299006     0.1059
     12  N4       -42.1980    2.0970   -3.4680 N.2   9006  2299006    -0.2415
     13  C7       -41.2170    2.9300   -3.0980 C.3   9006  2299006     0.2626
     14  N3       -41.4320    3.9730   -2.2520 N.2   9006  2299006    -0.1739
     15  C9       -45.6340    2.2190   -2.4510 C.2   9006  2299006     0.0984
     16  N1       -45.0800    3.2720   -1.7910 N.2   9006  2299006    -0.2310
     17  C2       -43.7690    3.3730   -2.0600 C.2   9006  2299006     0.1804
     18  C5       -42.6250    4.2520   -1.6950 C.1   9006  2299006     0.1716
     19  O1       -42.7550    5.2230   -0.9150 O.2   9006  2299006    -0.2206
@<TRIPOS>BOND
     1     7     6    1
     2     6     5    1
     3     9     8    1
     4     9    10    1
     5    12    13    1
     6    12    11    2
     7     5     8    1
     8     5     3    1
     9    10    11    1
    10    10    15    2
    11    13    14    1
    12    11    17    1
    13    15    16    1
    14     4     3    1
    15    14    18    2
    16     3     2    1
    17    17    16    2
    18    17    18    1
    19    18    19    2
    20     2     1    1
