@<TRIPOS>MOLECULE
3k8q_22A_A_1.pdb
 17 18 0 0 0
SMALL
GASTEIGER

@<TRIPOS>ATOM
      1  N1        13.5820    8.6130   55.8030 N.2   290  22A290     -0.1739
      2  C2        12.8260    8.9380   56.8700 C.3   290  22A290      0.2623
      3  N3        12.9660   10.1000   57.5260 N.2   290  22A290     -0.2456
      4  C4        13.9120   10.9840   57.1120 C.2   290  22A290      0.0872
      5  C5        14.6340   10.7580   55.9170 C.2   290  22A290      0.1719
      6  C6        14.5560    9.4240   55.3290 C.1   290  22A290      0.1708
      7  O6        15.2240    9.1190   54.3140 O.2   290  22A290     -0.2206
      8  N7        15.6390   11.7880   55.7830 N.2   290  22A290     -0.2577
      9  C8        15.2810   12.6930   56.7570 C.3   290  22A290      0.1337
     10  C9        14.2300   12.2470   57.5760 C.3   290  22A290      0.0838
     11  N1'       14.6380   12.8270   59.8540 N.3   290  22A290     -0.2136
     12  C10       13.6670   12.9790   58.7680 C.3   290  22A290      0.0968
     13  C2'       14.8310   11.5130   60.4760 C.3   290  22A290      0.1385
     14  C3'       13.9640   11.3940   61.7230 C.3   290  22A290      0.2020
     15  C4'       16.2940   11.1840   60.8190 C.3   290  22A290      0.2020
     16  O5'       17.1840   12.3160   60.7860 O.3   290  22A290     -0.2188
     17  O6'       13.9400   12.6120   62.4980 O.3   290  22A290     -0.2188
@<TRIPOS>BOND
     1     7     6    2
     2     6     1    2
     3     6     5    1
     4     8     5    2
     5     8     9    1
     6     1     2    1
     7     5     4    1
     8     9    10    1
     9     2     3    1
    10     4     3    2
    11     4    10    1
    12    10    12    1
    13    12    11    1
    14    11    13    1
    15    13    15    1
    16    13    14    1
    17    16    15    1
    18    14    17    1
