@<TRIPOS>MOLECULE
3k8s_Z27_A_1.pdb
 33 36 0 0 0
SMALL
GASTEIGER

@<TRIPOS>ATOM
      1  S1        37.9260    1.1620   42.5840 S.3     1  Z271       -0.0465
      2  C2        37.1170   -0.4420   42.1880 C.2     1  Z271        0.1906
      3  N3        37.5780   -1.4550   42.8860 N.2     1  Z271       -0.3922
      4  C4        38.6050   -1.0490   43.7730 C.2     1  Z271        0.1215
      5  C5        38.8940    0.3660   43.7300 C.2     1  Z271        0.0581
      6  C6        39.3570   -1.8630   44.7110 C.3     1  Z271        0.0974
      7  C7        40.3670   -1.2400   45.5330 C.2     1  Z271        0.0425
      8  C8        40.6170    0.1540   45.4520 C.2     1  Z271        0.0081
      9  C9        39.9010    0.9710   44.5520 C.2     1  Z271        0.0094
     10 CL10       41.3140   -2.2100   46.6820 Cl      1  Z271       -0.0865
     11  S11       36.0520   -0.6120   41.1990 S.3     1  Z271       -0.0479
     12  C12       35.9210    1.6230   38.1100 C.ar    1  Z271        0.0186
     13  C13       35.2080    2.7590   38.6080 C.ar    1  Z271        0.0919
     14  C14       34.7720    2.7590   39.9590 C.ar    1  Z271        0.0299
     15  C15       35.0340    1.6710   40.8230 C.ar    1  Z271        0.0651
     16 CL16       34.4450    1.7890   42.4850 Cl      1  Z271       -0.0817
     17  C17       35.7600    0.5090   40.3410 C.ar    1  Z271        0.0429
     18  C18       36.1990    0.5090   38.9690 C.ar    1  Z271        0.0088
     19  S19       34.5970    5.5450   38.3200 S.O2    1  Z271        0.0936
     20  O20       34.3800    6.4590   37.0460 O.2     1  Z271       -0.1483
     21  O21       33.2190    5.5820   39.1120 O.2     1  Z271       -0.1483
     22  N22       34.9120    3.9150   37.7680 N.pl3   1  Z271       -0.0965
     23  C24       35.8240    6.3010   39.3290 C.ar    1  Z271        0.1375
     24  C25       35.4850    6.6100   40.6680 C.ar    1  Z271        0.0211
     25  C26       36.4380    7.2070   41.5070 C.ar    1  Z271        0.0053
     26  C27       37.7470    7.5190   41.0340 C.ar    1  Z271        0.0723
     27  C28       38.7510    8.1760   42.0160 C.3     1  Z271        0.4186
     28  F29       38.5980    9.5270   41.9850 F       1  Z271       -0.1659
     29  F30       38.5280    7.7290   43.2950 F       1  Z271       -0.1659
     30  F31       40.0500    7.9080   41.7020 F       1  Z271       -0.1659
     31  C32       38.0810    7.2050   39.6730 C.ar    1  Z271        0.0166
     32  C33       37.1260    6.6000   38.8120 C.ar    1  Z271        0.0765
     33 CL34       37.5910    6.2260   37.1440 Cl      1  Z271       -0.0808
@<TRIPOS>BOND
     1    20    19    2
     2    33    32    1
     3    22    19    1
     4    22    13    1
     5    12    13   ar
     6    12    18   ar
     7    19    21    2
     8    19    23    1
     9    13    14   ar
    10    32    23   ar
    11    32    31   ar
    12    18    17   ar
    13    23    24   ar
    14    31    26   ar
    15    14    15   ar
    16    17    15   ar
    17    17    11    1
    18    24    25   ar
    19    15    16    1
    20    26    25   ar
    21    26    27    1
    22    11     2    1
    23    30    27    1
    24    28    27    1
    25    27    29    1
    26     2     1    1
    27     2     3    2
    28     1     5    1
    29     3     4    2
    30     5     4    1
    31     5     9    2
    32     4     6    1
    33     9     8    1
    34     6     7    1
    35     8     7    2
    36     7    10    1
