@<TRIPOS>MOLECULE
3k8t_2A5_A_1.pdb
 29 31 0 0 0
SMALL
GASTEIGER

@<TRIPOS>ATOM
      1  O2A       26.7440   49.3640   16.2730 O.3   891  2A5891     -0.4370
      2  PA        25.6630   50.2490   15.6890 P.3   891  2A5891      0.2231
      3  O1A       25.3960   50.2490   14.1920 O.2   891  2A5891     -0.5169
      4  O3A       25.8130   51.7740   16.2420 O.3   891  2A5891     -0.2261
      5  PB        27.0860   52.7960   16.2070 P.3   891  2A5891      0.5373
      6  O2B       26.4970   54.0290   15.5370 O.3   891  2A5891     -0.1143
      7  O1B       27.4090   52.9630   17.6750 O.3   891  2A5891     -0.1143
      8  O3B       28.2040   52.2040   15.3650 O.2   891  2A5891     -0.2221
      9  O5'       24.2600   49.8240   16.3290 O.3   891  2A5891     -0.3111
     10  C5'       24.2310   49.6120   17.7290 C.3   891  2A5891      0.1813
     11  C4'       22.9010   50.0650   18.3080 C.3   891  2A5891      0.1795
     12  O4'       22.4370   51.3080   17.7700 O.3   891  2A5891     -0.3155
     13  C1'       20.9930   51.3170   17.7460 C.3   891  2A5891      0.2871
     14  C2'       20.5210   49.8720   17.9420 C.3   891  2A5891      0.1087
     15  C01       19.5950   49.8350   19.1470 C.3   891  2A5891      0.0449
     16  C02       18.8510   48.5360   19.3940 C.3   891  2A5891      0.1824
     17  O01       17.5340   48.7540   19.9200 O.3   891  2A5891     -0.2204
     18  C3'       21.8130   49.0460   18.0450 C.3   891  2A5891      0.1881
     19  O3'       21.8980   48.0600   19.0840 O.3   891  2A5891     -0.2202
     20  N9        20.5250   51.9350   16.4680 N.pl3 891  2A5891     -0.1460
     21  C8        20.9540   51.5810   15.2350 C.3   891  2A5891      0.3377
     22  N7        20.3690   52.3400   14.2780 N.2   891  2A5891     -0.2095
     23  C5        19.5480   53.2070   14.9010 C.2   891  2A5891      0.2526
     24  C4        19.6540   52.9470   16.3460 C.2   891  2A5891      0.3518
     25  C6        18.6220   54.2800   14.4780 C.2   891  2A5891      0.4393
     26  N6        18.4870   54.5570   13.1600 N.pl3 891  2A5891      0.2180
     27  N1        17.9340   54.9680   15.4350 N.2   891  2A5891      0.0021
     28  C2        18.0810   54.6840   16.7440 C.3   891  2A5891      0.5254
     29  N3        18.9070   53.7080   17.1890 N.2   891  2A5891     -0.0055
@<TRIPOS>BOND
     1    26    25    1
     2     3     2    2
     3    22    23    2
     4    22    21    1
     5    25    23    1
     6    25    27    2
     7    23    24    1
     8    21    20    1
     9     8     5    2
    10    27    28    1
    11     6     5    1
    12     2     4    1
    13     2     1    1
    14     2     9    1
    15     5     4    1
    16     5     7    1
    17     9    10    1
    18    24    20    1
    19    24    29    2
    20    20    13    1
    21    28    29    1
    22    10    11    1
    23    13    12    1
    24    13    14    1
    25    12    11    1
    26    14    18    1
    27    14    15    1
    28    18    11    1
    29    18    19    1
    30    15    16    1
    31    16    17    1
