@<TRIPOS>MOLECULE
3k8t_DGT_A_1.pdb
 31 33 0 0 0
SMALL
GASTEIGER

@<TRIPOS>ATOM
      1  PG       -12.3640   44.5210   26.2710 P.3   890  DGT890      0.5373
      2  O1G      -10.8950   44.5310   26.6480 O.3   890  DGT890     -0.1143
      3  O2G      -12.9870   44.2580   27.6220 O.3   890  DGT890     -0.1143
      4  O3G      -12.6460   43.5430   25.2210 O.2   890  DGT890     -0.2221
      5  O3B      -12.9600   45.9120   25.7310 O.3   890  DGT890     -0.2258
      6  PB       -12.3820   47.3540   26.1310 P.3   890  DGT890      0.2277
      7  O1B      -11.6470   47.2490   27.4550 O.3   890  DGT890     -0.4368
      8  O2B      -13.4310   48.4140   26.2750 O.2   890  DGT890     -0.5168
      9  O3A      -11.3140   47.6590   24.9110 O.3   890  DGT890     -0.2700
     10  PA        -9.7320   48.0690   25.1040 P.3   890  DGT890      0.2189
     11  O1A       -9.1040   47.3160   26.2110 O.3   890  DGT890     -0.4371
     12  O2A       -9.4410   49.5140   25.2410 O.2   890  DGT890     -0.5170
     13  O5'       -9.0940   47.5380   23.7190 O.3   890  DGT890     -0.3112
     14  C5'       -8.9830   46.1660   23.4830 C.3   890  DGT890      0.1812
     15  C4'       -8.3450   45.8970   22.1320 C.3   890  DGT890      0.1772
     16  O4'       -9.2020   46.4030   21.1500 O.3   890  DGT890     -0.3347
     17  C3'       -7.0170   46.5600   21.9560 C.3   890  DGT890      0.1857
     18  O3'       -6.1340   45.7570   21.1790 O.3   890  DGT890     -0.2203
     19  C2'       -7.3790   47.8480   21.2510 C.3   890  DGT890      0.0865
     20  C1'       -8.6120   47.4630   20.4590 C.3   890  DGT890      0.1981
     21  N9        -9.5770   48.5580   20.3010 N.pl3 890  DGT890     -0.2374
     22  C8       -10.4240   49.0320   21.2940 C.3   890  DGT890      0.2245
     23  N7       -11.1480   50.0540   20.7930 N.2   890  DGT890     -0.2322
     24  C5       -10.7880   50.2000   19.4960 C.2   890  DGT890      0.2182
     25  C6       -11.2170   51.1080   18.5480 C.1   890  DGT890      0.2372
     26  O6       -12.1130   51.9130   18.8310 O.2   890  DGT890     -0.2069
     27  N1       -10.6880   51.0720   17.3010 N.2   890  DGT890     -0.2485
     28  C2        -9.7300   50.1630   16.9930 C.1   890  DGT890      0.2531
     29  N2        -9.2680   50.1770   15.7600 N.pl3 890  DGT890     -0.0226
     30  N3        -9.2770   49.2500   17.9090 N.2   890  DGT890     -0.3074
     31  C4        -9.7970   49.2950   19.1700 C.2   890  DGT890      0.2299
@<TRIPOS>BOND
     1    29    28    1
     2    28    27    2
     3    28    30    2
     4    27    25    2
     5    30    31    2
     6    25    26    2
     7    25    24    1
     8    31    24    1
     9    31    21    1
    10    24    23    2
    11    21    20    1
    12    21    22    1
    13    20    16    1
    14    20    19    1
    15    23    22    1
    16    16    15    1
    17    18    17    1
    18    19    17    1
    19    17    15    1
    20    15    14    1
    21    14    13    1
    22    13    10    1
    23     9    10    1
    24     9     6    1
    25    10    12    2
    26    10    11    1
    27     4     1    2
    28     5     6    1
    29     5     1    1
    30     6     8    2
    31     6     7    1
    32     1     2    1
    33     1     3    1
