@<TRIPOS>MOLECULE
3k8x_B89_A_1.pdb
 23 24 0 0 0
SMALL
GASTEIGER

@<TRIPOS>ATOM
      1  CAA       -1.9920   22.5960  -22.9780 C.3     1  B891        0.0068
      2  OAB       -2.3670   26.4410  -21.4520 O.2     1  B891       -0.2915
      3  OAC        1.4730   24.0100  -23.0830 O.3     1  B891       -0.2182
      4 CLAD       -0.6050   20.1450  -15.5760 Cl      1  B891       -0.0816
      5  CAE       -1.0080   21.6620  -16.3560 C.2     1  B891        0.0674
      6  CAF       -0.2080   22.1650  -17.3740 C.2     1  B891        0.0358
      7  CAG       -0.9590   22.6440  -21.8600 C.3     1  B891        0.0490
      8  CAH       -0.4630   23.4160  -17.9530 C.3     1  B891        0.2658
      9  CAI        0.8950   28.8770  -27.7400 C.3     1  B891        0.1422
     10  CAJ        1.3410   30.2800  -25.8580 C.3     1  B891        0.1422
     11  CAK        0.3600   27.7060  -26.8430 C.3     1  B891        0.0322
     12  CAL        1.2630   29.0730  -24.9080 C.3     1  B891        0.0322
     13  CAM       -1.0210   27.5320  -23.1970 C.3     1  B891        0.0690
     14  CAN        0.9950   26.2110  -24.0670 C.3     1  B891        0.0381
     15  NAO       -0.5330   24.3150  -20.1180 N.2     1  B891       -0.0872
     16  OAP        1.8800   29.7340  -27.0790 O.3     1  B891       -0.3538
     17  OAQ       -0.7180   23.2140  -19.3460 O.2     1  B891       -0.3726
     18  CAR       -1.3550   26.3730  -22.2600 C.2     1  B891        0.1727
     19  CAS        0.6390   25.1020  -23.1140 C.3     1  B891        0.1782
     20  CAT       -0.6790   24.0880  -21.3980 C.2     1  B891        0.0982
     21  CAU       -0.4450   25.1480  -22.2420 C.2     1  B891        0.0591
     22  CAV        0.0910   28.1990  -25.3900 C.3     1  B891        0.0055
     23  CAW       -0.2440   27.0380  -24.4370 C.3     1  B891        0.0107
@<TRIPOS>BOND
     1     9    16    1
     2     9    11    1
     3    16    10    1
     4    11    22    1
     5    10    12    1
     6    22    12    1
     7    22    23    1
     8    23    14    1
     9    23    13    1
    10    14    19    1
    11    13    18    1
    12    19     3    1
    13    19    21    1
    14     1     7    1
    15    18    21    2
    16    18     2    1
    17    21    20    1
    18     7    20    1
    19    20    15    2
    20    15    17    1
    21    17     8    1
    22     8     6    1
    23     6     5    2
    24     5     4    1
