@<TRIPOS>MOLECULE
3k8y_GNP_A_1.pdb
 32 34 0 0 0
SMALL
GASTEIGER

@<TRIPOS>ATOM
      1  PG        -9.6090   64.4020  -67.5550 P.3   528  GNP528      0.4884
      2  O1G       -8.6410   63.9980  -66.4530 O.3   528  GNP528     -0.1240
      3  O2G      -10.5620   65.4710  -67.1040 O.3   528  GNP528     -0.1240
      4  O3G      -10.2840   63.1520  -68.0570 O.2   528  GNP528     -0.2331
      5  N3B       -8.7410   64.9860  -68.7840 N.3   528  GNP528     -0.0163
      6  PB        -9.2100   65.6690  -70.1850 P.3   528  GNP528      0.4669
      7  O1B       -9.5890   64.6400  -71.2000 O.2   528  GNP528     -0.2351
      8  O2B      -10.2630   66.6680  -69.9200 O.3   528  GNP528     -0.1253
      9  O3A       -7.9780   66.4460  -70.7420 O.3   528  GNP528     -0.2360
     10  PA        -7.6460   67.9860  -70.7410 P.3   528  GNP528      0.2220
     11  O1A       -8.6230   68.7290  -71.5760 O.2   528  GNP528     -0.5170
     12  O2A       -7.4340   68.4020  -69.3300 O.3   528  GNP528     -0.4370
     13  O5'       -6.2640   68.0580  -71.4920 O.3   528  GNP528     -0.3111
     14  C5'       -5.1170   67.3360  -71.0000 C.3   528  GNP528      0.1813
     15  C4'       -3.8390   67.9760  -71.5130 C.3   528  GNP528      0.1799
     16  O4'       -3.7760   67.8250  -72.9550 O.3   528  GNP528     -0.3326
     17  C3'       -3.7250   69.4770  -71.2560 C.3   528  GNP528      0.2158
     18  O3'       -2.3760   69.8190  -70.9510 O.3   528  GNP528     -0.2175
     19  C2'       -4.1670   70.1060  -72.5770 C.3   528  GNP528      0.2310
     20  O2'       -3.5880   71.3750  -72.8200 O.3   528  GNP528     -0.2158
     21  C1'       -3.6370   69.0850  -73.5790 C.3   528  GNP528      0.2293
     22  N9        -4.4330   69.0750  -74.8040 N.pl3 528  GNP528     -0.2354
     23  C8        -5.7970   68.8940  -74.9090 C.3   528  GNP528      0.2246
     24  N7        -6.2260   68.9550  -76.1440 N.2   528  GNP528     -0.2322
     25  C5        -5.0870   69.1780  -76.9000 C.2   528  GNP528      0.2182
     26  C6        -4.9330   69.3190  -78.3000 C.1   528  GNP528      0.2372
     27  O6        -5.8240   69.2710  -79.1600 O.2   528  GNP528     -0.2069
     28  N1        -3.6040   69.5220  -78.6640 N.2   528  GNP528     -0.2485
     29  C2        -2.5580   69.5940  -77.7730 C.1   528  GNP528      0.2531
     30  N2        -1.3430   69.8040  -78.2950 N.pl3 528  GNP528     -0.0226
     31  N3        -2.6880   69.4540  -76.4590 N.2   528  GNP528     -0.3074
     32  C4        -3.9760   69.2510  -76.0900 C.2   528  GNP528      0.2300
@<TRIPOS>BOND
     1    27    26    2
     2    28    26    2
     3    28    29    2
     4    26    25    1
     5    30    29    1
     6    29    31    2
     7    25    24    2
     8    25    32    1
     9    31    32    2
    10    24    23    1
    11    32    22    1
    12    23    22    1
    13    22    21    1
    14    21    16    1
    15    21    19    1
    16    16    15    1
    17    20    19    1
    18    19    17    1
    19    11    10    2
    20    15    17    1
    21    15    14    1
    22    13    14    1
    23    13    10    1
    24    17    18    1
    25     7     6    2
    26     9    10    1
    27     9     6    1
    28    10    12    1
    29     6     8    1
    30     6     5    1
    31     5     1    1
    32     4     1    2
    33     1     3    1
    34     1     2    1
