@<TRIPOS>MOLECULE
3k90_A8S_A_1.pdb
 19 19 0 0 0
SMALL
GASTEIGER

@<TRIPOS>ATOM
      1  C1        16.7020  -19.3670    9.0330 C.2   192  A8S192      0.3689
      2  C2        18.0610  -19.0520    8.8940 C.3   192  A8S192      0.1358
      3  C3        18.6770  -18.5980    7.7220 C.2   192  A8S192     -0.0369
      4  C4        17.9570  -18.4230    6.5270 C.2   192  A8S192     -0.0312
      5  C5        18.5250  -18.0210    5.3140 C.3   192  A8S192      0.0597
      6  C6        20.1780  -18.2970    7.7980 C.3   192  A8S192      0.0266
      7  C7        17.7690  -17.8740    4.1230 C.3   192  A8S192      0.1460
      8  O7        16.3940  -18.1210    4.3610 O.3   192  A8S192     -0.2212
      9  C8        17.9000  -16.3930    3.7640 C.2   192  A8S192     -0.0136
     10  C9        18.8970  -15.9690    2.8880 C.2   192  A8S192      0.0313
     11  C10       19.7440  -16.8860    2.2490 C.2   192  A8S192      0.1727
     12  O10       20.5980  -16.5160    1.4510 O.2   192  A8S192     -0.2914
     13  C11       19.6410  -18.3840    2.5000 C.3   192  A8S192      0.0718
     14  O11       15.9480  -19.2900    8.0430 O.co2 192  A8S192     -0.2453
     15  C12       18.2510  -18.8010    2.9680 C.3   192  A8S192      0.0368
     16  O12       16.3130  -19.7780   10.1530 O.co2 192  A8S192     -0.2453
     17  C13       16.9620  -15.4140    4.4830 C.3   192  A8S192      0.0289
     18  C14       17.2450  -18.7730    1.8070 C.3   192  A8S192      0.0032
     19  C15       18.3550  -20.2480    3.4520 C.3   192  A8S192      0.0032
@<TRIPOS>BOND
     1    12    11    2
     2    18    15    1
     3    11    13    1
     4    11    10    1
     5    13    15    1
     6    10     9    2
     7    15    19    1
     8    15     7    1
     9     9     7    1
    10     9    17    1
    11     7     8    1
    12     7     5    1
    13     5     4    1
    14     4     3    2
    15     3     6    1
    16     3     2    1
    17    14     1   ar
    18     2     1    1
    19     1    16   ar
