@<TRIPOS>MOLECULE
3k97_4CD_A_1.pdb
 23 25 0 0 0
SMALL
GASTEIGER

@<TRIPOS>ATOM
      1  N1        67.4650   78.9670   22.8120 N.am  901  4CD901     -0.2739
      2  C4        67.9820   79.8930   23.8650 C.3   901  4CD901      0.0979
      3  C5        69.4610   79.6540   24.3000 C.ar  901  4CD901     -0.0082
      4  C6        70.4200   79.0410   23.4040 C.ar  901  4CD901     -0.0030
      5  C7        71.7620   78.8180   23.7990 C.ar  901  4CD901     -0.0003
      6  C8        72.1930   79.1950   25.0890 C.ar  901  4CD901     -0.0003
      7  C10       69.9230   80.0350   25.6240 C.ar  901  4CD901     -0.0243
      8  C13       68.3240   76.4470   24.7470 C.ar  901  4CD901      0.0224
      9  C15       67.1970   75.5530   26.7450 C.ar  901  4CD901      0.2093
     10  C17       65.8860   76.6740   24.9940 C.ar  901  4CD901      0.2033
     11  C1        67.8230   81.2830   23.2210 C.3   901  4CD901      0.0261
     12  C2        67.9440   81.0460   21.7170 C.3   901  4CD901      0.0236
     13  C3        67.3770   79.6480   21.5120 C.3   901  4CD901      0.0940
     14  C9        71.2850   79.7960   25.9920 C.ar  901  4CD901     -0.0045
     15  C11       69.0280   80.6810   26.6570 C.3   901  4CD901      0.0308
     16  C12       67.0680   76.9080   24.2400 C.ar  901  4CD901      0.0935
     17  C14       68.3880   75.7710   25.9980 C.ar  901  4CD901      0.0968
     18  C16       65.9470   76.0010   26.2440 C.ar  901  4CD901      0.0850
     19  O1        64.6610   77.0720   24.5790 O.3   901  4CD901     -0.2863
     20  O2        67.2480   74.9130   27.9510 O.3   901  4CD901     -0.2856
     21  C18       67.0050   77.6310   22.9250 C.2   901  4CD901      0.2523
     22  O3        66.5210   77.0000   21.9840 O.2   901  4CD901     -0.2698
     23 CL1        69.9240   75.2350   26.5690 Cl    901  4CD901     -0.0789
@<TRIPOS>BOND
     1    13    12    1
     2    13     1    1
     3    12    11    1
     4    22    21    2
     5     1    21   am
     6     1     2    1
     7    21    16    1
     8    11     2    1
     9     4     5   ar
    10     4     3   ar
    11     5     6   ar
    12     2     3    1
    13    16     8   ar
    14    16    10   ar
    15     3     7   ar
    16    19    10    1
    17     8    17   ar
    18    10    18   ar
    19     6    14   ar
    20     7    14   ar
    21     7    15    1
    22    17    23    1
    23    17     9   ar
    24    18     9   ar
    25     9    20    1
