@<TRIPOS>MOLECULE
3k98_1RC_A_1.pdb
 25 27 0 0 0
SMALL
GASTEIGER

@<TRIPOS>ATOM
      1  N1        16.6200   -3.0070   50.7400 N.am  901  1RC901     -0.2618
      2  C4        17.4940   -2.8140   54.3950 C.ar  901  1RC901     -0.0025
      3  C5        17.2390   -3.0700   53.0220 C.ar  901  1RC901      0.0022
      4  C6        17.6420   -4.2930   52.4180 C.ar  901  1RC901     -0.0043
      5  C7        17.2630   -4.3190   50.9710 C.3   901  1RC901      0.1209
      6  C8        16.5500   -2.1880   52.0110 C.3   901  1RC901      0.1767
      7  C10       15.6290   -1.2800   49.2250 C.ar  901  1RC901      0.0935
      8  C13       14.5590    1.3200   48.9020 C.ar  901  1RC901      0.2093
      9  C15       16.4800   -0.1950   48.8460 C.ar  901  1RC901      0.2033
     10  C17       12.8770   -3.0860   52.8820 C.3   901  1RC901      0.1153
     11  C1        18.1660   -3.8070   55.1530 C.ar  901  1RC901     -0.0003
     12  C2        18.5670   -5.0320   54.5400 C.ar  901  1RC901     -0.0003
     13  C3        18.3030   -5.2810   53.1630 C.ar  901  1RC901     -0.0029
     14  C9        16.2080   -2.6440   49.4180 C.2   901  1RC901      0.2529
     15  C11       14.2440   -1.0610   49.4310 C.ar  901  1RC901      0.0224
     16  C12       13.7150    0.2360   49.2700 C.ar  901  1RC901      0.0968
     17  C14       15.9450    1.1040   48.6850 C.ar  901  1RC901      0.0850
     18  O1        17.8210   -0.4140   48.6430 O.3   901  1RC901     -0.2863
     19  O2        14.0310    2.5820   48.7560 O.3   901  1RC901     -0.2856
     20 CL1        12.0410    0.4630   49.5390 Cl    901  1RC901     -0.0789
     21  O3        16.3190   -3.3590   48.4220 O.2   901  1RC901     -0.2698
     22  C16       15.0980   -1.9600   52.5160 C.2   901  1RC901      0.2638
     23  N2        14.2750   -3.0800   52.4530 N.am  901  1RC901     -0.2038
     24  C18       11.9010   -2.7960   51.7640 C.3   901  1RC901      0.0253
     25  O4        14.7350   -0.8640   52.9300 O.2   901  1RC901     -0.2712
@<TRIPOS>BOND
     1    21    14    2
     2    18     9    1
     3    17     9   ar
     4    17     8   ar
     5    19     8    1
     6     9     7   ar
     7     8    16   ar
     8     7    14    1
     9     7    15   ar
    10    16    15   ar
    11    16    20    1
    12    14     1   am
    13     1     5    1
    14     1     6    1
    15     5     4    1
    16    24    10    1
    17     6    22    1
    18     6     3    1
    19     4     3   ar
    20     4    13   ar
    21    23    22   am
    22    23    10    1
    23    22    25    2
    24     3     2   ar
    25    13    12   ar
    26     2    11   ar
    27    12    11   ar
