@<TRIPOS>MOLECULE
3k99_PFT_A_1.pdb
 19 21 0 0 0
SMALL
GASTEIGER

@<TRIPOS>ATOM
      1  N1        47.3610   72.4170   63.9750 N.ar  901  PFT901     -0.2716
      2  C2        46.8840   72.3460   65.3310 C.2   901  PFT901      0.2678
      3  C3        47.9460   73.7040   63.3900 C.ar  901  PFT901      0.0830
      4  C4        47.4000   71.2900   62.9030 C.ar  901  PFT901      0.0830
      5  C5        46.3460   70.9760   65.7460 C.ar  901  PFT901      0.0955
      6  O6        47.0030   73.3770   65.9400 O.2   901  PFT901     -0.2665
      7  C7        48.3410   73.2780   61.9270 C.ar  901  PFT901      0.0191
      8  C8        48.0030   71.8750   61.7010 C.ar  901  PFT901      0.0191
      9  C9        47.3290   70.2410   66.5330 C.ar  901  PFT901      0.2035
     10  C10       45.0550   70.4720   65.4110 C.ar  901  PFT901      0.0113
     11  C11       48.9480   73.9550   60.8150 C.ar  901  PFT901      0.0015
     12  C12       48.2190   71.1280   60.4850 C.ar  901  PFT901      0.0015
     13  C13       47.1570   68.9440   67.0730 C.ar  901  PFT901      0.0842
     14  O14       48.5810   70.7310   66.8530 O.3   901  PFT901     -0.2863
     15  C15       44.8000   69.1840   65.9070 C.ar  901  PFT901      0.0424
     16  C16       49.1890   73.2210   59.5520 C.ar  901  PFT901      0.0000
     17  C17       48.8130   71.8050   59.4170 C.ar  901  PFT901      0.0000
     18  C18       45.8350   68.4890   66.6970 C.ar  901  PFT901      0.1989
     19  O19       45.5210   67.2820   67.1210 O.3   901  PFT901     -0.2865
@<TRIPOS>BOND
     1    17    16   ar
     2    17    12   ar
     3    16    11   ar
     4    12     8   ar
     5    11     7   ar
     6     8     7   ar
     7     8     4   ar
     8     7     3   ar
     9     4     1   ar
    10     3     1   ar
    11     1     2   am
    12     2     5    1
    13     2     6    2
    14    10     5   ar
    15    10    15   ar
    16     5     9   ar
    17    15    18   ar
    18     9    14    1
    19     9    13   ar
    20    18    13   ar
    21    18    19    1
