@<TRIPOS>MOLECULE
3k9b_WW2_A_1.pdb
 10 10 0 0 0
SMALL
GASTEIGER

@<TRIPOS>ATOM
      1  C1        11.9520   91.0240   44.8010 C.3   193  WW2193      0.0300
      2  O1         7.5810   92.8870   46.3040 O.3   193  WW2193     -0.1774
      3  P1         9.0220   92.9300   46.5640 P.3   193  WW2193      0.2205
      4  C2        13.2180   90.1170   45.1550 C.3   193  WW2193      0.0025
      5  O2         9.7190   91.8400   45.5030 O.3   193  WW2193     -0.3199
      6  C3        12.8130   88.6100   45.4800 C.3   193  WW2193      0.0002
      7  C4        11.6370   88.5300   46.5490 C.3   193  WW2193      0.0025
      8  C5        10.4050   89.4190   46.1020 C.3   193  WW2193      0.0300
      9  C6        10.8260   90.9580   45.9370 C.3   193  WW2193      0.1213
     10  C7         9.2070   92.5590   48.3180 C.3   193  WW2193      0.0904
@<TRIPOS>BOND
     1     1     4    1
     2     1     9    1
     3     4     6    1
     4     6     7    1
     5     5     9    1
     6     5     3    1
     7     9     8    1
     8     8     7    1
     9     2     3    1
    10     3    10    1
