@<TRIPOS>MOLECULE
3k9f_LFX_F_1.pdb
 46 49 0 0 0
SMALL
GASTEIGER

@<TRIPOS>ATOM
      1  C        -23.8480   49.4940  -32.9850 C.2     0  LFX0        0.3420
      2  F        -23.3820   48.8210  -40.1740 F       0  LFX0       -0.2034
      3  N        -19.9060   52.4010  -41.9300 N.3     0  LFX0       -0.3024
      4  O        -23.8470   50.2520  -32.0260 O.2     0  LFX0       -0.2449
      5  C01      -21.0730   50.3010  -41.2000 C.3     0  LFX0        0.0252
      6  N01      -21.9740   51.2070  -40.4430 N.pl3   0  LFX0       -0.3224
      7  O01      -21.6730   52.5820  -38.0410 O.3     0  LFX0       -0.4859
      8  C02      -22.2750   52.5290  -41.0460 C.3     0  LFX0        0.0252
      9  N02      -22.4490   51.6880  -35.5820 N.ar    0  LFX0       -0.3367
     10  O02      -24.2930   48.1010  -35.3520 O.2     0  LFX0       -0.2863
     11  C03      -21.6250   52.8800  -35.6210 C.3     0  LFX0        0.0658
     12  O03      -23.6530   48.3120  -32.6800 O.3     0  LFX0       -0.4770
     13  C04      -22.4740   50.7470  -39.1860 C.ar    0  LFX0        0.1098
     14  C05      -22.6710   50.9570  -36.7310 C.ar    0  LFX0        0.0974
     15  C06      -22.2340   51.4520  -37.9880 C.ar    0  LFX0        0.1684
     16  C07      -19.7180   50.9810  -41.5200 C.3     0  LFX0        0.0144
     17  C08      -21.3340   52.7280  -42.2670 C.3     0  LFX0        0.0144
     18  C09      -21.5990   53.4950  -37.0640 C.3     0  LFX0        0.1101
     19  C10      -23.3280   49.7050  -36.6790 C.ar    0  LFX0        0.0524
     20  C11      -23.1250   49.5070  -39.1010 C.ar    0  LFX0        0.1487
     21  C12      -22.8530   51.2080  -34.3700 C.ar    0  LFX0        0.0233
     22  C13      -23.5060   48.9710  -37.8690 C.ar    0  LFX0       -0.0116
     23  C14      -20.1720   52.5190  -35.1190 C.3     0  LFX0       -0.0410
     24  C15      -23.7360   49.2220  -35.4210 C.ar    0  LFX0        0.2036
     25  C16      -18.7870   53.0050  -42.7370 C.3     0  LFX0       -0.0126
     26  C17      -23.5060   49.9680  -34.2450 C.ar    0  LFX0        0.1220
     27 HO03      -23.5890   47.6780  -33.2870 H       0  LFX0        0.2954
     28  H01      -21.5480   50.0250  -42.1460 H       0  LFX0        0.0476
     29 H01A      -20.8830   49.3810  -40.6440 H       0  LFX0        0.0476
     30  H02      -23.3130   52.5550  -41.3910 H       0  LFX0        0.0476
     31 H02A      -22.1290   53.3430  -40.3320 H       0  LFX0        0.0476
     32  H03      -22.0470   53.6270  -34.9390 H       0  LFX0        0.0559
     33  H07      -19.2340   50.4370  -42.3360 H       0  LFX0        0.0442
     34 H07A      -19.0530   50.9150  -40.6560 H       0  LFX0        0.0442
     35  H08      -21.6660   52.0750  -43.0770 H       0  LFX0        0.0442
     36 H08A      -21.4140   53.7530  -42.6360 H       0  LFX0        0.0442
     37  H09      -20.6910   54.0740  -37.2440 H       0  LFX0        0.0717
     38 H09A      -22.4470   54.1720  -37.1910 H       0  LFX0        0.0717
     39  H12      -22.6560   51.7540  -33.5280 H       0  LFX0        0.0819
     40  H13      -24.0240   48.0890  -37.8590 H       0  LFX0        0.0654
     41  H14      -19.7020   51.8060  -35.8000 H       0  LFX0        0.0251
     42 H14A      -19.5380   53.4060  -35.0510 H       0  LFX0        0.0251
     43 H14B      -20.2200   52.0820  -34.1200 H       0  LFX0        0.0251
     44  H16      -19.1030   53.9940  -43.0670 H       0  LFX0        0.0391
     45 H16A      -17.8680   53.1230  -42.1600 H       0  LFX0        0.0391
     46 H16B      -18.5430   52.4170  -43.6240 H       0  LFX0        0.0391
@<TRIPOS>BOND
     1    46    25    1
     2    35    17    1
     3    44    25    1
     4    25    45    1
     5    25     3    1
     6    36    17    1
     7    33    16    1
     8    17     3    1
     9    17     8    1
    10    28     5    1
    11     3    16    1
    12    16     5    1
    13    16    34    1
    14    30     8    1
    15     5    29    1
    16     5     6    1
    17     8     6    1
    18     8    31    1
    19     6    13    1
    20     2    20    1
    21    13    20   ar
    22    13    15   ar
    23    20    22   ar
    24     7    15    1
    25     7    18    1
    26    15    14   ar
    27    22    40    1
    28    22    19   ar
    29    37    18    1
    30    38    18    1
    31    18    11    1
    32    14    19   ar
    33    14     9   ar
    34    19    24   ar
    35    41    23    1
    36    11     9    1
    37    11    23    1
    38    11    32    1
    39     9    21   ar
    40    24    10    2
    41    24    26   ar
    42    23    42    1
    43    23    43    1
    44    21    26   ar
    45    21    39    1
    46    26     1    1
    47    27    12    1
    48     1    12    1
    49     1     4    2
