@<TRIPOS>MOLECULE
3k9l_GNP_A_1.pdb
 32 34 0 0 0
SMALL
GASTEIGER

@<TRIPOS>ATOM
      1  PG        10.4790   32.3410   17.0360 P.3   201  GNP201      0.4884
      2  O1G       11.3690   33.3060   17.7690 O.3   201  GNP201     -0.1240
      3  O2G        9.1600   32.1600   17.7180 O.3   201  GNP201     -0.1240
      4  O3G       11.2410   31.0600   16.8500 O.2   201  GNP201     -0.2331
      5  N3B       10.2340   32.9430   15.5820 N.3   201  GNP201     -0.0163
      6  PB         9.3850   32.3140   14.3670 P.3   201  GNP201      0.4669
      7  O1B       10.0790   31.1520   13.7340 O.2   201  GNP201     -0.2351
      8  O2B        8.0500   32.0370   14.8930 O.3   201  GNP201     -0.1253
      9  O3A        9.3000   33.4150   13.3030 O.3   201  GNP201     -0.2360
     10  PA         8.1480   34.3910   12.9650 P.3   201  GNP201      0.2220
     11  O1A        6.9210   33.6970   12.5060 O.2   201  GNP201     -0.5170
     12  O2A        7.9380   35.3680   14.0660 O.3   201  GNP201     -0.4370
     13  O5'        8.6270   35.2450   11.7250 O.3   201  GNP201     -0.3111
     14  C5'        9.7770   36.0920   11.8630 C.3   201  GNP201      0.1813
     15  C4'        9.8220   37.1610   10.7840 C.3   201  GNP201      0.1799
     16  O4'        9.8990   36.5240    9.4800 O.3   201  GNP201     -0.3326
     17  C3'        8.6150   38.0990   10.7380 C.3   201  GNP201      0.2158
     18  O3'        9.0260   39.4360   10.4350 O.3   201  GNP201     -0.2175
     19  C2'        7.7660   37.5230    9.6100 C.3   201  GNP201      0.2310
     20  O2'        7.0070   38.4990    8.9300 O.3   201  GNP201     -0.2158
     21  C1'        8.8410   37.0140    8.6660 C.3   201  GNP201      0.2293
     22  N9         8.3750   35.9130    7.8380 N.pl3 201  GNP201     -0.2354
     23  C8         7.9080   34.7100    8.3030 C.3   201  GNP201      0.2246
     24  N7         7.5780   33.8970    7.3440 N.2   201  GNP201     -0.2322
     25  C5         7.8340   34.6080    6.1850 C.2   201  GNP201      0.2182
     26  C6         7.6650   34.2240    4.8410 C.1   201  GNP201      0.2372
     27  O6         7.2330   33.1480    4.4090 O.2   201  GNP201     -0.2069
     28  N1         8.0500   35.2270    3.9590 N.2   201  GNP201     -0.2485
     29  C2         8.5460   36.4640    4.3400 C.1   201  GNP201      0.2531
     30  N2         8.8680   37.3060    3.3490 N.pl3 201  GNP201     -0.0226
     31  N3         8.7170   36.8320    5.5990 N.2   201  GNP201     -0.3074
     32  C4         8.3320   35.8590    6.4660 C.2   201  GNP201      0.2300
@<TRIPOS>BOND
     1    30    29    1
     2    28    29    2
     3    28    26    2
     4    29    31    2
     5    27    26    2
     6    26    25    1
     7    31    32    2
     8    25    32    1
     9    25    24    2
    10    32    22    1
    11    24    23    1
    12    22    23    1
    13    22    21    1
    14    21    16    1
    15    21    19    1
    16    20    19    1
    17    16    15    1
    18    19    17    1
    19    18    17    1
    20    17    15    1
    21    15    14    1
    22    13    14    1
    23    13    10    1
    24    11    10    2
    25    10     9    1
    26    10    12    1
    27     9     6    1
    28     7     6    2
    29     6     8    1
    30     6     5    1
    31     5     1    1
    32     4     1    2
    33     1     3    1
    34     1     2    1
