@<TRIPOS>MOLECULE
3k9n_GNP_A_1.pdb
 32 34 0 0 0
SMALL
GASTEIGER

@<TRIPOS>ATOM
      1  PG        16.6290    2.5340   11.3920 P.3   201  GNP201      0.4884
      2  O1G       16.5580    4.0340   11.3620 O.3   201  GNP201     -0.1240
      3  O2G       15.6130    1.8710   10.5210 O.2   201  GNP201     -0.2331
      4  O3G       16.5350    2.1190   12.8420 O.3   201  GNP201     -0.1240
      5  N3B       18.0900    2.1030   10.8910 N.3   201  GNP201     -0.0163
      6  PB        18.5960    0.6190   10.5570 P.3   201  GNP201      0.4669
      7  O1B       19.0450   -0.0660   11.7950 O.3   201  GNP201     -0.1253
      8  O2B       17.5780   -0.1060    9.7990 O.2   201  GNP201     -0.2351
      9  O3A       19.8540    0.7340    9.6880 O.3   201  GNP201     -0.2360
     10  PA        20.0440    0.6300    8.1500 P.3   201  GNP201      0.2220
     11  O1A       19.8960   -0.7560    7.6660 O.3   201  GNP201     -0.4370
     12  O2A       19.2310    1.6700    7.4850 O.2   201  GNP201     -0.5170
     13  O5'       21.5740    0.9690    7.9970 O.3   201  GNP201     -0.3111
     14  C5'       22.2050    2.0530    8.6850 C.3   201  GNP201      0.1813
     15  C4'       23.4070    2.5710    7.8970 C.3   201  GNP201      0.1799
     16  O4'       24.5720    1.7270    8.0720 O.3   201  GNP201     -0.3326
     17  C3'       23.1880    2.6190    6.3900 C.3   201  GNP201      0.2158
     18  O3'       23.8440    3.7530    5.8680 O.3   201  GNP201     -0.2175
     19  C2'       23.8180    1.3160    5.9100 C.3   201  GNP201      0.2310
     20  O2'       24.2490    1.3930    4.5670 O.3   201  GNP201     -0.2158
     21  C1'       25.0100    1.1650    6.8510 C.3   201  GNP201      0.2293
     22  N9        25.3730   -0.2250    7.1320 N.pl3 201  GNP201     -0.2354
     23  C8        24.4970   -1.2290    7.4670 C.3   201  GNP201      0.2246
     24  N7        25.0810   -2.3700    7.6910 N.2   201  GNP201     -0.2322
     25  C5        26.4380   -2.1240    7.5070 C.2   201  GNP201      0.2182
     26  C6        27.5720   -2.9910    7.6210 C.1   201  GNP201      0.2372
     27  O6        27.6040   -4.2000    7.9010 O.2   201  GNP201     -0.2069
     28  N1        28.7730   -2.3270    7.3410 N.2   201  GNP201     -0.2485
     29  C2        28.8510   -0.9880    7.0120 C.1   201  GNP201      0.2531
     30  N2        30.0770   -0.4870    6.7960 N.pl3 201  GNP201     -0.0226
     31  N3        27.8020   -0.1800    6.9090 N.2   201  GNP201     -0.3074
     32  C4        26.6290   -0.8030    7.1670 C.2   201  GNP201      0.2300
@<TRIPOS>BOND
     1    20    19    1
     2    18    17    1
     3    19    17    1
     4    19    21    1
     5    17    15    1
     6    30    29    1
     7    21    22    1
     8    21    16    1
     9    31    29    2
    10    31    32    2
    11    29    28    2
    12    22    32    1
    13    22    23    1
    14    32    25    1
    15    28    26    2
    16    23    24    1
    17    12    10    2
    18    25    26    1
    19    25    24    2
    20    26    27    2
    21    11    10    1
    22    15    16    1
    23    15    14    1
    24    13    10    1
    25    13    14    1
    26    10     9    1
    27     9     6    1
    28     8     6    2
    29     3     1    2
    30     6     5    1
    31     6     7    1
    32     5     1    1
    33     2     1    1
    34     1     4    1
