@<TRIPOS>MOLECULE
3k9q_NAD_O_1.pdb
 44 48 0 0 0
SMALL
GASTEIGER

@<TRIPOS>ATOM
      1  PA        25.4250  -29.2160   30.5940 P.3     0  NAD0        0.2189
      2  O1A       24.3560  -30.1210   30.1490 O.3     0  NAD0       -0.4371
      3  O2A       25.6600  -28.0920   29.6930 O.2     0  NAD0       -0.5170
      4  O5B       26.7990  -30.0210   30.6980 O.3     0  NAD0       -0.3112
      5  C5B       26.8810  -31.4090   30.8920 C.3     0  NAD0        0.1813
      6  C4B       28.0250  -31.8910   30.0140 C.3     0  NAD0        0.1821
      7  O4B       28.5980  -33.0820   30.5460 O.3     0  NAD0       -0.3135
      8  C3B       27.4810  -32.2600   28.6540 C.3     0  NAD0        0.2184
      9  O3B       28.4490  -31.8010   27.7470 O.3     0  NAD0       -0.2174
     10  C2B       27.3740  -33.7770   28.6990 C.3     0  NAD0        0.2570
     11  O2B       27.5840  -34.2840   27.4190 O.3     0  NAD0       -0.2130
     12  C1B       28.4910  -34.1890   29.6680 C.3     0  NAD0        0.3186
     13  N9A       28.2770  -35.4510   30.4090 N.pl3   0  NAD0       -0.1439
     14  C8A       27.0840  -35.9660   30.8760 C.3     0  NAD0        0.3377
     15  N7A       27.2890  -37.1770   31.4530 N.2     0  NAD0       -0.2095
     16  C5A       28.6220  -37.4560   31.3970 C.2     0  NAD0        0.2526
     17  C6A       29.3980  -38.5360   31.8250 C.2     0  NAD0        0.4393
     18  N6A       28.8770  -39.5790   32.4610 N.pl3   0  NAD0        0.2180
     19  N1A       30.7550  -38.5380   31.6040 N.2     0  NAD0        0.0021
     20  C2A       31.3520  -37.4840   30.9470 C.3     0  NAD0        0.5254
     21  N3A       30.5720  -36.4630   30.4890 N.2     0  NAD0       -0.0055
     22  C4A       29.2420  -36.4000   30.7320 C.2     0  NAD0        0.3518
     23  O3        25.1350  -28.7840   32.1110 O.3     0  NAD0       -0.2703
     24  PN        25.6750  -27.4420   32.7850 P.3     0  NAD0        0.2189
     25  O1N       24.6040  -26.4330   32.7190 O.3     0  NAD0       -0.4371
     26  O2N       27.0700  -27.1060   32.3840 O.2     0  NAD0       -0.5170
     27  O5D       25.6660  -27.9220   34.3220 O.3     0  NAD0       -0.3112
     28  C5D       26.6370  -28.8650   34.7570 C.3     0  NAD0        0.1813
     29  C4D       26.6530  -29.0100   36.2830 C.3     0  NAD0        0.1799
     30  O4D       26.9300  -27.7820   36.8930 O.3     0  NAD0       -0.3327
     31  C3D       25.3120  -29.4350   36.8230 C.3     0  NAD0        0.2158
     32  O3D       25.5500  -30.0930   38.0430 O.3     0  NAD0       -0.2175
     33  C2D       24.6370  -28.1170   37.0720 C.3     0  NAD0        0.2309
     34  O2D       23.5670  -28.1600   37.9930 O.3     0  NAD0       -0.2158
     35  C1D       25.8110  -27.3580   37.6450 C.3     0  NAD0        0.2263
     36  N1N       25.6670  -25.8960   37.5360 N.pl3   0  NAD0       -0.2787
     37  C2N       25.0190  -25.2900   36.4900 C.3     0  NAD0        0.1244
     38  C3N       24.9480  -23.9120   36.4660 C.2     0  NAD0        0.0544
     39  C7N       24.3570  -23.2170   35.2970 C.2     0  NAD0        0.2818
     40  O7N       24.2870  -23.9280   34.0760 O.2     0  NAD0       -0.2670
     41  N7N       23.8870  -21.9780   35.4900 N.am    0  NAD0       -0.0839
     42  C4N       25.5310  -23.1450   37.4340 C.2     0  NAD0        0.0033
     43  C5N       26.2050  -23.7580   38.4600 C.2     0  NAD0        0.0157
     44  C6N       26.2740  -25.1380   38.4880 C.2     0  NAD0        0.0633
@<TRIPOS>BOND
     1    11    10    1
     2     9     8    1
     3     8    10    1
     4     8     6    1
     5    10    12    1
     6    12    13    1
     7    12     7    1
     8     3     1    2
     9     6     7    1
    10     6     5    1
    11     2     1    1
    12    13    22    1
    13    13    14    1
    14    21    22    2
    15    21    20    1
    16     1     4    1
    17     1    23    1
    18     4     5    1
    19    22    16    1
    20    14    15    1
    21    20    19    1
    22    16    15    2
    23    16    17    1
    24    19    17    2
    25    17    18    1
    26    23    24    1
    27    26    24    2
    28    25    24    1
    29    24    27    1
    30    40    39    2
    31    27    28    1
    32    28    29    1
    33    39    41   am
    34    39    38    1
    35    29    31    1
    36    29    30    1
    37    38    37    1
    38    38    42    2
    39    37    36    1
    40    31    33    1
    41    31    32    1
    42    30    35    1
    43    33    35    1
    44    33    34    1
    45    42    43    1
    46    36    35    1
    47    36    44    1
    48    43    44    2
