@<TRIPOS>MOLECULE
3k9v_CPS_A_1.pdb
 42 45 0 0 0
SMALL
GASTEIGER

@<TRIPOS>ATOM
      1  C1         5.0280  -24.5900   36.7550 C.3   600  CPS600      0.0026
      2  C2         6.0550  -24.0050   35.7700 C.3   600  CPS600      0.0004
      3  C3         6.6900  -22.2500   37.5250 C.3   600  CPS600      0.0330
      4  C4         6.9160  -20.7610   37.8140 C.3   600  CPS600      0.1519
      5  C5         7.9660  -20.1740   36.8430 C.3   600  CPS600      0.0282
      6  C6         7.4380  -20.3840   35.3990 C.3   600  CPS600      0.0048
      7  C7         8.4250  -19.6160   34.5260 C.3   600  CPS600      0.0002
      8  C8         8.5440  -18.3300   35.3430 C.3   600  CPS600      0.0001
      9  C9         8.0280  -18.6370   36.7660 C.3   600  CPS600      0.0024
     10  C10        9.3470  -20.7840   37.1490 C.3   600  CPS600      0.0025
     11  C11        7.3760  -24.7650   35.9690 C.3   600  CPS600      0.0000
     12  C12        3.5780  -24.1720   36.4830 C.3   600  CPS600      0.0329
     13  C13        3.1450  -24.5360   35.0630 C.3   600  CPS600      0.1520
     14  C14        4.1180  -23.9470   34.0260 C.3   600  CPS600      0.0330
     15  C15        5.6040  -24.2440   34.3110 C.3   600  CPS600      0.0050
     16  C16        6.4870  -23.5120   33.2730 C.3   600  CPS600      0.0330
     17  C17        6.7690  -22.0360   33.5910 C.3   600  CPS600      0.1519
     18  C18        7.2450  -21.8650   35.0470 C.3   600  CPS600      0.0306
     19  C19        6.2630  -22.4990   36.0630 C.3   600  CPS600      0.0050
     20  C20        8.8620  -17.9540   37.8700 C.3   600  CPS600      0.0006
     21  C21        8.2770  -18.0800   39.2870 C.3   600  CPS600      0.0000
     22  C22        9.1150  -16.4750   37.5570 C.3   600  CPS600      0.0096
     23  C23        7.8820  -15.5770   37.7270 C.3   600  CPS600      0.0868
     24  C24        8.3210  -14.1410   37.5670 C.2   600  CPS600      0.2414
     25  C25        9.6180  -12.3630   38.6580 C.3   600  CPS600      0.1130
     26  C26        8.7900  -11.9210   39.8630 C.3   600  CPS600      0.0012
     27  C27        9.2710  -10.5730   40.4210 C.3   600  CPS600     -0.0714
     28  C28        7.4330  -10.6640   42.0630 C.3   600  CPS600     -0.0959
     29  C29        9.0150   -8.8620   42.1170 C.3   600  CPS600     -0.0959
     30  C30        9.6670  -11.1560   42.8380 C.3   600  CPS600     -0.0715
     31  C31       11.1970  -11.1960   42.6670 C.3   600  CPS600     -0.0007
     32  C32       11.8950  -11.6200   43.9670 C.3   600  CPS600      0.1031
     33  N1         9.2410  -13.7460   38.3860 N.am  600  CPS600     -0.2055
     34  N2         8.8770  -10.3290   41.8530 N.4   600  CPS600      0.3872
     35  O1         7.7350  -13.4250   36.6040 O.2   600  CPS600     -0.2733
     36  O2         1.8520  -23.9660   34.8280 O.3   600  CPS600     -0.2232
     37  O3         5.6260  -21.2080   33.2910 O.3   600  CPS600     -0.2232
     38  O4         5.6750  -20.0410   37.7180 O.3   600  CPS600     -0.2232
     39  O2S       14.2600  -12.3310   45.2500 O.3   600  CPS600     -0.3075
     40  O3S       14.2950  -11.8460   42.5190 O.3   600  CPS600     -0.3075
     41  O1S       13.9490   -9.7690   44.3460 O.3   600  CPS600     -0.3075
     42  S         13.5890  -11.3970   44.0030 S.3   600  CPS600     -0.1961
@<TRIPOS>BOND
     1    16    17    1
     2    16    15    1
     3    37    17    1
     4    17    18    1
     5    14    15    1
     6    14    13    1
     7    15     2    1
     8     7     8    1
     9     7     6    1
    10    36    13    1
    11    18     6    1
    12    18    19    1
    13    13    12    1
    14     8     9    1
    15     6     5    1
    16     2    11    1
    17     2    19    1
    18     2     1    1
    19    19     3    1
    20    12     1    1
    21    35    24    2
    22     9     5    1
    23     9    20    1
    24     5    10    1
    25     5     4    1
    26     3     4    1
    27    22    23    1
    28    22    20    1
    29    24    23    1
    30    24    33   am
    31    38     4    1
    32    20    21    1
    33    33    25    1
    34    25    26    1
    35    26    27    1
    36    27    34    1
    37    34    28    1
    38    34    29    1
    39    34    30    1
    40    40    42    1
    41    31    30    1
    42    31    32    1
    43    32    42    1
    44    42    41    1
    45    42    39    1
