@<TRIPOS>MOLECULE
3k9v_HEM_A_1.pdb
 43 50 0 0 0
SMALL
GASTEIGER

@<TRIPOS>ATOM
      1  CHA        7.7080  -28.3910   36.8960 C.2   520  HEM520      0.0000
      2  CHB        6.3000  -26.9010   41.3570 C.2   520  HEM520      0.0000
      3  CHC       10.9810  -26.8210   42.7090 C.2   520  HEM520      0.0000
      4  CHD       12.2110  -28.1040   38.0550 C.2   520  HEM520      0.0000
      5  C1A        6.9000  -27.8760   38.0440 C.2   520  HEM520      0.0000
      6  C2A        5.4010  -27.8150   38.0660 C.2   520  HEM520      0.0000
      7  C3A        5.0640  -27.6160   39.3370 C.2   520  HEM520      0.0000
      8  C4A        6.3050  -27.3020   40.1040 C.2   520  HEM520      0.0000
      9  CMA        3.6600  -27.4250   39.8670 C.3   520  HEM520      0.0000
     10  CAA        4.4950  -28.2390   36.9200 C.3   520  HEM520      0.0000
     11  CBA        4.0910  -29.7070   37.0770 C.3   520  HEM520      0.0000
     12  CGA        2.9400  -30.1320   36.1830 C.2   520  HEM520      0.0000
     13  O1A        2.4270  -31.2300   36.3700 O.co2 520  HEM520      0.0000
     14  O2A        2.4810  -29.3630   35.1930 O.co2 520  HEM520      0.0000
     15  C1B        7.5320  -26.8010   42.1690 C.ar  520  HEM520      0.0000
     16  C2B        7.5030  -26.2610   43.3770 C.ar  520  HEM520      0.0000
     17  C3B        8.9010  -26.3400   43.9100 C.ar  520  HEM520      0.0000
     18  C4B        9.6570  -26.8360   42.7310 C.ar  520  HEM520      0.0000
     19  CMB        6.2630  -26.1310   44.2220 C.3   520  HEM520      0.0000
     20  CAB        9.4280  -25.6220   44.8950 C.3   520  HEM520      0.0000
     21  CBB        9.2370  -25.9960   46.3430 C.3   520  HEM520      0.0000
     22  C1C       11.7380  -27.3730   41.5750 C.2   520  HEM520      0.0000
     23  C2C       13.0530  -27.5620   41.5900 C.2   520  HEM520      0.0000
     24  C3C       13.3930  -27.8430   40.1800 C.2   520  HEM520      0.0000
     25  C4C       12.2450  -27.8890   39.5170 C.2   520  HEM520      0.0000
     26  CMC       13.9390  -27.8910   42.7760 C.3   520  HEM520      0.0000
     27  CAC       14.7660  -28.0710   39.6560 C.2   520  HEM520      0.0000
     28  CBC       15.5690  -28.9800   40.1990 C.2   520  HEM520      0.0000
     29  C1D       11.1090  -28.3610   37.3910 C.ar  520  HEM520      0.0000
     30  C2D       11.0730  -28.4110   35.9040 C.ar  520  HEM520      0.0000
     31  C3D        9.7940  -28.5200   35.5620 C.ar  520  HEM520      0.0000
     32  C4D        9.0180  -28.2490   36.8150 C.ar  520  HEM520      0.0000
     33  CMD       12.2800  -28.4580   34.9840 C.3   520  HEM520      0.0000
     34  CAD        9.2070  -29.0250   34.2390 C.3   520  HEM520      0.0000
     35  CBD        9.2850  -30.5520   34.1270 C.3   520  HEM520      0.0000
     36  CGD        8.8710  -31.0450   32.7460 C.2   520  HEM520      0.0000
     37  O1D        9.1780  -32.1630   32.3570 O.co2 520  HEM520      0.0000
     38  O2D        8.1540  -30.2930   31.9250 O.co2 520  HEM520      0.0000
     39  NA         7.3770  -27.3700   39.3080 N.2   520  HEM520      0.0000
     40  NB         8.7840  -26.7980   41.6960 N.ar  520  HEM520      0.0000
     41  NC        11.2440  -27.4780   40.3290 N.2   520  HEM520      0.0000
     42  ND         9.8710  -28.1170   37.8300 N.ar  520  HEM520      0.0000
     43 FE          9.3090  -27.6910   39.7380 Fe    520  HEM520      0.0000
@<TRIPOS>BOND
     1    38    36   ar
     2    37    36   ar
     3    36    35    1
     4    35    34    1
     5    34    31    1
     6    33    30    1
     7    14    12   ar
     8    31    30   ar
     9    31    32   ar
    10    30    29   ar
    11    12    13   ar
    12    12    11    1
    13    32     1    2
    14    32    42   ar
    15     1     5    1
    16    10    11    1
    17    10     6    1
    18    29    42   ar
    19    29     4    2
    20    42    43    1
    21     5     6    1
    22     5    39    2
    23     4    25    1
    24     6     7    2
    25    39    43    1
    26    39     8    1
    27     7     9    1
    28     7     8    1
    29    25    24    1
    30    25    41    2
    31    27    24    1
    32    27    28    2
    33    43    41    1
    34    43    40    1
    35     8     2    2
    36    24    23    2
    37    41    22    1
    38     2    15    1
    39    22    23    1
    40    22     3    2
    41    23    26    1
    42    40    15   ar
    43    40    18   ar
    44    15    16   ar
    45     3    18    1
    46    18    17   ar
    47    16    17   ar
    48    16    19    1
    49    17    20    1
    50    20    21    1
