@<TRIPOS>MOLECULE
3k9w_ADE_A_1.pdb
 10 11 0 0 0
SMALL
GASTEIGER

@<TRIPOS>ATOM
      1  N9       -22.2350   39.3660  -21.5090 N.2   168  ADE168     -0.1914
      2  C8       -21.4120   38.4490  -22.1010 C.3   168  ADE168      0.2618
      3  N7       -20.6400   38.9650  -23.0300 N.2   168  ADE168     -0.2267
      4  C5       -20.9780   40.3090  -23.0430 C.2   168  ADE168      0.2303
      5  C6       -20.5160   41.4040  -23.8080 C.2   168  ADE168      0.4393
      6  N6       -19.5740   41.2860  -24.7490 N.pl3 168  ADE168      0.2185
      7  N1       -21.0660   42.6210  -23.5730 N.2   168  ADE168     -0.0265
      8  C2       -22.0190   42.7310  -22.6310 C.3   168  ADE168      0.4008
      9  N3       -22.5300   41.7710  -21.8560 N.2   168  ADE168     -0.1640
     10  C4       -21.9630   40.5770  -22.1100 C.1   168  ADE168      0.0579
@<TRIPOS>BOND
     1     6     5    1
     2     5     7    2
     3     5     4    1
     4     7     8    1
     5     4     3    2
     6     4    10    1
     7     3     2    1
     8     8     9    1
     9    10     9    2
    10    10     1    2
    11     2     1    1
