@<TRIPOS>MOLECULE
3k9w_4PS_A_1.pdb
 26 25 0 0 0
SMALL
GASTEIGER

@<TRIPOS>ATOM
      1  O19      -22.1190   37.6000  -18.0280 O.3   167  4PS167     -0.1143
      2  P20      -21.7290   36.1500  -17.4680 P.3   167  4PS167      0.5373
      3  O21      -21.6690   35.1420  -18.5990 O.2   167  4PS167     -0.2221
      4  O22      -20.4950   36.2990  -16.6120 O.3   167  4PS167     -0.1143
      5  O23      -22.9670   35.7910  -16.4910 O.3   167  4PS167     -0.2261
      6  P24      -23.7380   34.3960  -16.3360 P.3   167  4PS167      0.2230
      7  O25      -24.6210   34.2390  -17.5260 O.2   167  4PS167     -0.5169
      8  O26      -22.7330   33.3380  -15.9200 O.3   167  4PS167     -0.4370
      9  O27      -24.6570   34.8040  -15.0840 O.3   167  4PS167     -0.3137
     10  C28      -25.6460   33.9000  -14.6150 C.3   167  4PS167      0.1519
     11  C29      -25.8870   34.1460  -13.1370 C.3   167  4PS167      0.0645
     12  C30      -24.5620   33.9300  -12.4030 C.3   167  4PS167      0.0056
     13  C31      -26.4020   35.5730  -12.9470 C.3   167  4PS167      0.0056
     14  C32      -26.9250   33.1230  -12.6780 C.3   167  4PS167      0.2312
     15  O33      -26.4290   31.7820  -12.9250 O.3   167  4PS167     -0.2131
     16  C34      -27.2840   33.2680  -11.2190 C.2   167  4PS167      0.2719
     17  O35      -28.1110   34.1080  -10.8860 O.2   167  4PS167     -0.2706
     18  N36      -26.6640   32.4430  -10.3730 N.am  167  4PS167     -0.2028
     19  C37      -26.8970   32.4650   -8.9320 C.3   167  4PS167      0.1248
     20  C38      -27.8250   31.3510   -8.4500 C.3   167  4PS167      0.1102
     21  C39      -29.2640   31.6030   -8.8370 C.2   167  4PS167      0.2432
     22  O40      -29.9470   32.3990   -8.2110 O.2   167  4PS167     -0.2733
     23  N41      -29.7530   30.9100   -9.8700 N.am  167  4PS167     -0.2044
     24  C42      -31.1080   31.1410  -10.3540 C.3   167  4PS167      0.1276
     25  C43      -31.0950   32.0680  -11.5590 C.3   167  4PS167      0.0920
     26  S44      -32.7880   32.2830  -12.1870 S.3   167  4PS167     -0.0802
@<TRIPOS>BOND
     1     3     2    2
     2     1     2    1
     3     7     6    2
     4     2     4    1
     5     2     5    1
     6     5     6    1
     7     6     8    1
     8     6     9    1
     9     9    10    1
    10    10    11    1
    11    11    13    1
    12    11    14    1
    13    11    12    1
    14    15    14    1
    15    14    16    1
    16    26    25    1
    17    25    24    1
    18    16    17    2
    19    16    18   am
    20    18    19    1
    21    24    23    1
    22    23    21   am
    23    19    20    1
    24    21    20    1
    25    21    22    2
