@<TRIPOS>MOLECULE
3k9x_MBM_B_1.pdb
 38 42 0 0 0
SMALL
GASTEIGER

@<TRIPOS>ATOM
      1  C         -3.4890    8.5340   24.8720 C.ar    1  MBM1        0.0989
      2  N          3.0780    6.0130   25.5820 N.pl3   1  MBM1       -0.0680
      3  O          0.8180    6.3350   24.0420 O.2     1  MBM1       -0.2483
      4  C1        -2.9220    7.9800   23.7230 C.ar    1  MBM1        0.0209
      5  N1        -2.8700    8.5350   26.0810 N.ar    1  MBM1       -0.2421
      6  O1         8.3070    4.7780   26.6490 O.2     1  MBM1       -0.4577
      7  C2        -1.6400    7.4410   23.8270 C.ar    1  MBM1        0.0093
      8  N2         1.1840    7.4420   26.0400 N.am    1  MBM1        0.0062
      9  O2         3.9920   12.6780   28.3460 O.2     1  MBM1       -0.2730
     10  C3         2.3670    6.8890   26.3660 C.2     1  MBM1        0.4569
     11  N3         2.9510    7.4920   27.4810 N.pl3   1  MBM1       -0.0877
     12  O3         4.5110    8.9200   28.7340 O.2     1  MBM1       -0.2711
     13  C4         0.4170    6.9750   25.0120 C.2     1  MBM1        0.3435
     14  N4         5.4050   13.2200   29.9820 N.am    1  MBM1       -0.2781
     15  C5        -1.6150    8.0060   26.1600 C.ar    1  MBM1        0.1050
     16  N5         2.9600   10.5040   29.4180 N.am    1  MBM1       -0.2685
     17  C6        -0.9680    7.4740   25.0490 C.ar    1  MBM1        0.0919
     18  C7         8.8510    4.8850   25.3750 C.ar    1  MBM1        0.1233
     19  C8         7.8950    5.2090   24.4340 C.ar    1  MBM1        0.0361
     20  C9        10.3080    4.6970   25.2640 C.3     1  MBM1        0.0725
     21  C10        4.3890    5.6510   25.9040 C.ar    1  MBM1        0.1590
     22  C11        5.3300    5.6960   24.8320 C.ar    1  MBM1        0.0402
     23  C12        6.6380    5.3730   25.1750 C.ar    1  MBM1        0.0402
     24  C13        4.7240    5.3750   27.2480 C.ar    1  MBM1        0.0402
     25  C14        6.0590    5.0650   27.5920 C.ar    1  MBM1        0.0405
     26  C15        6.9590    5.0690   26.5430 C.ar    1  MBM1        0.1450
     27  C16        5.8440   14.4190   29.2670 C.3     1  MBM1        0.0935
     28  C17        4.0080   11.1810   30.2320 C.3     1  MBM1        0.1794
     29  C18        4.3940   12.4460   29.4730 C.2     1  MBM1        0.2459
     30  C19        6.1930   12.9310   31.2040 C.3     1  MBM1        0.0935
     31  C20        7.0860   14.8790   30.0230 C.3     1  MBM1        0.0233
     32  C21        7.0700   14.2050   31.3690 C.3     1  MBM1        0.0233
     33  C22        1.2450    7.9250   29.2070 C.3     1  MBM1        0.0529
     34  C23        3.3330    9.3290   28.7980 C.2     1  MBM1        0.2660
     35  C24        2.2000    8.5680   28.1720 C.3     1  MBM1        0.2559
     36  C25        1.5500   10.9460   29.5640 C.3     1  MBM1        0.0940
     37  C26        0.1100    8.8470   29.7170 C.3     1  MBM1        0.0059
     38  C27        0.6990   10.0380   30.4980 C.3     1  MBM1        0.0216
@<TRIPOS>BOND
     1     4     7   ar
     2     4     1   ar
     3     7    17   ar
     4     3    13    2
     5    19    23   ar
     6    19    18   ar
     7    22    23   ar
     8    22    21   ar
     9     1     5   ar
    10    13    17    1
    11    13     8    1
    12    17    15   ar
    13    23    26   ar
    14    20    18    1
    15    18     6   ar
    16     2    21    1
    17     2    10    1
    18    21    24   ar
    19     8    10    2
    20     5    15   ar
    21    10    11    1
    22    26     6   ar
    23    26    25   ar
    24    24    25   ar
    25    11    35    1
    26    35    34    1
    27    35    33    1
    28     9    29    2
    29    12    34    2
    30    34    16   am
    31    33    37    1
    32    27    14    1
    33    27    31    1
    34    16    36    1
    35    16    28    1
    36    29    14   am
    37    29    28    1
    38    36    38    1
    39    37    38    1
    40    14    30    1
    41    31    32    1
    42    30    32    1
