@<TRIPOS>MOLECULE
3k9y_CM5_A_1.pdb
 34 36 0 0 0
SMALL
GASTEIGER

@<TRIPOS>ATOM
      1  C7        -0.0720  -10.6190   31.4580 C.3   516  CM5516      0.0000
      2  C8         0.1000   -9.1600   31.0330 C.3   516  CM5516      0.0000
      3  C9         1.4830   -8.8710   30.4440 C.3   516  CM5516      0.0000
      4  C10        2.5580   -9.2510   31.4650 C.3   516  CM5516      0.0000
      5  C11        2.3670  -10.6700   31.9980 C.3   516  CM5516      0.0000
      6  C6         1.2370  -11.3790   31.2430 C.3   516  CM5516      0.0000
      7  C5         1.1440  -12.7890   31.8280 C.3   516  CM5516      0.0000
      8  C4        -0.0970  -13.6030   31.4650 C.3   516  CM5516      0.0001
      9  C3         0.4570  -14.9920   31.1600 C.3   516  CM5516      0.0026
     10  C2         0.9470  -15.6160   32.4670 C.3   516  CM5516      0.0322
     11  C1         2.1060  -16.6040   32.3200 C.3   516  CM5516      0.1449
     12  O12        3.3600  -15.9260   32.1310 O.3   516  CM5516     -0.3286
     13  C13        4.0070  -15.3830   33.2940 C.3   516  CM5516      0.2695
     14  C18        3.0390  -14.5590   34.1360 C.3   516  CM5516      0.2404
     15  O22        2.6210  -15.3120   35.2830 O.3   516  CM5516     -0.2149
     16  C17        3.9740  -13.4490   34.6010 C.3   516  CM5516      0.2167
     17  O21        3.3690  -12.4430   35.4180 O.3   516  CM5516     -0.2175
     18  O14        4.6630  -16.2950   34.1950 O.3   516  CM5516     -0.3257
     19  C15        5.1200  -15.6710   35.4170 C.3   516  CM5516      0.1803
     20  C19        6.5540  -16.1040   35.7400 C.3   516  CM5516      0.2141
     21  O20        7.4640  -15.5780   34.7660 O.3   516  CM5516     -0.2176
     22  C16        5.0970  -14.1420   35.3680 C.3   516  CM5516      0.1804
     23  O23        5.3760  -13.3850   36.5530 O.3   516  CM5516     -0.3257
     24  C24        6.7210  -13.0780   36.1760 C.3   516  CM5516      0.2695
     25  O25        7.5560  -13.5420   37.2530 O.3   516  CM5516     -0.3256
     26  C26        8.1410  -12.4920   38.0360 C.3   516  CM5516      0.1835
     27  C30        8.7000  -12.9270   39.3900 C.3   516  CM5516      0.2142
     28  O31       10.0710  -13.3350   39.2970 O.3   516  CM5516     -0.2176
     29  C27        7.2780  -11.2350   38.1050 C.3   516  CM5516      0.2144
     30  O32        7.9160  -10.2680   38.9550 O.3   516  CM5516     -0.2176
     31  C28        7.3480  -10.6980   36.6740 C.3   516  CM5516      0.2198
     32  O33        6.6070   -9.4890   36.5560 O.3   516  CM5516     -0.2174
     33  C29        6.9230  -11.6880   35.5810 C.3   516  CM5516      0.2406
     34  O34        5.7120  -11.1890   34.9910 O.3   516  CM5516     -0.2149
@<TRIPOS>BOND
     1     3     2    1
     2     3     4    1
     3     2     1    1
     4     9     8    1
     5     9    10    1
     6     6     1    1
     7     6     7    1
     8     6     5    1
     9     4     5    1
    10     8     7    1
    11    12    11    1
    12    12    13    1
    13    11    10    1
    14    13    14    1
    15    13    18    1
    16    14    16    1
    17    14    15    1
    18    18    19    1
    19    16    22    1
    20    16    17    1
    21    21    20    1
    22    34    33    1
    23    22    19    1
    24    22    23    1
    25    19    20    1
    26    33    24    1
    27    33    31    1
    28    24    23    1
    29    24    25    1
    30    32    31    1
    31    31    29    1
    32    25    26    1
    33    26    29    1
    34    26    27    1
    35    29    30    1
    36    28    27    1
