@<TRIPOS>MOLECULE
3k9y_HEM_A_1.pdb
 43 50 0 0 0
SMALL
GASTEIGER

@<TRIPOS>ATOM
      1  CHA        7.5000  -29.3850   37.1800 C.2   520  HEM520      0.0000
      2  CHB        6.4880  -27.8420   41.5010 C.2   520  HEM520      0.0000
      3  CHC       10.9790  -27.9840   42.8090 C.2   520  HEM520      0.0000
      4  CHD       12.0460  -28.9840   38.3690 C.2   520  HEM520      0.0000
      5  C1A        6.7220  -29.0290   38.2960 C.2   520  HEM520      0.0000
      6  C2A        5.3030  -29.0210   38.4180 C.2   520  HEM520      0.0000
      7  C3A        5.0550  -28.6670   39.7280 C.2   520  HEM520      0.0000
      8  C4A        6.2930  -28.4790   40.3290 C.2   520  HEM520      0.0000
      9  CMA        3.6580  -28.5030   40.4340 C.3   520  HEM520      0.0000
     10  CAA        4.2370  -29.3350   37.3440 C.3   520  HEM520      0.0000
     11  CBA        3.7850  -30.7710   37.2530 C.3   520  HEM520      0.0000
     12  CGA        2.6910  -31.0250   36.2200 C.2   520  HEM520      0.0000
     13  O1A        1.5680  -31.3850   36.6090 O.co2 520  HEM520      0.0000
     14  O2A        2.8940  -30.8600   35.0160 O.co2 520  HEM520      0.0000
     15  C1B        7.5460  -27.8970   42.3600 C.ar  520  HEM520      0.0000
     16  C2B        7.5120  -27.5800   43.7120 C.ar  520  HEM520      0.0000
     17  C3B        8.8890  -27.4910   44.1020 C.ar  520  HEM520      0.0000
     18  C4B        9.6100  -27.7760   42.9050 C.ar  520  HEM520      0.0000
     19  CMB        6.2300  -27.3970   44.4880 C.3   520  HEM520      0.0000
     20  CAB        9.4750  -27.1880   45.3850 C.3   520  HEM520      0.0000
     21  CBB        8.8350  -26.9410   46.7130 C.3   520  HEM520      0.0000
     22  C1C       11.7200  -28.5540   41.8010 C.2   520  HEM520      0.0000
     23  C2C       13.0970  -28.6060   41.7870 C.2   520  HEM520      0.0000
     24  C3C       13.4670  -28.9330   40.4480 C.2   520  HEM520      0.0000
     25  C4C       12.2410  -29.0510   39.7510 C.2   520  HEM520      0.0000
     26  CMC       14.0320  -28.3490   43.0070 C.3   520  HEM520      0.0000
     27  CAC       14.6720  -29.1190   39.8260 C.3   520  HEM520      0.0000
     28  CBC       15.6120  -30.1800   39.9190 C.3   520  HEM520      0.0000
     29  C1D       10.9480  -29.2910   37.6560 C.ar  520  HEM520      0.0000
     30  C2D       10.9300  -29.5900   36.2970 C.ar  520  HEM520      0.0000
     31  C3D        9.6250  -29.7620   35.9330 C.ar  520  HEM520      0.0000
     32  C4D        8.8860  -29.5560   37.1170 C.ar  520  HEM520      0.0000
     33  CMD       12.1360  -29.7090   35.3690 C.3   520  HEM520      0.0000
     34  CAD        9.0750  -30.1090   34.5250 C.3   520  HEM520      0.0000
     35  CBD        8.9640  -31.6410   34.2860 C.3   520  HEM520      0.0000
     36  CGD        8.4290  -32.0570   32.9150 C.2   520  HEM520      0.0000
     37  O1D        9.1770  -32.4870   32.0560 O.co2 520  HEM520      0.0000
     38  O2D        7.2150  -31.9250   32.6950 O.co2 520  HEM520      0.0000
     39  NA         7.2790  -28.6840   39.5200 N.2   520  HEM520      0.0000
     40  NB         8.7630  -28.0090   41.9030 N.ar  520  HEM520      0.0000
     41  NC        11.2130  -28.8210   40.5860 N.2   520  HEM520      0.0000
     42  ND         9.7440  -29.2740   38.1350 N.ar  520  HEM520      0.0000
     43 FE          9.2540  -28.6900   40.0450 Fe    520  HEM520      0.0000
@<TRIPOS>BOND
     1    37    36   ar
     2    38    36   ar
     3    36    35    1
     4    35    34    1
     5    34    31    1
     6    14    12   ar
     7    33    30    1
     8    31    30   ar
     9    31    32   ar
    10    12    13   ar
    11    12    11    1
    12    30    29   ar
    13    32     1    2
    14    32    42   ar
    15     1     5    1
    16    11    10    1
    17    10     6    1
    18    29    42   ar
    19    29     4    2
    20    42    43    1
    21     5     6    1
    22     5    39    2
    23     4    25    1
    24     6     7    2
    25    39    43    1
    26    39     8    1
    27     7     8    1
    28     7     9    1
    29    25    24    1
    30    25    41    2
    31    27    28    1
    32    27    24    1
    33    43    41    1
    34    43    40    1
    35     8     2    2
    36    24    23    2
    37    41    22    1
    38     2    15    1
    39    23    22    1
    40    23    26    1
    41    22     3    2
    42    40    15   ar
    43    40    18   ar
    44    15    16   ar
    45     3    18    1
    46    18    17   ar
    47    16    17   ar
    48    16    19    1
    49    17    20    1
    50    20    21    1
