@<TRIPOS>MOLECULE
3k9z_HEM_A_1.pdb
 43 50 0 0 0
SMALL
GASTEIGER

@<TRIPOS>ATOM
      1  CHA       13.9080   14.9450    9.3070 C.2   155  HEM155      0.0000
      2  CHB       14.6070   17.3380    5.2110 C.2   155  HEM155      0.0000
      3  CHC       14.9490   21.4220    7.6470 C.2   155  HEM155      0.0000
      4  CHD       13.7160   19.1410   11.6110 C.2   155  HEM155      0.0000
      5  C1A       13.9940   15.2220    7.9600 C.ar  155  HEM155      0.0000
      6  C2A       14.1630   14.2150    6.9240 C.ar  155  HEM155      0.0000
      7  C3A       14.3480   14.8700    5.7710 C.ar  155  HEM155      0.0000
      8  C4A       14.4180   16.2840    6.0600 C.ar  155  HEM155      0.0000
      9  CMA       14.4920   14.2530    4.3760 C.3   155  HEM155      0.0000
     10  CAA       14.0600   12.7080    7.2130 C.3   155  HEM155      0.0000
     11  CBA       12.6710   12.1570    6.9060 C.3   155  HEM155      0.0000
     12  CGA       11.5120   13.0510    7.3140 C.2   155  HEM155      0.0000
     13  O1A       11.0200   13.7620    6.3580 O.co2 155  HEM155      0.0000
     14  O2A       11.3210   13.2500    8.5120 O.co2 155  HEM155      0.0000
     15  C1B       14.8010   18.6540    5.5310 C.2   155  HEM155      0.0000
     16  C2B       15.2360   19.6390    4.5570 C.2   155  HEM155      0.0000
     17  C3B       15.5300   20.7670    5.2480 C.2   155  HEM155      0.0000
     18  C4B       15.0770   20.5330    6.5910 C.2   155  HEM155      0.0000
     19  CMB       15.2770   19.3150    3.0700 C.3   155  HEM155      0.0000
     20  CAB       15.6630   22.1830    4.6770 C.3   155  HEM155      0.0000
     21  CBB       16.6780   22.2660    3.5150 C.3   155  HEM155      0.0000
     22  C1C       14.8560   20.9870    8.9740 C.ar  155  HEM155      0.0000
     23  C2C       14.9000   22.0270   10.0390 C.ar  155  HEM155      0.0000
     24  C3C       14.3410   21.4900   11.1120 C.ar  155  HEM155      0.0000
     25  C4C       13.8670   20.1700   10.7280 C.ar  155  HEM155      0.0000
     26  CMC       15.0940   23.4920    9.5830 C.3   155  HEM155      0.0000
     27  CAC       14.2950   21.9630   12.5670 C.3   155  HEM155      0.0000
     28  CBC       14.4400   23.4670   12.8090 C.3   155  HEM155      0.0000
     29  C1D       13.7400   17.8090   11.3410 C.2   155  HEM155      0.0000
     30  C2D       13.5720   16.7780   12.3390 C.2   155  HEM155      0.0000
     31  C3D       13.6230   15.5900   11.7120 C.2   155  HEM155      0.0000
     32  C4D       13.8230   15.8860   10.3120 C.2   155  HEM155      0.0000
     33  CMD       13.3090   17.0650   13.8300 C.3   155  HEM155      0.0000
     34  CAD       13.3990   14.2300   12.3850 C.3   155  HEM155      0.0000
     35  CBD       14.7090   13.6340   12.9470 C.3   155  HEM155      0.0000
     36  CGD       14.5020   12.4250   13.8200 C.2   155  HEM155      0.0000
     37  O1D       14.9400   12.4960   14.9950 O.co2 155  HEM155      0.0000
     38  O2D       14.4930   11.3450   13.1800 O.co2 155  HEM155      0.0000
     39  NA        14.1850   16.4640    7.4120 N.ar  155  HEM155      0.0000
     40  NB        14.9430   19.1820    6.8090 N.2   155  HEM155      0.0000
     41  NC        14.0200   19.9680    9.3720 N.ar  155  HEM155      0.0000
     42  ND        13.8280   17.2580   10.0700 N.2   155  HEM155      0.0000
     43 FE         14.1250   18.2400    8.3750 Fe    155  HEM155      0.0000
@<TRIPOS>BOND
     1    19    16    1
     2    21    20    1
     3     9     7    1
     4    16    17    2
     5    16    15    1
     6    20    17    1
     7     2    15    1
     8     2     8    2
     9    17    18    1
    10    15    40    2
    11     7     8   ar
    12     7     6   ar
    13     8    39   ar
    14    13    12   ar
    15    18    40    1
    16    18     3    2
    17    40    43    1
    18    11    10    1
    19    11    12    1
    20     6    10    1
    21     6     5   ar
    22    12    14   ar
    23    39     5   ar
    24    39    43    1
    25     3    22    1
    26     5     1    2
    27    43    41    1
    28    43    42    1
    29    22    41   ar
    30    22    23   ar
    31     1    32    1
    32    41    25   ar
    33    26    23    1
    34    23    24   ar
    35    42    32    2
    36    42    29    1
    37    32    31    1
    38    25    24   ar
    39    25     4    1
    40    24    27    1
    41    29     4    2
    42    29    30    1
    43    31    30    2
    44    31    34    1
    45    30    33    1
    46    34    35    1
    47    27    28    1
    48    35    36    1
    49    38    36   ar
    50    36    37   ar
