@<TRIPOS>MOLECULE
3ka0_MK3_A_1.pdb
 28 31 0 0 0
SMALL
GASTEIGER

@<TRIPOS>ATOM
      1  C1       229.8000   81.4010  183.6040 C.1   500  MK3500      0.1877
      2  N1       231.0680   81.8190  183.6340 N.2   500  MK3500     -0.3180
      3  O1       235.7980   85.5500  181.3460 O.3   500  MK3500     -0.2866
      4  S1       241.1260   84.1600  181.5110 S.2   500  MK3500     -0.0824
      5  C2       230.3740   79.2930  184.1670 C.2   500  MK3500      0.1159
      6  N2       229.4030   80.1540  183.8600 N.2   500  MK3500     -0.1672
      7  O2       243.9140   83.5430  179.6580 O.2   500  MK3500     -0.2678
      8  C3       231.7060   79.6280  184.2200 C.2   500  MK3500      0.0720
      9  N3       228.8280   82.3420  183.2840 N.pl3 500  MK3500     -0.0345
     10  C4       232.0260   80.9350  183.9380 C.2   500  MK3500      0.2178
     11  N4       233.3870   81.2970  183.9830 N.pl3 500  MK3500     -0.1827
     12  C5       233.9430   82.4130  183.3120 C.ar  500  MK3500      0.0733
     13  N5       244.1510   82.1180  181.4400 N.am  500  MK3500     -0.1993
     14  C6       235.2540   82.3210  182.8940 C.ar  500  MK3500      0.0198
     15  C7       235.9410   83.3180  182.2290 C.ar  500  MK3500      0.0403
     16  C8       235.2320   84.4820  181.9960 C.ar  500  MK3500      0.1957
     17  C9       233.9220   84.6210  182.4110 C.ar  500  MK3500      0.0434
     18  C10      233.2720   83.5930  183.0600 C.ar  500  MK3500      0.0199
     19  C11      237.3000   83.0060  181.8230 C.ar  500  MK3500      0.0036
     20  C12      237.4890   81.7470  181.2950 C.ar  500  MK3500      0.0001
     21  C13      238.6810   81.2250  180.8530 C.ar  500  MK3500      0.0005
     22  C14      238.3900   83.8400  181.9320 C.ar  500  MK3500      0.0066
     23  C15      239.6070   83.3390  181.4930 C.ar  500  MK3500      0.0296
     24  C16      239.7750   82.0590  180.9590 C.ar  500  MK3500      0.0066
     25  C17      241.1220   81.7890  180.5870 C.ar  500  MK3500      0.0116
     26  C18      241.9910   82.8340  180.8230 C.ar  500  MK3500      0.0845
     27  C19      243.4120   82.8930  180.5650 C.2   500  MK3500      0.2709
     28  C20      244.3340   82.4860  182.8300 C.3   500  MK3500      0.1389
@<TRIPOS>BOND
     1     7    27    2
     2    27    26    1
     3    27    13   am
     4    25    26   ar
     5    25    24   ar
     6    26     4   ar
     7    21    24   ar
     8    21    20   ar
     9    24    23   ar
    10    20    19   ar
    11     3    16    1
    12    13    28    1
    13    23     4   ar
    14    23    22   ar
    15    19    22   ar
    16    19    15    1
    17    16    15   ar
    18    16    17   ar
    19    15    14   ar
    20    17    18   ar
    21    14    12   ar
    22    18    12   ar
    23     9     1    1
    24    12    11    1
    25     1     2    2
    26     1     6    2
    27     2    10    2
    28     6     5    1
    29    10    11    1
    30    10     8    1
    31     5     8    2
