@<TRIPOS>MOLECULE
3kaa_PSF_B_1.pdb
 16 15 0 0 0
SMALL
GASTEIGER

@<TRIPOS>ATOM
      1  O2        25.2790  -14.4410   41.6270 O.3   120  PSF120     -0.3112
      2  O1        23.9410  -12.4940   40.8770 O.3   120  PSF120     -0.3119
      3  P         24.0290  -13.5420   42.1020 P.3   120  PSF120      0.2141
      4  O4        24.4210  -12.8030   43.3590 O.3   120  PSF120     -0.4373
      5  O3        22.7900  -14.4080   42.1120 O.2   120  PSF120     -0.5172
      6  C2        25.2530  -15.8680   41.6660 C.3   120  PSF120      0.1846
      7  C3        26.5570  -16.3860   41.0610 C.3   120  PSF120      0.2146
      8  O11       26.6190  -17.8160   41.0860 O.3   120  PSF120     -0.2176
      9  C4        27.7400  -15.7980   41.8240 C.3   120  PSF120      0.2174
     10  O52       28.9450  -16.1840   41.1610 O.3   120  PSF120     -0.2175
     11  N         22.7570  -10.4710   39.1600 N.3   120  PSF120     -0.1181
     12  CA        24.0780  -10.3560   39.7460 C.3   120  PSF120      0.2241
     13  CB        24.1220  -11.0950   41.0770 C.3   120  PSF120      0.1796
     14  C         25.0830  -10.9670   38.8210 C.2   120  PSF120      0.3844
     15  OT1       24.6790  -11.4420   37.7380 O.co2 120  PSF120     -0.2440
     16  OT2       26.2810  -10.9770   39.1710 O.co2 120  PSF120     -0.2440
@<TRIPOS>BOND
     1    15    14   ar
     2    14    16   ar
     3    14    12    1
     4    11    12    1
     5    12    13    1
     6     2    13    1
     7     2     3    1
     8     7     8    1
     9     7     6    1
    10     7     9    1
    11    10     9    1
    12     1     6    1
    13     1     3    1
    14     3     5    2
    15     3     4    1
