@<TRIPOS>MOLECULE
3kab_4BL_A_1.pdb
 13 14 0 0 0
SMALL
GASTEIGER

@<TRIPOS>ATOM
      1  C1        33.2350   25.7730   24.7380 C.2   166  4BL166      0.1925
      2  N2        33.7200   25.6370   26.0040 N.2   166  4BL166     -0.3995
      3  C3        34.2230   25.5250   23.7800 C.3   166  4BL166      0.0945
      4  C4        35.0220   25.3000   25.9990 C.2   166  4BL166      0.1268
      5  C5        31.8280   26.1410   24.4150 C.2   166  4BL166      0.4130
      6  C6        35.3630   25.2220   24.5770 C.2   166  4BL166      0.0107
      7  C7        35.9900   25.0410   26.9580 C.2   166  4BL166      0.0236
      8  O8        31.0240   26.3420   25.3500 O.co2 166  4BL166     -0.2380
      9  C9        36.6550   24.8900   24.1950 C.2   166  4BL166     -0.0231
     10  O10       31.4870   26.2380   23.2160 O.co2 166  4BL166     -0.2380
     11  C11       37.2770   24.7100   26.5420 C.2   166  4BL166     -0.0370
     12  C12       37.6010   24.6370   25.1860 C.3   166  4BL166      0.0478
     13  C13       38.3390   24.4270   27.5720 C.3   166  4BL166      0.0268
@<TRIPOS>BOND
     1    10     5   ar
     2     3     6    1
     3     3     1    1
     4     9     6    2
     5     9    12    1
     6     5     1    1
     7     5     8   ar
     8     6     4    1
     9     1     2    2
    10    12    11    1
    11     4     2    2
    12     4     7    1
    13    11     7    2
    14    11    13    1
