@<TRIPOS>MOLECULE
3kac_4BX_A_1.pdb
 14 15 0 0 0
SMALL
GASTEIGER

@<TRIPOS>ATOM
      1  C1        43.9090    5.9710   -3.4080 C.ar    1  4BX1        0.0028
      2  C2        44.7800    6.1860   -2.3450 C.ar    1  4BX1        0.0028
      3  C3        44.9830    5.1880   -1.3990 C.ar    1  4BX1        0.0357
      4  C4        43.2410    4.7580   -3.5250 C.ar    1  4BX1        0.0357
      5  N5        42.9540    2.5350   -2.4400 N.2     1  4BX1       -0.3410
      6  C6        43.4460    3.7620   -2.5780 C.ar    1  4BX1        0.1738
      7  C7        44.3140    3.9760   -1.5190 C.ar    1  4BX1        0.1738
      8  N8        44.3140    2.8710   -0.7820 N.2     1  4BX1       -0.3410
      9  C9        43.4840    1.9920   -1.3440 C.1     1  4BX1        0.1140
     10  C10       43.1880    0.5860   -0.8170 C.3     1  4BX1        0.1366
     11  C11       43.6770   -0.4810   -1.7980 C.3     1  4BX1        0.1321
     12  C12       42.9710   -1.8160   -1.5530 C.2     1  4BX1        0.3660
     13  O13       42.3060   -2.3420   -2.4430 O.co2   1  4BX1       -0.2456
     14  O14       43.0620   -2.3770   -0.4620 O.co2   1  4BX1       -0.2456
@<TRIPOS>BOND
     1     4     1   ar
     2     4     6   ar
     3     1     2   ar
     4     6     5    2
     5     6     7   ar
     6    13    12   ar
     7     5     9    2
     8     2     3   ar
     9    11    12    1
    10    11    10    1
    11    12    14   ar
    12     7     3   ar
    13     7     8    2
    14     9    10    1
    15     9     8    2
