@<TRIPOS>MOLECULE
3kad_4C0_A_1.pdb
 25 27 0 0 0
SMALL
GASTEIGER

@<TRIPOS>ATOM
      1  C1        31.4660  -15.0670   -0.1880 C.2   164  4C0164     -0.0227
      2  C2        31.9410  -15.3660   -1.4600 C.2   164  4C0164     -0.0227
      3  C3        31.2360  -16.2400   -2.2790 C.3   164  4C0164      0.0880
      4  C4        30.2850  -15.6430    0.2660 C.3   164  4C0164      0.0880
      5  C5        29.5810  -16.5170   -0.5540 C.2   164  4C0164      0.1518
      6  C6        30.0550  -16.8150   -1.8230 C.2   164  4C0164      0.1518
      7  N7        29.1850  -17.6770   -2.3880 N.2   164  4C0164     -0.3453
      8  C8        28.1910  -17.9160   -1.5030 C.1   164  4C0164      0.1150
      9  N9        28.4340  -17.2060   -0.3790 N.2   164  4C0164     -0.3453
     10  C10       27.0080  -18.8260   -1.7310 C.3   164  4C0164      0.1579
     11  C11       25.8530  -18.0210   -2.3130 C.3   164  4C0164      0.2146
     12  N12       26.1370  -17.6710   -3.6920 N.am  164  4C0164     -0.1944
     13  C13       26.4370  -16.4250   -4.0450 C.2   164  4C0164      0.2422
     14  O14       26.4700  -15.4990   -3.2510 O.2   164  4C0164     -0.2733
     15  C15       26.7420  -16.1930   -5.5050 C.3   164  4C0164      0.0915
     16  C16       28.0570  -15.4330   -5.6350 C.3   164  4C0164      0.0360
     17  C17       28.5960  -15.5950   -7.0370 C.ar  164  4C0164     -0.0217
     18  C18       28.2010  -16.6790   -7.8130 C.ar  164  4C0164     -0.0043
     19  C19       28.6970  -16.8280   -9.1030 C.ar  164  4C0164     -0.0003
     20  C20       29.5880  -15.8930   -9.6170 C.ar  164  4C0164     -0.0000
     21  C21       29.9830  -14.8090   -8.8410 C.ar  164  4C0164     -0.0003
     22  C22       29.4870  -14.6600   -7.5510 C.ar  164  4C0164     -0.0043
     23  C23       24.5830  -18.8110   -2.1940 C.2   164  4C0164      0.3854
     24  O24       24.1120  -19.3410   -3.2230 O.co2 164  4C0164     -0.2437
     25  O25       24.0440  -18.9080   -1.0710 O.co2 164  4C0164     -0.2437
@<TRIPOS>BOND
     1    20    19   ar
     2    20    21   ar
     3    19    18   ar
     4    21    22   ar
     5    18    17   ar
     6    22    17   ar
     7    17    16    1
     8    16    15    1
     9    15    13    1
    10    13    12   am
    11    13    14    2
    12    12    11    1
    13    24    23   ar
    14     7     6    2
    15     7     8    2
    16    11    23    1
    17    11    10    1
    18     3     6    1
    19     3     2    1
    20    23    25   ar
    21     6     5    1
    22    10     8    1
    23     8     9    2
    24     2     1    2
    25     5     9    2
    26     5     4    1
    27     1     4    1
