@<TRIPOS>MOLECULE
3kaf_4D9_A_1.pdb
 26 29 0 0 0
SMALL
GASTEIGER

@<TRIPOS>ATOM
      1  C1        39.4250  -18.6440   13.8430 C.ar  164  4D9164      0.0357
      2  C2        39.5920  -20.0110   13.6630 C.ar  164  4D9164      0.0028
      3  C3        39.3950  -20.5720   12.3980 C.ar  164  4D9164      0.0028
      4  C4        39.0440  -19.8190   11.2720 C.ar  164  4D9164      0.0357
      5  N5        38.8480  -16.5370   12.6120 N.2   164  4D9164     -0.3410
      6  C6        39.0750  -17.8420   12.7620 C.ar  164  4D9164      0.1738
      7  C7        38.8810  -18.4580   11.4310 C.ar  164  4D9164      0.1738
      8  N8        38.5540  -17.4610   10.6150 N.2   164  4D9164     -0.3410
      9  C9        38.5370  -16.3020   11.3270 C.1   164  4D9164      0.1158
     10  C10       38.2230  -14.9440   10.7320 C.3   164  4D9164      0.1579
     11  C11       39.4590  -14.0650   10.4470 C.3   164  4D9164      0.2149
     12  C12       38.9880  -12.7680    9.8200 C.2   164  4D9164      0.3854
     13  N13       40.5630  -14.6250    9.6610 N.am  164  4D9164     -0.1902
     14  O14       38.7250  -12.7230    8.5820 O.co2 164  4D9164     -0.2437
     15  O15       38.8700  -11.7700   10.5820 O.co2 164  4D9164     -0.2437
     16  C16       40.8110  -15.8950    9.2800 C.2   164  4D9164      0.2713
     17  C17       40.5640  -16.2580    7.8460 C.ar  164  4D9164      0.0845
     18  O18       41.2420  -16.7450   10.0490 O.2   164  4D9164     -0.2678
     19  C19       40.0610  -15.4570    6.7990 C.ar  164  4D9164      0.0116
     20  S20       40.9320  -17.9190    7.3540 S.2   164  4D9164     -0.0824
     21  C21       40.4510  -17.6430    5.7510 C.ar  164  4D9164      0.0296
     22  C22       39.9910  -16.2320    5.5810 C.ar  164  4D9164      0.0066
     23  C23       39.5440  -15.7990    4.3260 C.ar  164  4D9164      0.0005
     24  C24       39.5440  -16.7200    3.2730 C.ar  164  4D9164      0.0000
     25  C25       39.9870  -18.0550    3.4450 C.ar  164  4D9164      0.0005
     26  C26       40.4550  -18.5410    4.6780 C.ar  164  4D9164      0.0065
@<TRIPOS>BOND
     1    24    25   ar
     2    24    23   ar
     3    25    26   ar
     4    23    22   ar
     5    26    21   ar
     6    22    21   ar
     7    22    19   ar
     8    21    20   ar
     9    19    17   ar
    10    20    17   ar
    11    17    16    1
    12    14    12   ar
    13    16    13   am
    14    16    18    2
    15    13    11    1
    16    12    11    1
    17    12    15   ar
    18    11    10    1
    19     8     9    2
    20     8     7    2
    21    10     9    1
    22     4     7   ar
    23     4     3   ar
    24     9     5    2
    25     7     6   ar
    26     3     2   ar
    27     5     6    2
    28     6     1   ar
    29     2     1   ar
