@<TRIPOS>MOLECULE
3kag_4D7_A_1.pdb
 23 25 0 0 0
SMALL
GASTEIGER

@<TRIPOS>ATOM
      1  C1       -31.6940   24.2470   26.6670 C.ar  164  4D7164      0.0028
      2  C2       -31.6130   23.7120   25.3860 C.ar  164  4D7164      0.0028
      3  C3       -32.6650   23.8830   24.4930 C.ar  164  4D7164      0.0357
      4  C4       -32.8260   24.9520   27.0570 C.ar  164  4D7164      0.0357
      5  N5       -35.0510   25.7340   26.2590 N.2   164  4D7164     -0.3410
      6  C6       -33.8760   25.1210   26.1630 C.ar  164  4D7164      0.1738
      7  C7       -33.7960   24.5890   24.8860 C.ar  164  4D7164      0.1738
      8  N8       -34.9260   24.9010   24.2590 N.2   164  4D7164     -0.3410
      9  C9       -35.6910   25.5990   25.0970 C.1   164  4D7164      0.1158
     10  C10      -37.0800   26.1570   24.7780 C.3   164  4D7164      0.1579
     11  C11      -36.9790   27.5190   24.0880 C.3   164  4D7164      0.2149
     12  C12      -38.3560   28.1850   24.0690 C.2   164  4D7164      0.3854
     13  O13      -38.7620   28.8030   25.0510 O.co2 164  4D7164     -0.2437
     14  O14      -39.0700   28.1090   23.0700 O.co2 164  4D7164     -0.2437
     15  N15      -36.5020   27.3360   22.7100 N.am  164  4D7164     -0.1905
     16  C16      -35.2570   27.6330   22.3490 C.2   164  4D7164      0.2680
     17  C17      -34.9330   27.3810   20.8750 C.ar  164  4D7164      0.0884
     18  O18      -34.4060   28.0780   23.1180 O.2   164  4D7164     -0.2683
     19  C19      -35.2560   28.2180   19.8250 C.ar  164  4D7164      0.1278
     20  O20      -34.7990   27.6450   18.6810 O.2   164  4D7164     -0.4545
     21  C21      -34.2010   26.4610   19.0650 C.ar  164  4D7164      0.1793
     22  C22      -34.2920   26.3200   20.3930 C.ar  164  4D7164      0.0479
     23  C23      -35.9980   29.5520   19.9320 C.3   164  4D7164      0.0726
@<TRIPOS>BOND
     1    20    21   ar
     2    20    19   ar
     3    21    22   ar
     4    19    23    1
     5    19    17   ar
     6    22    17   ar
     7    17    16    1
     8    16    15   am
     9    16    18    2
    10    15    11    1
    11    14    12   ar
    12    12    11    1
    13    12    13   ar
    14    11    10    1
    15     8     7    2
    16     8     9    2
    17     3     7   ar
    18     3     2   ar
    19    10     9    1
    20     7     6   ar
    21     9     5    2
    22     2     1   ar
    23     6     5    2
    24     6     4   ar
    25     1     4   ar
