@<TRIPOS>MOLECULE
3kah_4DH_A_1.pdb
 29 32 0 0 0
SMALL
GASTEIGER

@<TRIPOS>ATOM
      1  C1        32.0150  -24.0450  -15.6130 C.2   165  4DH165     -0.0227
      2  C2        32.1730  -24.7840  -14.4460 C.2   165  4DH165     -0.0227
      3  C3        33.3600  -25.4680  -14.2110 C.3   165  4DH165      0.0880
      4  C4        33.0430  -23.9890  -16.5460 C.3   165  4DH165      0.0880
      5  N5        35.3530  -24.7970  -17.0060 N.2   165  4DH165     -0.3453
      6  C6        34.2290  -24.6740  -16.3090 C.2   165  4DH165      0.1518
      7  C7        34.3870  -25.4110  -15.1460 C.2   165  4DH165      0.1518
      8  N8        35.6000  -25.9510  -15.1850 N.2   165  4DH165     -0.3453
      9  C9        36.1900  -25.5760  -16.3200 C.1   165  4DH165      0.1150
     10  C10       37.5980  -25.9760  -16.7640 C.3   165  4DH165      0.1579
     11  C11       37.5500  -27.1330  -17.7640 C.3   165  4DH165      0.2150
     12  C12       38.9740  -27.5070  -18.1810 C.2   165  4DH165      0.3854
     13  O13       39.3330  -27.3840  -19.3510 O.co2 165  4DH165     -0.2437
     14  O14       39.7750  -27.9340  -17.3500 O.co2 165  4DH165     -0.2437
     15  N15       36.7820  -26.7260  -18.9490 N.am  165  4DH165     -0.1893
     16  C16       35.5200  -27.1020  -19.1330 C.2   165  4DH165      0.2827
     17  C17       34.8740  -26.5870  -20.4210 C.ar  165  4DH165      0.1343
     18  O18       34.8900  -27.8080  -18.3480 O.2   165  4DH165     -0.2667
     19  N19       33.5760  -26.4220  -20.6240 N.ar  165  4DH165     -0.2443
     20  N20       33.3790  -25.9940  -21.7610 N.ar  165  4DH165     -0.1691
     21  C21       34.5610  -25.8550  -22.3710 C.ar  165  4DH165      0.1025
     22  C22       35.5170  -26.2310  -21.5220 C.ar  165  4DH165      0.0442
     23  C23       32.5180  -26.7100  -19.6290 C.3   165  4DH165      0.1539
     24  C24       34.7590  -25.3960  -23.6680 C.ar  165  4DH165      0.0194
     25  C25       35.9150  -25.7400  -24.3580 C.ar  165  4DH165      0.0016
     26  C26       36.1120  -25.2820  -25.6560 C.ar  165  4DH165      0.0000
     27  C27       35.1530  -24.4780  -26.2620 C.ar  165  4DH165      0.0000
     28  C28       33.9970  -24.1340  -25.5720 C.ar  165  4DH165      0.0000
     29  C29       33.8000  -24.5930  -24.2740 C.ar  165  4DH165      0.0016
@<TRIPOS>BOND
     1    27    26   ar
     2    27    28   ar
     3    26    25   ar
     4    28    29   ar
     5    25    24   ar
     6    29    24   ar
     7    24    21    1
     8    21    20   ar
     9    21    22   ar
    10    20    19   ar
    11    22    17   ar
    12    19    17   ar
    13    19    23    1
    14    17    16    1
    15    13    12   ar
    16    16    15   am
    17    16    18    2
    18    15    11    1
    19    12    11    1
    20    12    14   ar
    21    11    10    1
    22     5     9    2
    23     5     6    2
    24    10     9    1
    25     4     6    1
    26     4     1    1
    27     9     8    2
    28     6     7    1
    29     1     2    2
    30     8     7    2
    31     7     3    1
    32     2     3    1
