@<TRIPOS>MOLECULE
3kai_4FI_A_1.pdb
 30 33 0 0 0
SMALL
GASTEIGER

@<TRIPOS>ATOM
      1  C1        38.9240  -18.7680   10.7350 C.ar  165  4FI165     -0.0003
      2  C2        38.7970  -16.4410   11.3420 C.ar  165  4FI165     -0.0199
      3  C3        39.2600  -16.7480   12.6160 C.ar  165  4FI165     -0.0042
      4  C4        38.4720  -14.9920   10.9740 C.3   165  4FI165      0.0596
      5  C5        39.5060  -14.4290    9.9980 C.3   165  4FI165      0.2024
      6  C6        39.1790  -12.9650    9.6960 C.2   165  4FI165      0.3846
      7  N7        39.4780  -15.2060    8.7510 N.am  165  4FI165     -0.1902
      8  O8        38.7960  -12.6310    8.5760 O.co2 165  4FI165     -0.2437
      9  O9        39.2970  -12.1070   10.5700 O.co2 165  4FI165     -0.2437
     10  C10       40.5250  -15.9160    8.3390 C.2   165  4FI165      0.2827
     11  C11       38.6290  -17.4510   10.4020 C.ar  165  4FI165     -0.0042
     12  O12       41.5900  -15.9880    8.9490 O.2   165  4FI165     -0.2667
     13  C13       40.3200  -16.6630    7.0190 C.ar  165  4FI165      0.1343
     14  N14       40.7450  -17.8880    6.7490 N.ar  165  4FI165     -0.2443
     15  N15       40.4210  -18.2010    5.6030 N.ar  165  4FI165     -0.1691
     16  C16       39.7570  -17.1770    5.0570 C.ar  165  4FI165      0.1025
     17  C17       39.6900  -16.1940    5.9540 C.ar  165  4FI165      0.0442
     18  C18       39.2280  -17.1440    3.7720 C.ar  165  4FI165      0.0194
     19  C19       38.9360  -15.9250    3.1720 C.ar  165  4FI165      0.0016
     20  C20       38.4070  -15.8910    1.8870 C.ar  165  4FI165      0.0000
     21  C21       38.1690  -17.0770    1.2020 C.ar  165  4FI165      0.0000
     22  C22       38.4610  -18.2970    1.8020 C.ar  165  4FI165      0.0000
     23  C23       38.9900  -18.3300    3.0870 C.ar  165  4FI165      0.0016
     24  C24       41.4960  -18.7520    7.6870 C.3   165  4FI165      0.1539
     25  C25       39.3880  -19.0740   12.0100 C.ar  165  4FI165     -0.0000
     26  C26       39.5560  -18.0640   12.9500 C.ar  165  4FI165     -0.0003
     27  C27       40.0190  -18.3710   14.2240 C.ar  165  4FI165     -0.0000
     28  C28       40.3140  -19.6880   14.5580 C.ar  165  4FI165     -0.0000
     29  C29       40.1460  -20.6980   13.6180 C.ar  165  4FI165     -0.0000
     30  C30       39.6830  -20.3910   12.3440 C.ar  165  4FI165     -0.0000
@<TRIPOS>BOND
     1    21    22   ar
     2    21    20   ar
     3    22    23   ar
     4    20    19   ar
     5    23    18   ar
     6    19    18   ar
     7    18    16    1
     8    16    15   ar
     9    16    17   ar
    10    15    14   ar
    11    17    13   ar
    12    14    13   ar
    13    14    24    1
    14    13    10    1
    15    10     7   am
    16    10    12    2
    17     8     6   ar
    18     7     5    1
    19     6     5    1
    20     6     9   ar
    21     5     4    1
    22    11     1   ar
    23    11     2   ar
    24     1    25   ar
    25     4     2    1
    26     2     3   ar
    27    25    30   ar
    28    25    26   ar
    29    30    29   ar
    30     3    26   ar
    31    26    27   ar
    32    29    28   ar
    33    27    28   ar
