@<TRIPOS>MOLECULE
3kak_3GC_A_1.pdb
 16 15 0 0 0
SMALL
GASTEIGER

@<TRIPOS>ATOM
      1  N1         8.9810  -12.8120   43.4980 N.3   501  3GC501     -0.1208
      2  CA1        9.0910  -11.4180   43.0800 C.3   501  3GC501      0.1948
      3  C1        10.5140  -10.8400   43.2770 C.2   501  3GC501      0.3819
      4  O11       10.6260   -9.6890   43.7830 O.co2 501  3GC501     -0.2441
      5  O12       11.5480  -11.5040   42.9840 O.co2 501  3GC501     -0.2441
      6  CB1        8.4780  -11.3650   41.6820 C.3   501  3GC501      0.0402
      7  CG1        9.0190  -10.2730   40.7700 C.3   501  3GC501      0.0889
      8  CD1        9.4450  -10.7980   39.4070 C.2   501  3GC501      0.2419
      9  OE1        9.1520  -12.0310   39.0080 O.2   501  3GC501     -0.2733
     10  N2        10.1090   -9.9950   38.6980 N.am  501  3GC501     -0.1946
     11  CA2       10.6020  -10.2230   37.3630 C.3   501  3GC501      0.2093
     12  C2        11.9440   -9.6660   37.0580 C.2   501  3GC501      0.3851
     13  O2        11.9860   -8.4590   37.0840 O.co2 501  3GC501     -0.2437
     14  CB2        9.7770   -9.1550   36.6600 C.3   501  3GC501      0.1019
     15  SG2        8.3090   -9.7590   35.8340 S.3   501  3GC501     -0.0797
     16  O3        12.9900  -10.4270   36.6940 O.co2 501  3GC501     -0.2437
@<TRIPOS>BOND
     1    15    14    1
     2    14    11    1
     3    16    12   ar
     4    12    13   ar
     5    12    11    1
     6    11    10    1
     7    10     8   am
     8     9     8    2
     9     8     7    1
    10     7     6    1
    11     6     2    1
    12     5     3   ar
    13     2     3    1
    14     2     1    1
    15     3     4   ar
