@<TRIPOS>MOLECULE
3kal_HGS_A_1.pdb
 21 20 0 0 0
SMALL
GASTEIGER

@<TRIPOS>ATOM
      1  C1       -24.7160  -27.0920   14.1190 C.2   501  HGS501      0.3819
      2  N1       -24.8510  -29.5710   13.0850 N.3   501  HGS501     -0.1208
      3  C2       -21.0100  -23.4010   10.4140 C.2   501  HGS501      0.2664
      4  N2       -22.1870  -25.6310   10.1290 N.am  501  HGS501     -0.1968
      5  O2       -21.6700  -22.4160    9.9170 O.2   501  HGS501     -0.2711
      6  N3       -20.1410  -23.1600   11.5330 N.am  501  HGS501     -0.1762
      7  C4       -16.9780  -25.3990   13.8150 C.2   501  HGS501      0.3893
      8  O11      -25.6440  -26.4920   13.5940 O.co2 501  HGS501     -0.2441
      9  O12      -24.0580  -26.7010   15.1660 O.co2 501  HGS501     -0.2441
     10  O41      -15.9280  -24.4750   13.6160 O.co2 501  HGS501     -0.2405
     11  O42      -17.1860  -26.4650   14.6420 O.co2 501  HGS501     -0.2405
     12  CA1      -24.3250  -28.2080   13.1380 C.3   501  HGS501      0.1948
     13  CA2      -21.3380  -24.6320    9.4670 C.3   501  HGS501      0.1846
     14  CA3      -19.0600  -23.5600   12.6560 C.2   501  HGS501      0.0955
     15  CA4      -18.3790  -25.0150   12.9560 C.2   501  HGS501      0.1040
     16  CB1      -22.8410  -28.0450   12.8000 C.3   501  HGS501      0.0402
     17  CB2      -21.9580  -24.2880    7.9950 C.3   501  HGS501      0.0997
     18  CD1      -21.8140  -26.4450   11.0130 C.2   501  HGS501      0.2418
     19  OE1      -20.5950  -26.7040   11.5340 O.2   501  HGS501     -0.2733
     20  CG1      -22.9780  -27.2190   11.4750 C.3   501  HGS501      0.0889
     21  SG2      -22.5400  -25.9960    7.6230 S.3   501  HGS501     -0.0797
@<TRIPOS>BOND
     1    21    17    1
     2    17    13    1
     3    13     4    1
     4    13     3    1
     5     5     3    2
     6     4    18   am
     7     3     6   am
     8    18    20    1
     9    18    19    2
    10    20    16    1
    11     6    14    1
    12    14    15    2
    13    16    12    1
    14    15     7    1
    15     2    12    1
    16    12     1    1
    17     8     1   ar
    18    10     7   ar
    19     7    11   ar
    20     1     9   ar
