@<TRIPOS>MOLECULE
3kal_ADP_A_1.pdb
 27 29 0 0 0
SMALL
GASTEIGER

@<TRIPOS>ATOM
      1  PB       -16.0800  -25.2740    5.2300 P.3   500  ADP500      0.5373
      2  O1B      -16.0300  -24.5820    6.5140 O.3   500  ADP500     -0.1143
      3  O2B      -15.8750  -26.6760    5.3680 O.3   500  ADP500     -0.1143
      4  O3B      -17.4210  -25.1800    4.5380 O.2   500  ADP500     -0.2221
      5  PA       -14.0460  -23.4120    4.2830 P.3   500  ADP500      0.2231
      6  O1A      -13.8410  -22.8210    2.9090 O.2   500  ADP500     -0.5169
      7  O2A      -14.4360  -22.4070    5.2790 O.3   500  ADP500     -0.4370
      8  O3A      -14.8610  -24.7310    4.2860 O.3   500  ADP500     -0.2261
      9  O5'      -12.6590  -23.9710    4.8080 O.3   500  ADP500     -0.3111
     10  C5'      -12.3460  -24.6670    6.0940 C.3   500  ADP500      0.1813
     11  C4'      -11.1830  -23.8980    6.7470 C.3   500  ADP500      0.1821
     12  O4'      -10.0170  -24.0600    5.8740 O.3   500  ADP500     -0.3135
     13  C3'      -11.2270  -22.3880    6.9440 C.3   500  ADP500      0.2184
     14  O3'      -11.8970  -22.0290    8.1480 O.3   500  ADP500     -0.2174
     15  C2'       -9.7290  -21.9010    6.9330 C.3   500  ADP500      0.2570
     16  O2'       -9.2320  -22.1320    8.2810 O.3   500  ADP500     -0.2130
     17  C1'       -9.2040  -22.8840    5.9050 C.3   500  ADP500      0.3186
     18  N9        -9.3040  -22.2020    4.5750 N.pl3 500  ADP500     -0.1439
     19  C8       -10.2300  -22.3420    3.6280 C.3   500  ADP500      0.3377
     20  N7        -9.9820  -21.5060    2.5570 N.2   500  ADP500     -0.2095
     21  C5        -8.8870  -20.7580    2.8440 C.2   500  ADP500      0.2526
     22  C6        -7.9810  -19.7930    2.0930 C.2   500  ADP500      0.4393
     23  N6        -8.3250  -19.3660    0.8250 N.pl3 500  ADP500      0.2180
     24  N1        -6.8400  -19.3430    2.7080 N.2   500  ADP500      0.0021
     25  C2        -6.4930  -19.7700    3.9920 C.3   500  ADP500      0.5254
     26  N3        -7.2000  -20.7830    4.6520 N.2   500  ADP500     -0.0055
     27  C4        -8.4100  -21.2530    4.1680 C.2   500  ADP500      0.3518
@<TRIPOS>BOND
     1    23    22    1
     2    22    24    2
     3    22    21    1
     4    20    21    2
     5    20    19    1
     6    24    25    1
     7    21    27    1
     8     6     5    2
     9    19    18    1
    10    25    26    1
    11    27    18    1
    12    27    26    2
    13     5     8    1
    14     5     9    1
    15     5     7    1
    16     8     1    1
    17     4     1    2
    18    18    17    1
    19     9    10    1
    20     1     3    1
    21     1     2    1
    22    12    17    1
    23    12    11    1
    24    17    15    1
    25    10    11    1
    26    11    13    1
    27    15    13    1
    28    15    16    1
    29    13    14    1
