@<TRIPOS>MOLECULE
3kan_RW1_A_1.pdb
 12 13 0 0 0
SMALL
GASTEIGER

@<TRIPOS>ATOM
      1  C2        36.1570  -10.2510    4.2300 C.3   120  RW1120      0.2501
      2  N3        35.2520  -11.1700    3.8720 N.2   120  RW1120     -0.2471
      3  C4        33.9870  -10.7950    4.0600 C.2   120  RW1120      0.0754
      4  C5        33.5790   -9.5670    4.5720 C.3   120  RW1120      0.0919
      5  N1        35.8140   -9.0500    4.7590 N.2   120  RW1120     -0.2483
      6  C6        34.5250   -8.6630    4.9560 C.2   120  RW1120      0.0619
      7  C7        34.1560   -7.4260    5.5320 C.ar  120  RW1120      0.0136
      8  C8        35.1510   -6.4950    5.8480 C.ar  120  RW1120      0.0012
      9  C12       32.8620   -7.1740    6.0620 C.ar  120  RW1120      0.0012
     10  C11       32.5400   -5.9670    6.6770 C.ar  120  RW1120      0.0000
     11  C10       33.5320   -5.0100    6.8830 C.ar  120  RW1120      0.0000
     12  C9        34.8410   -5.2810    6.4780 C.ar  120  RW1120      0.0000
@<TRIPOS>BOND
     1     2     3    2
     2     2     1    1
     3     3     4    1
     4     1     5    1
     5     4     6    1
     6     5     6    2
     7     6     7    1
     8     7     8   ar
     9     7     9   ar
    10     8    12   ar
    11     9    10   ar
    12    12    11   ar
    13    10    11   ar
