@<TRIPOS>MOLECULE
3kap_FMN_A_1.pdb
 31 33 0 0 0
SMALL
GASTEIGER

@<TRIPOS>ATOM
      1  N1         0.5400   50.2260   -2.4770 N.2   150  FMN150     -0.2887
      2  C2         0.0330   49.9610   -1.3070 C.1   150  FMN150      0.3669
      3  O2         0.5480   49.8900   -0.2570 O.2   150  FMN150     -0.1744
      4  N3        -1.3210   49.7260   -1.3080 N.2   150  FMN150     -0.2300
      5  C4        -2.0670   49.7820   -2.4820 C.1   150  FMN150      0.2513
      6  O4        -3.3010   49.5590   -2.4620 O.2   150  FMN150     -0.2057
      7  C4A       -1.4180   50.0900   -3.6970 C.2   150  FMN150      0.2706
      8  N5        -2.1030   50.1700   -4.8930 N.2   150  FMN150     -0.3841
      9  C5A       -1.4480   50.4710   -6.0840 C.ar  150  FMN150      0.1458
     10  C6        -2.1830   50.5470   -7.2670 C.ar  150  FMN150      0.0291
     11  C7        -1.5320   50.8500   -8.4890 C.ar  150  FMN150     -0.0192
     12  C7M       -2.3890   50.9290   -9.7420 C.3   150  FMN150      0.0311
     13  C8        -0.1110   51.0770   -8.5620 C.ar  150  FMN150     -0.0025
     14  C8M        0.4040   51.3510   -9.7980 C.2   150  FMN150     -0.0003
     15  C9         0.4390   50.9570   -7.2970 C.ar  150  FMN150      0.0172
     16  C9A       -0.0360   50.6890   -6.0800 C.ar  150  FMN150      0.0835
     17  N10        0.5140   50.5850   -4.8420 N.pl3 150  FMN150     -0.2543
     18  C10       -0.0220   50.3190   -3.6640 C.2   150  FMN150      0.2449
     19  C1'        1.9980   50.7840   -4.6330 C.3   150  FMN150      0.1336
     20  C2'        2.8550   49.5020   -4.8350 C.3   150  FMN150      0.2048
     21  O2'        2.4180   48.3930   -4.0190 O.3   150  FMN150     -0.2185
     22  C3'        4.3370   49.8130   -4.5520 C.3   150  FMN150      0.2165
     23  O3'        4.9190   50.3590   -5.6900 O.3   150  FMN150     -0.2175
     24  C4'        5.0800   48.5440   -4.1290 C.3   150  FMN150      0.2147
     25  O4'        6.3050   48.9220   -3.5300 O.3   150  FMN150     -0.2176
     26  C5'        5.4120   47.5780   -5.2810 C.3   150  FMN150      0.1892
     27  O5'        6.0660   46.4520   -4.7210 O.3   150  FMN150     -0.2674
     28  P          6.5530   45.2010   -5.6360 P.3   150  FMN150      0.5327
     29  O1P        7.1590   44.2090   -4.7330 O.3   150  FMN150     -0.1145
     30  O2P        7.5960   45.5940   -6.6010 O.2   150  FMN150     -0.2224
     31  O3P        5.3810   44.6350   -6.3970 O.3   150  FMN150     -0.1145
@<TRIPOS>BOND
     1    14    13    2
     2    12    11    1
     3    13    11   ar
     4    13    15   ar
     5    11    10   ar
     6    15    16   ar
     7    10     9   ar
     8    30    28    2
     9    31    28    1
    10     9    16   ar
    11     9     8    2
    12    16    17    1
    13    23    22    1
    14    28    29    1
    15    28    27    1
    16    26    27    1
    17    26    24    1
    18     8     7    2
    19    17    19    1
    20    17    18    1
    21    20    19    1
    22    20    22    1
    23    20    21    1
    24    22    24    1
    25    24    25    1
    26     7    18    1
    27     7     5    1
    28    18     1    2
    29     5     6    2
    30     5     4    2
    31     1     2    2
    32     4     2    2
    33     2     3    2
