@<TRIPOS>MOLECULE
3kaq_FMN_A_1.pdb
 31 33 0 0 0
SMALL
GASTEIGER

@<TRIPOS>ATOM
      1  N1         0.4650   49.8910   -2.6730 N.2   150  FMN150     -0.2887
      2  C2        -0.0290   49.5990   -1.5000 C.1   150  FMN150      0.3669
      3  O2         0.4870   49.5460   -0.4390 O.2   150  FMN150     -0.1744
      4  N3        -1.3720   49.2880   -1.5010 N.2   150  FMN150     -0.2300
      5  C4        -2.1170   49.3050   -2.6830 C.1   150  FMN150      0.2513
      6  O4        -3.3330   49.0120   -2.6780 O.2   150  FMN150     -0.2057
      7  C4A       -1.4840   49.6460   -3.8920 C.2   150  FMN150      0.2703
      8  N5        -2.1720   49.6940   -5.0930 N.2   150  FMN150     -0.3882
      9  C5A       -1.5230   50.0270   -6.2860 C.2   150  FMN150      0.1277
     10  C6        -2.2500   50.0650   -7.4700 C.3   150  FMN150      0.0820
     11  C7        -1.6120   50.3890   -8.6920 C.2   150  FMN150     -0.0408
     12  C7M       -2.4770   50.4170   -9.9470 C.3   150  FMN150      0.0265
     13  C8        -0.2030   50.6780   -8.7650 C.2   150  FMN150     -0.0280
     14  C8M        0.3080   50.9650  -10.0130 C.3   150  FMN150      0.0304
     15  C9         0.3400   50.5980   -7.4950 C.2   150  FMN150      0.0123
     16  C9A       -0.1320   50.3120   -6.2800 C.2   150  FMN150      0.0793
     17  N10        0.4250   50.2380   -5.0400 N.pl3 150  FMN150     -0.2545
     18  C10       -0.1000   49.9490   -3.8580 C.2   150  FMN150      0.2449
     19  C1'        1.8950   50.5160   -4.8600 C.3   150  FMN150      0.1336
     20  C2'        2.6260   49.1850   -5.0740 C.3   150  FMN150      0.2048
     21  O2'        2.1120   48.1670   -4.2040 O.3   150  FMN150     -0.2185
     22  C3'        4.1660   49.2610   -4.8940 C.3   150  FMN150      0.2165
     23  O3'        4.7010   50.1320   -5.8370 O.3   150  FMN150     -0.2175
     24  C4'        4.5920   47.8640   -5.1440 C.3   150  FMN150      0.2147
     25  O4'        4.1060   47.1280   -4.0540 O.3   150  FMN150     -0.2176
     26  C5'        6.0440   47.4480   -5.1590 C.3   150  FMN150      0.1892
     27  O5'        5.7210   46.1260   -5.5130 O.3   150  FMN150     -0.2674
     28  P          6.6260   44.8580   -5.7580 P.3   150  FMN150      0.5327
     29  O1P        5.6510   43.8200   -6.1720 O.3   150  FMN150     -0.1145
     30  O2P        7.2680   44.3910   -4.5290 O.3   150  FMN150     -0.1145
     31  O3P        7.6760   45.1370   -6.7870 O.2   150  FMN150     -0.2224
@<TRIPOS>BOND
     1    14    13    1
     2    12    11    1
     3    13    11    2
     4    13    15    1
     5    11    10    1
     6    15    16    2
     7    10     9    1
     8    31    28    2
     9     9    16    1
    10     9     8    2
    11    16    17    1
    12    29    28    1
    13    23    22    1
    14    28    27    1
    15    28    30    1
    16    27    26    1
    17    26    24    1
    18    24    22    1
    19    24    25    1
    20     8     7    2
    21    20    22    1
    22    20    19    1
    23    20    21    1
    24    17    19    1
    25    17    18    1
    26     7    18    1
    27     7     5    1
    28    18     1    2
    29     5     6    2
    30     5     4    2
    31     1     2    2
    32     4     2    2
    33     2     3    2
