@<TRIPOS>MOLECULE
3kar_ADP_A_1.pdb
 27 29 0 0 0
SMALL
GASTEIGER

@<TRIPOS>ATOM
      1  PB        -8.4090    9.5610    9.1040 P.3   999  ADP999      0.5373
      2  O1B       -8.4380    8.2280    8.3580 O.3   999  ADP999     -0.1143
      3  O2B       -7.7390    9.3760   10.4390 O.3   999  ADP999     -0.1143
      4  O3B       -7.7050   10.6970    8.2600 O.2   999  ADP999     -0.2221
      5  PA       -10.5970   10.3570   10.6450 P.3   999  ADP999      0.2231
      6  O1A      -10.3740    9.3610   11.7360 O.3   999  ADP999     -0.4370
      7  O2A       -9.9990   11.6370   11.0910 O.2   999  ADP999     -0.5169
      8  O3A       -9.8760    9.9630    9.3320 O.3   999  ADP999     -0.2261
      9  O5'      -12.1670   10.4230   10.3380 O.3   999  ADP999     -0.3111
     10  C5'      -12.6140   11.3030    9.2940 C.3   999  ADP999      0.1813
     11  C4'      -14.0020   11.8150    9.6700 C.3   999  ADP999      0.1821
     12  O4'      -14.9240   10.6840    9.6390 O.3   999  ADP999     -0.3135
     13  C3'      -14.1140   12.4190   11.0750 C.3   999  ADP999      0.2184
     14  O3'      -14.8850   13.6400   11.1200 O.3   999  ADP999     -0.2174
     15  C2'      -14.7180   11.2630   11.8620 C.3   999  ADP999      0.2570
     16  O2'      -15.4670   11.7760   12.9530 O.3   999  ADP999     -0.2130
     17  C1'      -15.6000   10.5390   10.8480 C.3   999  ADP999      0.3186
     18  N9       -15.6180    9.1020   11.0810 N.pl3 999  ADP999     -0.1439
     19  C8       -14.6260    8.2220   10.8320 C.3   999  ADP999      0.3377
     20  N7       -14.9880    6.9600   11.0260 N.2   999  ADP999     -0.2095
     21  C5       -16.2560    7.0660   11.5810 C.2   999  ADP999      0.2526
     22  C6       -17.1160    6.0690   12.0450 C.2   999  ADP999      0.4393
     23  N6       -16.8790    4.8380   12.0840 N.pl3 999  ADP999      0.2180
     24  N1       -18.2880    6.6200   12.4300 N.2   999  ADP999      0.0021
     25  C2       -18.6070    7.9330   12.4630 C.3   999  ADP999      0.5254
     26  N3       -17.8310    8.8610   12.0310 N.2   999  ADP999     -0.0055
     27  C4       -16.6680    8.3640   11.5850 C.2   999  ADP999      0.3518
@<TRIPOS>BOND
     1     4     1    2
     2     2     1    1
     3     1     8    1
     4     1     3    1
     5    10    11    1
     6    10     9    1
     7     8     5    1
     8    12    11    1
     9    12    17    1
    10    11    13    1
    11     9     5    1
    12     5     7    2
    13     5     6    1
    14    19    20    1
    15    19    18    1
    16    17    18    1
    17    17    15    1
    18    20    21    2
    19    13    14    1
    20    13    15    1
    21    18    27    1
    22    21    27    1
    23    21    22    1
    24    27    26    2
    25    15    16    1
    26    26    25    1
    27    22    23    1
    28    22    24    2
    29    24    25    1
