@<TRIPOS>MOLECULE
3kb1_ADP_A_1.pdb
 27 29 0 0 0
SMALL
GASTEIGER

@<TRIPOS>ATOM
      1  PB        -9.9320   -7.3210   16.1910 P.3   301  ADP301      0.5373
      2  O1B      -10.2230   -5.9940   15.6160 O.3   301  ADP301     -0.1143
      3  O2B      -10.1800   -8.4260   15.2300 O.2   301  ADP301     -0.2221
      4  O3B      -11.0390   -7.5850   17.4430 O.3   301  ADP301     -0.1143
      5  PA        -7.7260   -6.4220   17.6410 P.3   301  ADP301      0.2231
      6  O1A       -8.3690   -5.9310   18.8900 O.3   301  ADP301     -0.4370
      7  O2A       -7.2110   -5.3670   16.7620 O.2   301  ADP301     -0.5169
      8  O3A       -8.5890   -7.4120   16.8720 O.3   301  ADP301     -0.2261
      9  O5'       -6.3940   -7.2220   18.1190 O.3   301  ADP301     -0.3111
     10  C5'       -6.4510   -8.1030   19.2530 C.3   301  ADP301      0.1813
     11  C4'       -5.3540   -7.9870   20.3650 C.3   301  ADP301      0.1821
     12  O4'       -4.1000   -8.3150   19.7370 O.3   301  ADP301     -0.3135
     13  C3'       -5.1070   -6.5680   21.0210 C.3   301  ADP301      0.2184
     14  O3'       -4.5930   -6.6650   22.3740 O.3   301  ADP301     -0.2174
     15  C2'       -4.0870   -6.0180   20.0500 C.3   301  ADP301      0.2570
     16  O2'       -3.5090   -4.8300   20.6210 O.3   301  ADP301     -0.2130
     17  C1'       -3.1620   -7.2380   19.9380 C.3   301  ADP301      0.3186
     18  N9        -2.3340   -7.2240   18.7460 N.pl3 301  ADP301     -0.1439
     19  C8        -2.7410   -7.0920   17.4510 C.3   301  ADP301      0.3377
     20  N7        -1.7800   -7.1270   16.5860 N.2   301  ADP301     -0.2095
     21  C5        -0.6290   -7.3040   17.3490 C.2   301  ADP301      0.2526
     22  C6         0.7490   -7.4200   17.0200 C.2   301  ADP301      0.4393
     23  N6         1.2120   -7.3850   15.7860 N.pl3 301  ADP301      0.2180
     24  N1         1.6350   -7.5860   18.0380 N.2   301  ADP301      0.0021
     25  C2         1.1980   -7.6300   19.3080 C.3   301  ADP301      0.5254
     26  N3        -0.0710   -7.5290   19.7400 N.2   301  ADP301     -0.0055
     27  C4        -0.9520   -7.3660   18.6860 C.2   301  ADP301      0.3518
@<TRIPOS>BOND
     1     3     1    2
     2     2     1    1
     3    23    22    1
     4     1     8    1
     5     1     4    1
     6    20    21    2
     7    20    19    1
     8     7     5    2
     9     8     5    1
    10    22    21    1
    11    22    24    2
    12    21    27    1
    13    19    18    1
    14     5     9    1
    15     5     6    1
    16    24    25    1
    17     9    10    1
    18    27    18    1
    19    27    26    2
    20    18    17    1
    21    10    11    1
    22    25    26    1
    23    12    17    1
    24    12    11    1
    25    17    15    1
    26    15    16    1
    27    15    13    1
    28    11    13    1
    29    13    14    1
