@<TRIPOS>MOLECULE
3kb2_G3D_A_1.pdb
 32 34 0 0 0
SMALL
GASTEIGER

@<TRIPOS>ATOM
      1  PB       -15.0390   52.2750   55.8480 P.3   180  G3D180      0.5373
      2  O1B      -15.0040   53.0540   57.1650 O.3   180  G3D180     -0.1143
      3  O2B      -15.1240   53.0540   54.6090 O.2   180  G3D180     -0.2221
      4  O3B      -13.7060   51.2950   55.7970 O.3   180  G3D180     -0.1143
      5  PA       -16.1690   49.6680   55.4590 P.3   180  G3D180      0.2231
      6  O3A      -16.1840   51.2200   55.8780 O.3   180  G3D180     -0.2261
      7  O1A      -15.7730   49.4790   54.0720 O.2   180  G3D180     -0.5169
      8  O2A      -15.3900   48.9320   56.5600 O.3   180  G3D180     -0.4370
      9  O5'      -17.7910   49.3120   55.5100 O.3   180  G3D180     -0.3111
     10  C5'      -18.4120   49.8980   56.7270 C.3   180  G3D180      0.1812
     11  C4'      -19.6500   48.8770   56.7970 C.3   180  G3D180      0.1772
     12  O4'      -20.5920   48.9740   55.7160 O.3   180  G3D180     -0.3327
     13  C3'      -19.3910   47.4690   56.9330 C.3   180  G3D180      0.1902
     14  O3'      -20.2020   46.8620   57.9060 O.3   180  G3D180     -0.2674
     15  C2'      -19.4410   46.7900   55.5330 C.3   180  G3D180      0.2283
     16  O2'      -19.8180   45.5300   55.5910 O.3   180  G3D180     -0.2159
     17  C1'      -20.8330   47.6990   55.1100 C.3   180  G3D180      0.2292
     18  N9       -20.9950   47.5910   53.6120 N.pl3 180  G3D180     -0.2354
     19  C8       -19.9400   47.3530   52.7420 C.3   180  G3D180      0.2246
     20  N7       -20.6460   47.3670   51.5890 N.2   180  G3D180     -0.2322
     21  C5       -22.0330   47.4480   51.7240 C.2   180  G3D180      0.2182
     22  C6       -22.9030   47.4540   50.8150 C.1   180  G3D180      0.2372
     23  O6       -22.9880   47.4170   49.5490 O.2   180  G3D180     -0.2069
     24  N1       -24.2660   47.6900   51.4050 N.2   180  G3D180     -0.2485
     25  C2       -24.2900   47.8020   52.6840 C.1   180  G3D180      0.2531
     26  N2       -25.6460   48.1120   53.2410 N.pl3 180  G3D180     -0.0226
     27  N3       -23.3630   47.8830   53.6250 N.2   180  G3D180     -0.3074
     28  C4       -22.2120   47.6240   53.0100 C.2   180  G3D180      0.2300
     29  P1       -19.7970   46.1240   58.9700 P.3   180  G3D180      0.5327
     30  O4P      -19.7690   44.7280   58.6570 O.2   180  G3D180     -0.2224
     31  O5P      -21.0030   46.3860   60.0010 O.3   180  G3D180     -0.1145
     32  O6P      -18.6420   46.6430   59.8310 O.3   180  G3D180     -0.1145
@<TRIPOS>BOND
     1    23    22    2
     2    22    24    2
     3    22    21    1
     4    24    25    2
     5    20    21    2
     6    20    19    1
     7    21    28    1
     8    25    26    1
     9    25    27    2
    10    19    18    1
    11    28    18    1
    12    28    27    2
    13    18    17    1
    14     7     5    2
    15     3     1    2
    16    17    15    1
    17    17    12    1
    18     5     9    1
    19     5     6    1
    20     5     8    1
    21     9    10    1
    22    15    16    1
    23    15    13    1
    24    12    11    1
    25     4     1    1
    26     1     6    1
    27     1     2    1
    28    10    11    1
    29    11    13    1
    30    13    14    1
    31    14    29    1
    32    30    29    2
    33    29    32    1
    34    29    31    1
