@<TRIPOS>MOLECULE
3kb4_GR0_A_1.pdb
 25 24 0 0 0
SMALL
GASTEIGER

@<TRIPOS>ATOM
      1  C1        65.2190   44.1330  -47.0780 C.3   301  GR0301      0.1538
      2  O1        66.3350   43.3410  -46.6090 O.3   301  GR0301     -0.2703
      3  C2        65.6990   45.5540  -47.1460 C.3   301  GR0301      0.0327
      4  C3        65.9830   46.1880  -48.3160 C.3   301  GR0301      0.0025
      5  C4        67.1040   45.7120  -49.2340 C.3   301  GR0301      0.0001
      6  C5        65.2120   47.4250  -48.7600 C.3   301  GR0301      0.0001
      7  C6        64.1700   47.0920  -49.8120 C.3   301  GR0301      0.0000
      8  C7        64.3660   47.9430  -51.0350 C.3   301  GR0301      0.0000
      9  C8        64.3530   47.3990  -52.2590 C.3   301  GR0301      0.0003
     10  C9        63.0220   47.1830  -52.9680 C.3   301  GR0301      0.0046
     11  PA        66.0730   41.9850  -45.9260 P.3   301  GR0301      0.5326
     12  C10       65.6480   46.9770  -52.9390 C.3   301  GR0301      0.0000
     13  C11       62.8430   48.1100  -54.1160 C.3   301  GR0301      0.0254
     14  C12       61.7050   49.0750  -53.8010 C.2   301  GR0301     -0.0346
     15  C13       60.4790   48.9990  -54.3840 C.2   301  GR0301     -0.0478
     16  C14       60.1540   47.9210  -55.4120 C.3   301  GR0301      0.0260
     17  C15       59.3970   49.9980  -54.0310 C.3   301  GR0301      0.0263
     18  C16       58.4920   49.5400  -52.9140 C.3   301  GR0301      0.0297
     19  C17       57.1810   50.2930  -53.0590 C.2   301  GR0301     -0.0342
     20  C18       56.7920   51.3450  -52.3000 C.2   301  GR0301     -0.0478
     21  C19       55.4640   51.9880  -52.5620 C.3   301  GR0301      0.0260
     22  O1A       65.4150   40.9930  -46.8460 O.2   301  GR0301     -0.2224
     23  C20       57.6420   51.9060  -51.1870 C.3   301  GR0301      0.0260
     24  O2A       67.4500   41.4960  -45.4390 O.3   301  GR0301     -0.1145
     25  O3A       65.2270   42.2510  -44.6290 O.3   301  GR0301     -0.1145
@<TRIPOS>BOND
     1    16    15    1
     2    15    17    1
     3    15    14    2
     4    13    14    1
     5    13    10    1
     6    17    18    1
     7    19    18    1
     8    19    20    2
     9    10     9    1
    10    12     9    1
    11    21    20    1
    12    20    23    1
    13     9     8    1
    14     8     7    1
    15     7     6    1
    16     5     4    1
    17     6     4    1
    18     4     3    1
    19     3     1    1
    20     1     2    1
    21    22    11    2
    22     2    11    1
    23    11    24    1
    24    11    25    1
