@<TRIPOS>MOLECULE
3kb6_NAD_A_1.pdb
 44 48 0 0 0
SMALL
GASTEIGER

@<TRIPOS>ATOM
      1  PA       -27.3140   -0.9340   26.8990 P.3   400  NAD400      0.2189
      2  O1A      -28.1360   -0.6930   25.6870 O.2   400  NAD400     -0.5170
      3  O2A      -27.8470   -1.9290   27.8580 O.3   400  NAD400     -0.4371
      4  O5B      -27.0220    0.4480   27.6550 O.3   400  NAD400     -0.3112
      5  C5B      -26.8200    1.6710   26.9890 C.3   400  NAD400      0.1813
      6  C4B      -27.4120    2.7260   27.8330 C.3   400  NAD400      0.1821
      7  O4B      -27.1460    3.9560   27.2130 O.3   400  NAD400     -0.3135
      8  C3B      -28.9400    2.6140   27.9630 C.3   400  NAD400      0.2184
      9  O3B      -29.2600    2.7610   29.3600 O.3   400  NAD400     -0.2174
     10  C2B      -29.4430    3.7590   27.1280 C.3   400  NAD400      0.2570
     11  O2B      -30.5600    4.4140   27.6510 O.3   400  NAD400     -0.2130
     12  C1B      -28.2890    4.7450   27.2270 C.3   400  NAD400      0.3186
     13  N9A      -28.2280    5.6960   26.1340 N.pl3 400  NAD400     -0.1439
     14  C8A      -28.2040    5.4320   24.7770 C.3   400  NAD400      0.3377
     15  N7A      -28.1080    6.6350   24.1240 N.2   400  NAD400     -0.2095
     16  C5A      -28.1170    7.6360   25.0390 C.2   400  NAD400      0.2526
     17  C6A      -28.0470    9.0370   24.9600 C.2   400  NAD400      0.4393
     18  N6A      -27.7760    9.6560   23.8290 N.pl3 400  NAD400      0.2180
     19  N1A      -28.0490    9.8030   26.1410 N.2   400  NAD400      0.0021
     20  C2A      -28.1130    9.1740   27.3610 C.3   400  NAD400      0.5254
     21  N3A      -28.1780    7.7980   27.4130 N.2   400  NAD400     -0.0055
     22  C4A      -28.1850    7.0490   26.3010 C.2   400  NAD400      0.3518
     23  O3       -25.9020   -1.4310   26.3740 O.3   400  NAD400     -0.2703
     24  PN       -24.7580   -2.1850   27.2060 P.3   400  NAD400      0.2189
     25  O1N      -24.9180   -3.6780   27.1490 O.2   400  NAD400     -0.5170
     26  O2N      -24.6140   -1.5010   28.5340 O.3   400  NAD400     -0.4371
     27  O5D      -23.5540   -1.8650   26.2090 O.3   400  NAD400     -0.3112
     28  C5D      -23.1470   -0.5450   25.9780 C.3   400  NAD400      0.1813
     29  C4D      -22.1320   -0.4720   24.8340 C.3   400  NAD400      0.1799
     30  O4D      -20.8840   -0.9770   25.2560 O.3   400  NAD400     -0.3327
     31  C3D      -22.4790   -1.2410   23.5710 C.3   400  NAD400      0.2158
     32  O3D      -23.4450   -0.5670   22.7810 O.3   400  NAD400     -0.2175
     33  C2D      -21.1350   -1.3300   22.8970 C.3   400  NAD400      0.2309
     34  O2D      -20.9200   -0.1730   22.0660 O.3   400  NAD400     -0.2158
     35  C1D      -20.1750   -1.3350   24.1180 C.3   400  NAD400      0.2263
     36  N1N      -19.5860   -2.6350   24.4010 N.pl3 400  NAD400     -0.2787
     37  C2N      -18.2220   -2.6860   24.4600 C.3   400  NAD400      0.1244
     38  C3N      -17.5750   -3.8710   24.6920 C.2   400  NAD400      0.0544
     39  C7N      -16.0880   -3.8420   24.9160 C.2   400  NAD400      0.2818
     40  O7N      -15.4730   -5.0370   24.9490 O.2   400  NAD400     -0.2670
     41  N7N      -15.3870   -2.7370   25.1590 N.am  400  NAD400     -0.0839
     42  C4N      -18.3070   -5.0320   24.8880 C.2   400  NAD400      0.0033
     43  C5N      -19.7180   -4.9560   24.8670 C.2   400  NAD400      0.0157
     44  C6N      -20.3390   -3.7460   24.6340 C.2   400  NAD400      0.0633
@<TRIPOS>BOND
     1    34    33    1
     2    32    31    1
     3    33    31    1
     4    33    35    1
     5    31    29    1
     6    18    17    1
     7    35    36    1
     8    35    30    1
     9    15    14    1
    10    15    16    2
    11    36    37    1
    12    36    44    1
    13    37    38    1
    14    44    43    2
    15    38    42    2
    16    38    39    1
    17    14    13    1
    18    29    30    1
    19    29    28    1
    20    43    42    1
    21    39    40    2
    22    39    41   am
    23    17    16    1
    24    17    19    2
    25    16    22    1
    26     2     1    2
    27    28    27    1
    28    13    22    1
    29    13    12    1
    30    19    20    1
    31    27    24    1
    32    22    21    2
    33    23     1    1
    34    23    24    1
    35     1     4    1
    36     1     3    1
    37     5     4    1
    38     5     6    1
    39    10    12    1
    40    10    11    1
    41    10     8    1
    42    25    24    2
    43    24    26    1
    44     7    12    1
    45     7     6    1
    46    20    21    1
    47     6     8    1
    48     8     9    1
