@<TRIPOS>MOLECULE
3kb7_071_A_1.pdb
 33 37 0 0 0
SMALL
GASTEIGER

@<TRIPOS>ATOM
      1  N1        42.3370  -12.3940   17.6890 N.2     1  0711       -0.1687
      2  C2        43.6170  -12.8200   17.5630 C.1     1  0711        0.1695
      3  N3        44.0040  -13.4420   16.4160 N.2     1  0711       -0.3392
      4  C4        41.4510  -12.6200   16.6960 C.2     1  0711        0.1097
      5  C5        41.8400  -13.2620   15.5050 C.2     1  0711        0.0258
      6  C6        43.1620  -13.6280   15.3640 C.2     1  0711        0.1390
      7  C7        41.1010  -15.0100   13.9670 C.3     1  0711        0.0131
      8  C8        40.8660  -13.5510   14.3700 C.3     1  0711        0.0308
      9  C9        42.5280  -14.9780   13.4060 C.3     1  0711        0.0733
     10  C10       43.6300  -14.4550   14.2270 C.3     1  0711        0.1495
     11  N11       44.8250  -14.9220   13.8770 N.pl3   1  0711       -0.2257
     12  N12       44.6610  -15.8160   12.7820 N.2     1  0711       -0.1813
     13  C13       43.3190  -15.9150   12.5700 C.2     1  0711        0.1341
     14  C14       42.6180  -16.7060   11.5010 C.2     1  0711        0.2993
     15  N15       43.2440  -17.7910   11.0530 N.am    1  0711       -0.0826
     16  O16       41.5080  -16.4190   11.0700 O.2     1  0711       -0.2653
     17  C17       46.2210  -14.6910   14.3180 C.3     1  0711        0.1344
     18  N18       44.5070  -12.6200   18.5800 N.pl3   1  0711       -0.1326
     19  C19       45.7920  -13.0980   18.5740 C.ar    1  0711        0.1176
     20  C20       46.1720  -14.3020   17.9810 C.ar    1  0711        0.0349
     21  C21       47.5020  -14.7130   18.0040 C.ar    1  0711        0.0495
     22  C22       48.4430  -13.9000   18.6230 C.ar    1  0711        0.0177
     23  C23       48.0830  -12.6980   19.2020 C.ar    1  0711        0.0395
     24  C24       46.7550  -12.3100   19.1800 C.ar    1  0711        0.1547
     25  O25       46.3880  -11.1280   19.7710 O.3     1  0711       -0.4701
     26  C26       47.3570  -10.4700   20.5950 C.3     1  0711        0.2525
     27  N30       47.9580  -15.9180   17.3980 N.pl3   1  0711       -0.3046
     28  C31       47.2130  -17.1310   17.7040 C.3     1  0711        0.1081
     29  C32       47.5160  -18.2510   16.7120 C.3     1  0711        0.0938
     30  N33       48.9450  -18.3110   16.4530 N.3     1  0711       -0.2686
     31  C34       49.6950  -17.0990   16.1700 C.3     1  0711        0.0938
     32  C35       49.4160  -16.0330   17.2300 C.3     1  0711        0.1081
     33  C36       49.3770  -19.5100   15.7420 C.3     1  0711        0.0897
@<TRIPOS>BOND
     1    15    14   am
     2    16    14    2
     3    14    13    1
     4    13    12    2
     5    13     9    1
     6    12    11    1
     7     9     7    1
     8     9    10    1
     9    11    10    1
    10    11    17    1
    11     7     8    1
    12    10     6    1
    13     8     5    1
    14     6     5    1
    15     6     3    2
    16     5     4    2
    17    33    30    1
    18    31    30    1
    19    31    32    1
    20     3     2    2
    21    30    29    1
    22     4     1    1
    23    29    28    1
    24    32    27    1
    25    27    28    1
    26    27    21    1
    27     2     1    2
    28     2    18    1
    29    20    21   ar
    30    20    19   ar
    31    21    22   ar
    32    19    18    1
    33    19    24   ar
    34    22    23   ar
    35    24    23   ar
    36    24    25    1
    37    25    26    1
