@<TRIPOS>MOLECULE
3kb8_5GP_A_1.pdb
 24 26 0 0 0
SMALL
GASTEIGER

@<TRIPOS>ATOM
      1  P         45.9340   17.8290   41.8680 P.3   266  5GP266      0.5327
      2  O1P       44.6100   18.2490   42.4480 O.3   266  5GP266     -0.1145
      3  O2P       45.8850   17.1010   40.5570 O.2   266  5GP266     -0.2224
      4  O3P       47.0250   18.8890   41.9400 O.3   266  5GP266     -0.1145
      5  O5'       46.4490   16.8130   42.9870 O.3   266  5GP266     -0.2675
      6  C5'       46.4730   15.4130   42.7980 C.3   266  5GP266      0.1859
      7  C4'       47.9150   14.9680   42.9990 C.3   266  5GP266      0.1801
      8  O4'       48.7300   15.9550   43.6640 O.3   266  5GP266     -0.3326
      9  C3'       47.9680   13.7290   43.8720 C.3   266  5GP266      0.2158
     10  O3'       48.0230   12.5370   43.0960 O.3   266  5GP266     -0.2175
     11  C2'       49.2260   13.9010   44.6840 C.3   266  5GP266      0.2310
     12  O2'       50.1320   12.8340   44.4050 O.3   266  5GP266     -0.2158
     13  C1'       49.7960   15.2850   44.3380 C.3   266  5GP266      0.2293
     14  N9        50.2360   15.9470   45.6040 N.pl3 266  5GP266     -0.2354
     15  C8        50.0960   17.2220   46.0360 C.3   266  5GP266      0.2246
     16  N7        50.6640   17.3390   47.2680 N.2   266  5GP266     -0.2322
     17  C5        51.1760   16.1230   47.5910 C.2   266  5GP266      0.2182
     18  C6        51.8230   15.5840   48.6930 C.1   266  5GP266      0.2372
     19  O6        52.1220   16.3150   49.6800 O.2   266  5GP266     -0.2069
     20  N1        52.1730   14.2780   48.6800 N.2   266  5GP266     -0.2485
     21  C2        51.9110   13.4670   47.6450 C.1   266  5GP266      0.2531
     22  N2        52.2690   12.1490   47.6370 N.pl3 266  5GP266     -0.0226
     23  N3        51.2580   13.9670   46.5860 N.2   266  5GP266     -0.3074
     24  C4        50.8990   15.2680   46.5390 C.2   266  5GP266      0.2300
@<TRIPOS>BOND
     1     3     1    2
     2     1     4    1
     3     1     2    1
     4     1     5    1
     5     6     5    1
     6     6     7    1
     7     7     8    1
     8     7     9    1
     9    10     9    1
    10     8    13    1
    11     9    11    1
    12    13    11    1
    13    13    14    1
    14    12    11    1
    15    14    15    1
    16    14    24    1
    17    15    16    1
    18    24    23    2
    19    24    17    1
    20    23    21    2
    21    16    17    2
    22    17    18    1
    23    22    21    1
    24    21    20    2
    25    20    18    2
    26    18    19    2
