@<TRIPOS>MOLECULE
3kb9_BTM_A_1.pdb
 14 14 0 0 0
SMALL
GASTEIGER

@<TRIPOS>ATOM
      1  N          9.2840   -0.3240  -17.7520 N.4   704  BTM704      0.3926
      2  C1         9.2610   -1.1170  -19.0050 C.3   704  BTM704     -0.0456
      3  C2        10.7380   -0.1950  -17.5000 C.3   704  BTM704     -0.0726
      4  C3        11.2700   -0.0220  -16.0760 C.3   704  BTM704     -0.0244
      5  C4         8.6440   -1.1920  -16.7330 C.3   704  BTM704     -0.0726
      6  C5         7.1970   -1.5920  -17.0280 C.3   704  BTM704     -0.0244
      7  C6         8.3600    0.7970  -17.9360 C.3   704  BTM704     -0.0726
      8  C7         8.4030    1.9080  -16.8700 C.3   704  BTM704     -0.0244
      9  C8         9.6750   -0.3760  -20.2950 C.ar  704  BTM704     -0.0426
     10  C9        11.0450   -0.2750  -20.6520 C.ar  704  BTM704     -0.0063
     11  C10       11.4070    0.4470  -21.9580 C.ar  704  BTM704     -0.0004
     12  C11       10.4030    0.9500  -22.8130 C.ar  704  BTM704     -0.0000
     13  C12        9.0050    0.8230  -22.4370 C.ar  704  BTM704     -0.0004
     14  C13        8.6490    0.1600  -21.1740 C.ar  704  BTM704     -0.0063
@<TRIPOS>BOND
     1    12    13   ar
     2    12    11   ar
     3    13    14   ar
     4    11    10   ar
     5    14     9   ar
     6    10     9   ar
     7     9     2    1
     8     2     1    1
     9     7     1    1
    10     7     8    1
    11     1     3    1
    12     1     5    1
    13     3     4    1
    14     6     5    1
