@<TRIPOS>MOLECULE
3kba_WOW_A_1.pdb
 27 29 0 0 0
SMALL
GASTEIGER

@<TRIPOS>ATOM
      1  C01       -0.1650   -8.7890   22.1950 C.3     1  WOW1        0.0308
      2  C02       -1.3060   -9.7290   22.3430 C.ar    1  WOW1       -0.0242
      3  C03       -1.4100  -10.8030   21.4580 C.ar    1  WOW1       -0.0045
      4  C04       -2.4550  -11.7100   21.5860 C.ar    1  WOW1       -0.0003
      5  C05       -3.4330  -11.5150   22.5570 C.ar    1  WOW1       -0.0003
      6  C06       -3.3220  -10.4570   23.4540 C.ar    1  WOW1       -0.0029
      7  C07       -2.2820   -9.5410   23.3290 C.ar    1  WOW1       -0.0064
      8  C08       -2.1950   -8.4160   24.3000 C.3     1  WOW1        0.1174
      9  N09       -3.3280   -8.1100   25.1100 N.pl3   1  WOW1       -0.3037
     10  C10       -4.1000   -6.9470   24.8250 C.3     1  WOW1        0.0922
     11  C11       -3.3990   -5.6290   24.8970 C.3     1  WOW1        0.0403
     12  C12       -3.1310   -5.2460   23.4420 C.3     1  WOW1        0.0972
     13  N13       -3.9050   -6.1610   22.6220 N.3     1  WOW1       -0.1576
     14  C14       -4.7670   -6.9470   23.5040 C.3     1  WOW1        0.1151
     15  S15       -3.7230   -5.5970   21.1220 S.O2    1  WOW1        0.0457
     16  C16       -3.1370   -6.8660   20.0840 C.3     1  WOW1        0.1960
     17  O17       -2.8210   -4.5020   21.1500 O.2     1  WOW1       -0.1572
     18  O18       -4.9790   -5.1660   20.6430 O.2     1  WOW1       -0.1572
     19  C19       -3.5200   -8.7700   26.3520 C.ar    1  WOW1        0.0490
     20  C20       -4.6060   -8.4300   27.1590 C.ar    1  WOW1        0.0153
     21  C21       -4.7930   -9.0480   28.3910 C.ar    1  WOW1        0.0124
     22  C22       -3.8980  -10.0220   28.8140 C.ar    1  WOW1        0.0791
     23  C23       -4.1100  -10.6660   30.1350 C.1     1  WOW1        0.1013
     24  N24       -4.2790  -11.1670   31.1350 N.1     1  WOW1       -0.1908
     25  C25       -2.8280  -10.3870   27.9910 C.ar    1  WOW1        0.0685
     26 CL26       -1.6390  -11.5060   28.5170 Cl      1  WOW1       -0.0815
     27  C27       -2.6160   -9.7370   26.7790 C.ar    1  WOW1        0.0266
@<TRIPOS>BOND
     1    16    15    1
     2    18    15    2
     3    15    17    2
     4    15    13    1
     5     3     4   ar
     6     3     2   ar
     7     4     5   ar
     8     1     2    1
     9     2     7   ar
    10     5     6   ar
    11    13    12    1
    12    13    14    1
    13     7     6   ar
    14     7     8    1
    15    12    11    1
    16    14    10    1
    17     8     9    1
    18    10    11    1
    19    10     9    1
    20     9    19    1
    21    19    27   ar
    22    19    20   ar
    23    27    25   ar
    24    20    21   ar
    25    25    26    1
    26    25    22   ar
    27    21    22   ar
    28    22    23    1
    29    23    24    3
