@<TRIPOS>MOLECULE
3kbm_GLC_A_1.pdb
 12 12 0 0 0
SMALL
GASTEIGER

@<TRIPOS>ATOM
      1  C1       -11.6430  -18.8140  -46.3960 C.3   401  GLC401      0.3024
      2  C2       -11.1260  -17.3770  -46.4750 C.3   401  GLC401      0.2434
      3  C3       -11.5420  -16.6550  -45.2000 C.3   401  GLC401      0.2199
      4  C4       -13.1370  -16.6850  -45.1360 C.3   401  GLC401      0.2144
      5  C5       -13.5930  -18.2160  -45.1130 C.3   401  GLC401      0.1836
      6  C6       -15.0920  -18.3120  -45.2240 C.3   401  GLC401      0.2142
      7  O1       -11.1510  -19.4580  -45.2210 O.3   401  GLC401     -0.1869
      8  O2        -9.6980  -17.4620  -46.5700 O.3   401  GLC401     -0.2148
      9  O3       -11.1360  -15.2820  -45.2010 O.3   401  GLC401     -0.2174
     10  O4       -13.4380  -16.0780  -43.9060 O.3   401  GLC401     -0.2176
     11  O5       -13.1110  -18.8580  -46.2980 O.3   401  GLC401     -0.3236
     12  O6       -15.6420  -17.0300  -45.7120 O.3   401  GLC401     -0.2176
@<TRIPOS>BOND
     1     8     2    1
     2     2     1    1
     3     2     3    1
     4     1    11    1
     5     1     7    1
     6    11     5    1
     7    12     6    1
     8     6     5    1
     9     9     3    1
    10     3     4    1
    11     4     5    1
    12     4    10    1
