@<TRIPOS>MOLECULE
3kbn_GLO_A_1.pdb
 12 11 0 0 0
SMALL
GASTEIGER

@<TRIPOS>ATOM
      1  C1       -10.1910  -15.4320  -46.9590 C.2   401  GLO401      0.2427
      2  C2       -11.3820  -15.4420  -46.0260 C.3   401  GLO401      0.2486
      3  C3       -11.9680  -16.8050  -45.6230 C.3   401  GLO401      0.2225
      4  C4       -13.4530  -16.6730  -45.2400 C.3   401  GLO401      0.2179
      5  C5       -14.0970  -18.0380  -44.9230 C.3   401  GLO401      0.2175
      6  C6       -15.5960  -17.6950  -45.1860 C.3   401  GLO401      0.2175
      7  O1        -9.0970  -14.8910  -47.0620 O.2   401  GLO401     -0.2854
      8  O2       -11.1100  -14.6860  -44.8790 O.3   401  GLO401     -0.2118
      9  O3       -11.4070  -17.5370  -44.4620 O.3   401  GLO401     -0.2171
     10  O4       -13.5080  -16.0560  -43.9980 O.3   401  GLO401     -0.2175
     11  O5       -13.6230  -18.9450  -45.9390 O.3   401  GLO401     -0.2175
     12  O6       -16.5000  -18.3830  -44.3010 O.3   401  GLO401     -0.2175
@<TRIPOS>BOND
     1     7     1    2
     2     1     2    1
     3     2     3    1
     4     2     8    1
     5    11     5    1
     6     3     4    1
     7     3     9    1
     8     4     5    1
     9     4    10    1
    10     6     5    1
    11     6    12    1
