@<TRIPOS>MOLECULE
3kbo_NDB_A_1.pdb
 13 12 0 0 0
SMALL
GASTEIGER

@<TRIPOS>ATOM
      1  CAA        6.5740   -1.6940  -28.6630 C.3   314  NDB314     -0.0958
      2  CAB        4.5610   -1.3170  -27.4560 C.3   314  NDB314     -0.0958
      3  OAC        9.4680   -5.8190  -25.9960 O.3   314  NDB314     -0.3075
      4  OAD        8.5270   -7.7550  -27.0990 O.3   314  NDB314     -0.3075
      5  OAE        8.4160   -0.2590  -24.9930 O.3   314  NDB314     -0.2228
      6  OAF        9.4700   -5.9500  -28.3820 O.3   314  NDB314     -0.3075
      7  CAG        7.9990   -1.1070  -26.0690 C.3   314  NDB314      0.1601
      8  CAH        7.2360   -3.8580  -27.4690 C.3   314  NDB314     -0.0007
      9  CAI        6.5630   -0.7470  -26.4360 C.3   314  NDB314     -0.0371
     10  CAJ        6.0870   -3.0940  -26.7700 C.3   314  NDB314     -0.0714
     11  CAK        7.1020   -5.3920  -27.2830 C.3   314  NDB314      0.1031
     12  NAL        5.9580   -1.7330  -27.3320 N.4   314  NDB314      0.3889
     13  SAM        8.7070   -6.2650  -27.2020 S.3   314  NDB314     -0.1961
@<TRIPOS>BOND
     1     1    12    1
     2     6    13    1
     3     8    11    1
     4     8    10    1
     5     2    12    1
     6    12    10    1
     7    12     9    1
     8    11    13    1
     9    13     4    1
    10    13     3    1
    11     9     7    1
    12     7     5    1
