@<TRIPOS>MOLECULE
3kbo_NDP_A_1.pdb
 48 52 0 0 0
SMALL
GASTEIGER

@<TRIPOS>ATOM
      1  PA        17.9400   -3.6800    1.8070 P.3   313  NDP313      0.2189
      2  O1A       18.9810   -4.6740    1.7040 O.3   313  NDP313     -0.4371
      3  O2A       16.7460   -4.0420    1.0200 O.2   313  NDP313     -0.5170
      4  O5B       17.5170   -3.3010    3.2920 O.3   313  NDP313     -0.3112
      5  C5B       16.2370   -2.8370    3.6550 C.3   313  NDP313      0.1813
      6  C4B       16.0360   -3.2740    5.1140 C.3   313  NDP313      0.1820
      7  O4B       14.7790   -2.8240    5.5480 O.3   313  NDP313     -0.3136
      8  C3B       16.0220   -4.7780    5.3510 C.3   313  NDP313      0.2157
      9  O3B       16.7740   -5.0730    6.4940 O.3   313  NDP313     -0.2175
     10  C2B       14.5700   -5.1180    5.5680 C.3   313  NDP313      0.2314
     11  O2B       14.3090   -6.1360    6.4770 O.3   313  NDP313     -0.2630
     12  C1B       14.0810   -3.8400    6.1790 C.3   313  NDP313      0.3158
     13  N9A       12.6750   -3.6420    5.9790 N.pl3 313  NDP313     -0.1439
     14  C8A       11.9980   -3.4760    4.8160 C.3   313  NDP313      0.3377
     15  N7A       10.7110   -3.2240    5.1470 N.2   313  NDP313     -0.2095
     16  C5A       10.5790   -3.2010    6.4810 C.2   313  NDP313      0.2526
     17  C6A        9.4960   -2.9810    7.3020 C.2   313  NDP313      0.4393
     18  N6A        8.2790   -2.7260    6.7680 N.pl3 313  NDP313      0.2180
     19  N1A        9.6770   -3.0310    8.6770 N.2   313  NDP313      0.0021
     20  C2A       10.9380   -3.2480    9.2130 C.3   313  NDP313      0.5254
     21  N3A       12.0140   -3.4710    8.3660 N.2   313  NDP313     -0.0055
     22  C4A       11.8170   -3.4410    7.0180 C.2   313  NDP313      0.3518
     23  O3        18.3950   -2.3210    1.1870 O.3   313  NDP313     -0.2703
     24  PN        19.8010   -1.6210    1.1580 P.3   313  NDP313      0.2189
     25  O1N       20.3770   -1.6520    2.5420 O.3   313  NDP313     -0.4371
     26  O2N       20.4660   -2.0800   -0.0450 O.2   313  NDP313     -0.5170
     27  O5D       19.2530   -0.1790    0.7760 O.3   313  NDP313     -0.3112
     28  C5D       18.2640    0.3590    1.6200 C.3   313  NDP313      0.1813
     29  C4D       17.7430    1.6830    1.0980 C.3   313  NDP313      0.1799
     30  O4D       18.7560    2.6610    1.1460 O.3   313  NDP313     -0.3327
     31  C3D       17.3140    1.7120   -0.3570 C.3   313  NDP313      0.2158
     32  O3D       15.9800    1.2970   -0.4980 O.3   313  NDP313     -0.2175
     33  C2D       17.3370    3.1900   -0.6770 C.3   313  NDP313      0.2309
     34  O2D       16.0850    3.6980   -0.5200 O.3   313  NDP313     -0.2158
     35  C1D       18.3060    3.7820    0.3110 C.3   313  NDP313      0.2263
     36  N1N       19.4390    4.4000   -0.4030 N.pl3 313  NDP313     -0.2787
     37  C2N       19.6140    5.7500   -0.4050 C.3   313  NDP313      0.1244
     38  C3N       20.6830    6.2900   -1.0880 C.2   313  NDP313      0.0544
     39  C7N       20.9540    7.7620   -1.0330 C.2   313  NDP313      0.2818
     40  O7N       20.2850    8.5310   -0.0780 O.2   313  NDP313     -0.2670
     41  N7N       21.8890    8.2090   -1.8460 N.am  313  NDP313     -0.0839
     42  C4N       21.5650    5.4880   -1.7800 C.2   313  NDP313      0.0033
     43  C5N       21.3660    4.0980   -1.7790 C.2   313  NDP313      0.0157
     44  C6N       20.2870    3.5830   -1.1010 C.2   313  NDP313      0.0633
     45  P2B       14.8130   -7.6470    6.2990 P.3   313  NDP313      0.5328
     46  O1X       14.1610   -8.4580    7.3760 O.3   313  NDP313     -0.1145
     47  O2X       14.2740   -8.1550    5.0220 O.2   313  NDP313     -0.2224
     48  O3X       16.2940   -7.7750    6.4810 O.3   313  NDP313     -0.1145
@<TRIPOS>BOND
     1    41    39   am
     2    42    43    1
     3    42    38    2
     4    43    44    2
     5    44    36    1
     6    38    39    1
     7    38    37    1
     8    39    40    2
     9    33    34    1
    10    33    31    1
    11    33    35    1
    12    32    31    1
    13    37    36    1
    14    36    35    1
    15    31    29    1
    16    26    24    2
    17    35    30    1
    18    27    24    1
    19    27    28    1
    20     3     1    2
    21    29    30    1
    22    29    28    1
    23    24    23    1
    24    24    25    1
    25    23     1    1
    26     2     1    1
    27     1     4    1
    28     4     5    1
    29     5     6    1
    30    14    15    1
    31    14    13    1
    32    47    45    2
    33     6     8    1
    34     6     7    1
    35    15    16    2
    36     8    10    1
    37     8     9    1
    38     7    12    1
    39    10    12    1
    40    10    11    1
    41    13    12    1
    42    13    22    1
    43    45    11    1
    44    45    48    1
    45    45    46    1
    46    16    22    1
    47    16    17    1
    48    18    17    1
    49    22    21    2
    50    17    19    2
    51    21    20    1
    52    19    20    1
