@<TRIPOS>MOLECULE
3kbz_2T4_A_1.pdb
 19 21 0 0 0
SMALL
GASTEIGER

@<TRIPOS>ATOM
      1  C1        19.1950   60.2110   16.2870 C.ar  401  2T4401      0.1416
      2  C2        19.5140   61.2060   15.3430 C.ar  401  2T4401      0.0370
      3  C3        20.8510   61.6260   15.1790 C.ar  401  2T4401      0.0031
      4  C4        21.8660   61.0470   15.9600 C.ar  401  2T4401      0.0003
      5  C5        21.5150   60.0670   16.8810 C.ar  401  2T4401      0.0060
      6  C6        20.2060   59.6740   17.0270 C.ar  401  2T4401      0.0641
      7  C7        22.4540   59.2920   17.8420 C.2   401  2T4401      0.0093
      8  C8        21.3660   58.4490   18.4850 C.2   401  2T4401      0.0628
      9  C9        20.1410   58.6580   18.0410 C.2   401  2T4401      0.1426
     10  S10       21.3760   57.2700   19.6740 S.3   401  2T4401     -0.0345
     11  C11       19.6740   57.0690   19.5600 C.2   401  2T4401      0.2502
     12  N12       19.1280   57.9120   18.6040 N.2   401  2T4401     -0.3769
     13  N13       18.9050   56.1220   20.3750 N.pl3 401  2T4401     -0.0864
     14  O14       17.8990   59.7630   16.4840 O.3   401  2T4401     -0.4676
     15  C15       16.9690   60.6900   15.9840 C.3   401  2T4401      0.2625
     16  P16       15.2870   60.0580   16.2380 P.3   401  2T4401      0.1615
     17  O17       14.3060   60.8680   15.4440 O.2   401  2T4401     -0.4564
     18  O18       15.2250   58.6290   15.7960 O.3   401  2T4401     -0.3547
     19  O19       14.9490   60.1490   17.6920 O.3   401  2T4401     -0.3547
@<TRIPOS>BOND
     1     3     2   ar
     2     3     4   ar
     3     2     1   ar
     4    17    16    2
     5    18    16    1
     6     4     5   ar
     7    15    16    1
     8    15    14    1
     9    16    19    1
    10     1    14    1
    11     1     6   ar
    12     5     6   ar
    13     5     7    1
    14     6     9    1
    15     7     8    2
    16     9     8    1
    17     9    12    2
    18     8    10    1
    19    12    11    2
    20    11    10    1
    21    11    13    1
