@<TRIPOS>MOLECULE
3kc0_2T5_A_1.pdb
 18 20 0 0 0
SMALL
GASTEIGER

@<TRIPOS>ATOM
      1  P1        15.5400   60.3180   15.6290 P.3   401  2T5401      0.1615
      2  O2        14.6390   61.2530   14.8730 O.2   401  2T5401     -0.4564
      3  O3        15.1220   60.2950   17.0680 O.3   401  2T5401     -0.3547
      4  O4        15.4370   58.9340   15.0530 O.3   401  2T5401     -0.3547
      5  C5        17.2630   60.8880   15.5070 C.3   401  2T5401      0.2625
      6  O6        18.0440   60.0960   16.3590 O.3   401  2T5401     -0.4676
      7  C7        19.3810   60.4550   16.3010 C.ar  401  2T5401      0.1406
      8  C8        20.2650   59.7650   17.0810 C.ar  401  2T5401      0.0517
      9  C9        21.6000   60.0900   17.0510 C.ar  401  2T5401      0.0049
     10  C10       22.0790   61.1050   16.2470 C.ar  401  2T5401      0.0003
     11  C11       21.1890   61.8100   15.4540 C.ar  401  2T5401      0.0031
     12  C12       19.8350   61.4860   15.4800 C.ar  401  2T5401      0.0370
     13  C13       22.4800   59.2150   17.9910 C.2   401  2T5401      0.0079
     14  C14       21.3330   58.3720   18.5080 C.2   401  2T5401      0.0444
     15  C15       20.1420   58.6650   18.0230 C.2   401  2T5401      0.0856
     16  S16       21.1800   57.0350   19.6470 S.3   401  2T5401     -0.0858
     17  C17       19.4430   57.0120   19.3350 C.3   401  2T5401      0.1873
     18  N18       19.0490   57.9500   18.4390 N.2   401  2T5401     -0.2575
@<TRIPOS>BOND
     1     2     1    2
     2     4     1    1
     3    11    12   ar
     4    11    10   ar
     5    12     7   ar
     6     5     1    1
     7     5     6    1
     8     1     3    1
     9    10     9   ar
    10     7     6    1
    11     7     8   ar
    12     9     8   ar
    13     9    13    1
    14     8    15    1
    15    13    14    2
    16    15    18    2
    17    15    14    1
    18    18    17    1
    19    14    16    1
    20    17    16    1
