@<TRIPOS>MOLECULE
3kc1_2T6_A_1.pdb
 21 23 0 0 0
SMALL
GASTEIGER

@<TRIPOS>ATOM
      1  C1        21.4810   59.5520   17.1310 C.ar  401  2T6401      0.0094
      2  C2        20.1440   59.3110   17.3450 C.ar  401  2T6401      0.0519
      3  C3        19.1640   60.0040   16.6910 C.ar  401  2T6401      0.1406
      4  C4        19.5470   60.9980   15.7680 C.ar  401  2T6401      0.0371
      5  C5        20.9070   61.2580   15.5360 C.ar  401  2T6401      0.0077
      6  C6        21.8890   60.5260   16.2260 C.ar  401  2T6401      0.0569
      7  C7        22.3770   58.6250   18.0020 C.2   401  2T6401      0.0080
      8  C8        21.2390   57.8850   18.6770 C.2   401  2T6401      0.0444
      9  C9        20.0160   58.2580   18.3220 C.2   401  2T6401      0.0856
     10  S10       21.1890   56.6540   19.8150 S.3   401  2T6401     -0.0858
     11  C11       19.4740   56.6610   19.7960 C.3   401  2T6401      0.1873
     12  N12       18.9580   57.6030   18.9190 N.2   401  2T6401     -0.2575
     13  O13       17.8380   59.7180   16.9470 O.3   401  2T6401     -0.4676
     14  C14       17.0110   60.4050   16.0400 C.3   401  2T6401      0.2625
     15  O15       14.9930   59.9330   17.7720 O.3   401  2T6401     -0.3547
     16  C16       23.3110   60.7870   15.9930 C.2   401  2T6401      0.2842
     17  N17       23.5670   61.9400   15.3460 N.am  401  2T6401     -0.0837
     18  O18       24.2090   60.0260   16.3380 O.2   401  2T6401     -0.2667
     19  P19       15.2840   59.9270   16.3050 P.3   401  2T6401      0.1615
     20  O20       14.3740   60.8930   15.6120 O.2   401  2T6401     -0.4564
     21  O21       15.0690   58.5500   15.7530 O.3   401  2T6401     -0.3547
@<TRIPOS>BOND
     1    17    16   am
     2     5     4   ar
     3     5     6   ar
     4    20    19    2
     5    21    19    1
     6     4     3   ar
     7    16     6    1
     8    16    18    2
     9    14    19    1
    10    14    13    1
    11     6     1   ar
    12    19    15    1
    13     3    13    1
    14     3     2   ar
    15     1     2   ar
    16     1     7    1
    17     2     9    1
    18     7     8    2
    19     9     8    1
    20     9    12    2
    21     8    10    1
    22    12    11    1
    23    11    10    1
