@<TRIPOS>MOLECULE
3kc3_MK2_A_1.pdb
 26 30 0 0 0
SMALL
GASTEIGER

@<TRIPOS>ATOM
      1  C1        -8.2630   61.6110   -6.9080 C.ar  500  MK2500      0.0002
      2  C2        -6.9460   61.9610   -7.1100 C.ar  500  MK2500      0.0031
      3  C3        -8.8130   60.4690   -7.4320 C.ar  500  MK2500      0.0031
      4  C4        -6.0680   61.1860   -7.8570 C.ar  500  MK2500      0.0375
      5  C5        -7.6450   51.3230  -11.6390 C.2   500  MK2500      0.0746
      6  C6        -7.4630   50.1710  -12.3830 C.2   500  MK2500      0.1161
      7  C7        -8.1420   58.4300   -8.8800 C.ar  500  MK2500      0.0406
      8  C8        -5.4570   54.9720  -12.1090 C.2   500  MK2500      0.0224
      9  C9        -6.9830   55.7840  -10.4140 C.2   500  MK2500      0.0238
     10  C10       -3.8190   56.7050  -12.6410 C.2   500  MK2500      0.1237
     11  C11       -7.9730   59.6620   -8.1800 C.ar  500  MK2500      0.0376
     12  C12       -6.6440   60.0420   -8.3710 C.ar  500  MK2500      0.1453
     13  C13       -7.0280   52.4680  -12.0770 C.2   500  MK2500      0.2280
     14  C14       -6.5400   54.7840  -11.2700 C.2   500  MK2500      0.0842
     15  C15       -4.9130   56.2340  -11.9460 C.2   500  MK2500      0.0419
     16  C16       -6.4330   57.0550  -10.2840 C.2   500  MK2500      0.0555
     17  C17       -6.9040   58.1400   -9.4380 C.ar  500  MK2500      0.1469
     18  C18       -5.3410   57.2750  -11.0970 C.2   500  MK2500      0.1074
     19  C19       -6.1770   51.2600  -13.8670 C.1   500  MK2500      0.1879
     20  N20       -5.4280   51.2150  -15.0520 N.pl3 500  MK2500     -0.0345
     21  N21       -4.5600   58.3630  -11.2720 N.2   500  MK2500     -0.1478
     22  N22       -6.7430   50.0980  -13.5050 N.2   500  MK2500     -0.1672
     23  N23       -3.6560   57.9940  -12.2010 N.2   500  MK2500     -0.1464
     24  N24       -6.2790   52.4410  -13.1990 N.2   500  MK2500     -0.3153
     25  N25       -7.2390   53.5820  -11.2660 N.2   500  MK2500     -0.2152
     26  O26       -5.9800   59.1210   -9.1350 O.2   500  MK2500     -0.4534
@<TRIPOS>BOND
     1    20    19    1
     2    19    22    2
     3    19    24    2
     4    22     6    1
     5    24    13    2
     6    10    23    2
     7    10    15    1
     8     6     5    2
     9    23    21    1
    10     8    15    2
    11     8    14    1
    12    13     5    1
    13    13    25    1
    14    15    18    1
    15    21    18    2
    16    14    25    2
    17    14     9    1
    18    18    16    1
    19     9    16    2
    20    16    17    1
    21    17    26   ar
    22    17     7   ar
    23    26    12   ar
    24     7    11   ar
    25    12    11   ar
    26    12     4   ar
    27    11     3   ar
    28     4     2   ar
    29     3     1   ar
    30     2     1   ar
