@<TRIPOS>MOLECULE
3kcc_CMP_A_1.pdb
 22 25 0 0 0
SMALL
GASTEIGER

@<TRIPOS>ATOM
      1  P          8.7500  -14.1110   17.1470 P.3   301  CMP301      0.2141
      2  O1P        9.6090  -14.9490   18.0300 O.3   301  CMP301     -0.4373
      3  O2P        7.7450  -14.8060   16.2660 O.2   301  CMP301     -0.5172
      4  O5'        8.0370  -13.0080   18.0550 O.3   301  CMP301     -0.3114
      5  C5'        8.8360  -12.1130   18.8210 C.3   301  CMP301      0.1812
      6  C4'        9.5980  -11.3350   17.7690 C.3   301  CMP301      0.1793
      7  O4'       10.5220  -10.3990   18.3150 O.3   301  CMP301     -0.3136
      8  C3'       10.4830  -12.2700   16.9870 C.3   301  CMP301      0.1884
      9  O3'        9.7010  -13.1620   16.2260 O.3   301  CMP301     -0.3111
     10  C2'       11.3350  -11.2680   16.2300 C.3   301  CMP301      0.2541
     11  O2'       10.6120  -10.6420   15.1720 O.3   301  CMP301     -0.2131
     12  C1'       11.5520  -10.2270   17.3260 C.3   301  CMP301      0.3185
     13  N9        12.8620  -10.4730   17.9800 N.pl3 301  CMP301     -0.1439
     14  C8        13.1690  -11.4040   18.9010 C.3   301  CMP301      0.3377
     15  N7        14.4840  -11.3370   19.2550 N.2   301  CMP301     -0.2095
     16  C5        15.0180  -10.3400   18.5070 C.2   301  CMP301      0.2526
     17  C6        16.3560   -9.7370   18.3810 C.2   301  CMP301      0.4393
     18  N6        17.3600  -10.2320   19.1340 N.pl3 301  CMP301      0.2180
     19  N1        16.4940   -8.7290   17.4930 N.2   301  CMP301      0.0021
     20  C2        15.4590   -8.2570   16.7550 C.3   301  CMP301      0.5254
     21  N3        14.1980   -8.7520   16.8280 N.2   301  CMP301     -0.0055
     22  C4        13.9530   -9.7770   17.6790 C.2   301  CMP301      0.3518
@<TRIPOS>BOND
     1    11    10    1
     2     9     8    1
     3     9     1    1
     4    10     8    1
     5    10    12    1
     6     3     1    2
     7    20    21    1
     8    20    19    1
     9    21    22    2
    10     8     6    1
    11     1     2    1
    12     1     4    1
    13    12    13    1
    14    12     7    1
    15    19    17    2
    16    22    13    1
    17    22    16    1
    18     6     7    1
    19     6     5    1
    20    13    14    1
    21     4     5    1
    22    17    16    1
    23    17    18    1
    24    16    15    2
    25    14    15    1
