@<TRIPOS>MOLECULE
3kce_4BY_A_1.pdb
 13 14 0 0 0
SMALL
GASTEIGER

@<TRIPOS>ATOM
      1  C1         4.6570   44.5260   11.5760 C.2   165  4BY165      0.2107
      2  N2         4.3070   43.5550   10.7230 N.2   165  4BY165     -0.3952
      3  C3         5.0860   44.0210   12.7380 C.2   165  4BY165      0.0414
      4  C4         5.0100   42.6880   12.6280 C.ar  165  4BY165      0.0320
      5  C5         4.5220   42.3910   11.3480 C.ar  165  4BY165      0.1317
      6  C6         4.5490   46.0040   11.2330 C.2   165  4BY165      0.4168
      7  C7         5.3230   41.6450   13.5020 C.ar  165  4BY165     -0.0016
      8  O8         3.9740   46.2840   10.1500 O.co2 165  4BY165     -0.2377
      9  C9         4.3650   41.0640   10.9470 C.ar  165  4BY165      0.0317
     10  O10        5.0260   46.8500   12.0290 O.co2 165  4BY165     -0.2377
     11  C11        5.1470   40.3080   13.1010 C.ar  165  4BY165     -0.0217
     12  C12        4.6680   40.0180   11.8210 C.ar  165  4BY165     -0.0016
     13  C13        5.4800   39.1640   14.0680 C.3   165  4BY165      0.0310
@<TRIPOS>BOND
     1     8     6   ar
     2     2     5    2
     3     2     1    2
     4     9     5   ar
     5     9    12   ar
     6     6     1    1
     7     6    10   ar
     8     5     4   ar
     9     1     3    1
    10    12    11   ar
    11     4     3    2
    12     4     7   ar
    13    11     7   ar
    14    11    13    1
