@<TRIPOS>MOLECULE
3kce_12P_A_1.pdb
 24 23 0 0 0
SMALL
GASTEIGER

@<TRIPOS>ATOM
      1  C36      -13.7920   33.4590   23.4350 C.3   164  12P164      0.0346
      2  C35      -14.7660   32.7850   24.4350 C.3   164  12P164      0.1424
      3  O34      -14.2770   31.5730   25.0460 O.3   164  12P164     -0.3511
      4  C33      -15.3940   30.6130   25.4040 C.3   164  12P164      0.1741
      5  C32      -15.7210   29.8020   24.1390 C.3   164  12P164      0.1742
      6  O31      -16.6190   28.6960   24.1570 O.3   164  12P164     -0.3484
      7  C30      -16.5140   27.8430   22.9610 C.3   164  12P164      0.1742
      8  C29      -16.8670   28.6290   21.7600 C.3   164  12P164      0.1742
      9  O28      -16.5920   27.8800   20.5660 O.3   164  12P164     -0.3484
     10  C27      -16.9000   28.6470   19.3270 C.3   164  12P164      0.1742
     11  C26      -16.6040   30.0900   19.5330 C.3   164  12P164      0.1742
     12  O25      -16.8590   30.9070   18.3710 O.3   164  12P164     -0.3484
     13  C24      -16.4190   32.2360   18.6770 C.3   164  12P164      0.1742
     14  C23      -14.9310   32.1530   18.6880 C.3   164  12P164      0.1742
     15  O22      -14.3790   33.4570   18.9190 O.3   164  12P164     -0.3484
     16  C21      -12.9850   33.3240   19.4340 C.3   164  12P164      0.1742
     17  C20      -12.2790   32.6540   18.2900 C.3   164  12P164      0.1742
     18  O19      -10.8260   32.4070   18.4050 O.3   164  12P164     -0.3484
     19  C18      -10.3220   31.7830   17.1420 C.3   164  12P164      0.1742
     20  C17      -10.6400   30.3380   17.0680 C.3   164  12P164      0.1742
     21  O16      -10.1630   29.7010   15.7720 O.3   164  12P164     -0.3483
     22  C15      -10.5940   28.3010   15.6100 C.3   164  12P164      0.1777
     23  C14      -11.9810   28.2780   14.9060 C.3   164  12P164      0.2140
     24  O13      -12.6130   27.0190   14.3930 O.3   164  12P164     -0.2176
@<TRIPOS>BOND
     1    24    23    1
     2    23    22    1
     3    22    21    1
     4    21    20    1
     5    20    19    1
     6    19    18    1
     7    17    18    1
     8    17    16    1
     9    12    13    1
    10    12    11    1
    11    13    14    1
    12    14    15    1
    13    15    16    1
    14    10    11    1
    15    10     9    1
    16     9     8    1
    17     8     7    1
    18     7     6    1
    19     1     2    1
    20     5     6    1
    21     5     4    1
    22     2     3    1
    23     3     4    1
