@<TRIPOS>MOLECULE
3kcf_JZO_A_1.pdb
 27 30 0 0 0
SMALL
GASTEIGER

@<TRIPOS>ATOM
      1  C1        74.6250   34.2180   90.9430 C.3     1  JZO1        0.1746
      2  O2        75.0070   33.0010   91.5870 O.3     1  JZO1       -0.3463
      3  C3        75.3300   32.0130   90.6250 C.3     1  JZO1        0.1687
      4  C4        75.7280   30.7270   91.2930 C.ar    1  JZO1        0.0073
      5  C5        76.3010   30.7230   92.6040 C.ar    1  JZO1       -0.0019
      6  C6        76.6760   29.4940   93.2080 C.ar    1  JZO1       -0.0002
      7  C7        76.4830   28.2690   92.5030 C.ar    1  JZO1        0.0002
      8  C8        75.9040   28.2670   91.1900 C.ar    1  JZO1        0.0059
      9  C9        75.5320   29.5060   90.5940 C.ar    1  JZO1       -0.0017
     10  C10       75.7010   26.9840   90.4200 C.ar    1  JZO1        0.0747
     11  C11       75.1340   25.7990   90.8140 C.ar    1  JZO1        0.0808
     12  N12       75.1910   24.9110   89.7290 N.ar    1  JZO1       -0.2657
     13  C13       74.6920   23.5040   89.6830 C.3     1  JZO1        0.1518
     14  N14       75.7980   25.5490   88.6580 N.ar    1  JZO1       -0.2343
     15  C15       76.0480   24.9490   87.3340 C.3     1  JZO1        0.1550
     16  C16       76.1190   26.7830   89.0000 C.ar    1  JZO1        0.2763
     17  O17       76.6700   27.6170   88.2680 O.2     1  JZO1       -0.2655
     18  C18       74.5430   25.4630   92.1520 C.ar    1  JZO1        0.0190
     19  C19       73.5620   26.3090   92.7600 C.ar    1  JZO1        0.0031
     20  C20       73.0010   25.9650   94.0260 C.ar    1  JZO1        0.0207
     21  C21       73.4150   24.7750   94.6820 C.ar    1  JZO1        0.0989
     22  N22       72.8980   24.4110   95.8780 N.ar    1  JZO1       -0.2407
     23  C23       73.2800   23.2680   96.5200 C.ar    1  JZO1        0.1195
     24  C24       74.2480   22.4370   95.9150 C.ar    1  JZO1        0.1195
     25  N25       74.7770   22.7910   94.7150 N.ar    1  JZO1       -0.2407
     26  C26       74.3970   23.9260   94.0770 C.ar    1  JZO1        0.0990
     27  C27       74.9560   24.2720   92.8250 C.ar    1  JZO1        0.0221
@<TRIPOS>BOND
     1    15    14    1
     2    17    16    2
     3    14    16   ar
     4    14    12   ar
     5    16    10   ar
     6    13    12    1
     7    12    11   ar
     8    10    11   ar
     9    10     8    1
    10     9     8   ar
    11     9     4   ar
    12     3     4    1
    13     3     2    1
    14    11    18    1
    15     1     2    1
    16     8     7   ar
    17     4     5   ar
    18    18    19   ar
    19    18    27   ar
    20     7     6   ar
    21     5     6   ar
    22    19    20   ar
    23    27    26   ar
    24    20    21   ar
    25    26    21   ar
    26    26    25   ar
    27    21    22   ar
    28    25    24   ar
    29    22    23   ar
    30    24    23   ar
