@<TRIPOS>MOLECULE
3kck_3KC_A_1.pdb
 25 29 0 0 0
SMALL
GASTEIGER

@<TRIPOS>ATOM
      1  C4        11.3710   15.0250    0.2900 C.ar    1  3KC1        0.0067
      2  C5        11.2260   14.7080    1.6450 C.ar    1  3KC1        0.0401
      3  C6        10.4130   15.5800    2.3410 C.ar    1  3KC1        0.0633
      4  C8         9.7220   16.6320    1.8570 C.ar    1  3KC1        0.0535
      5  C13       15.5090   14.0860    5.8360 C.ar    1  3KC1        0.0026
      6  C15       15.3590   11.8070    5.0530 C.ar    1  3KC1        0.0023
      7  C17       13.7440   11.0000    3.4190 C.2     1  3KC1       -0.0004
      8  C21       12.0640    9.8950    1.9240 C.1     1  3KC1        0.0194
      9  C24       10.8830   11.6810    1.1960 C.2     1  3KC1        0.1088
     10  C26       12.5970   11.0690    2.5450 C.3     1  3KC1        0.1340
     11  O1         9.1560   18.0160    0.0610 O.3     1  3KC1       -0.2865
     12  C2         9.8430   16.9170    0.5090 C.ar    1  3KC1        0.1966
     13  C3        10.6800   16.1100   -0.2760 C.ar    1  3KC1        0.0422
     14 CL7        10.2360   15.2770    3.9660 Cl      1  3KC1       -0.0821
     15  C9        12.0170   13.6250    2.3270 C.2     1  3KC1        0.1310
     16  N10       12.9060   14.0610    3.2420 N.2     1  3KC1       -0.4021
     17  C11       13.8600   13.5010    4.0940 C.ar    1  3KC1        0.1311
     18  C12       14.5020   14.4540    4.9300 C.ar    1  3KC1        0.0320
     19  C14       15.9280   12.7550    5.9060 C.ar    1  3KC1        0.0002
     20  C16       14.3180   12.1570    4.1690 C.ar    1  3KC1        0.0270
     21  C18       14.3160    9.7210    3.6800 C.2     1  3KC1        0.0186
     22  C19       13.7470    8.6120    3.0240 C.2     1  3KC1        0.1089
     23  N20       12.6670    8.7330    2.2090 N.2     1  3KC1       -0.1959
     24  N22       11.0110   10.3200    1.1340 N.2     1  3KC1       -0.1961
     25  C25       11.8030   12.2030    2.0320 C.2     1  3KC1        0.0449
@<TRIPOS>BOND
     1    13     1   ar
     2    13    12   ar
     3    11    12    1
     4     1     2   ar
     5    12     4   ar
     6    24     9    1
     7    24     8    2
     8     9    25    2
     9     2    15    1
    10     2     3   ar
    11     4     3   ar
    12     8    23    2
    13     8    10    1
    14    25    15    1
    15    25    10    1
    16    23    22    1
    17    15    16    2
    18     3    14    1
    19    10     7    1
    20    22    21    2
    21    16    17    2
    22     7    21    1
    23     7    20    2
    24    17    20   ar
    25    17    18   ar
    26    20     6   ar
    27    18     5   ar
    28     6    19   ar
    29     5    19   ar
