@<TRIPOS>MOLECULE
3kcu_MA5_A_1.pdb
 31 33 0 0 0
SMALL
GASTEIGER

@<TRIPOS>ATOM
      1  C42       49.0250   31.1480  139.0470 C.3   286  MA5286      0.0001
      2  C32       47.7620   30.4220  138.6020 C.3   286  MA5286      0.0000
      3  C22       46.7970   31.4050  137.9700 C.3   286  MA5286      0.0000
      4  C12       47.4680   31.9640  136.7250 C.3   286  MA5286      0.0000
      5  C62       48.7400   32.7320  137.0760 C.3   286  MA5286      0.0001
      6  C52       49.7150   31.9520  137.9490 C.3   286  MA5286      0.0025
      7  C61       50.6220   32.9690  138.6310 C.3   286  MA5286      0.0322
      8  C11       51.6000   33.5990  137.6430 C.3   286  MA5286      0.1449
      9  O10       52.3660   32.5830  136.9920 O.3   286  MA5286     -0.3286
     10  C10       53.7580   32.9070  137.0130 C.3   286  MA5286      0.2695
     11  C20       54.5590   31.8700  136.2280 C.3   286  MA5286      0.2404
     12  O20       54.4290   30.5770  136.8350 O.3   286  MA5286     -0.2149
     13  C30       56.0310   32.2820  136.1940 C.3   286  MA5286      0.2167
     14  O30       56.8070   31.2950  135.4930 O.3   286  MA5286     -0.2175
     15  O50       53.9160   34.2030  136.4300 O.3   286  MA5286     -0.3257
     16  C50       55.2610   34.6680  136.2820 C.3   286  MA5286      0.1803
     17  C60       55.2240   35.9920  135.5250 C.3   286  MA5286      0.2141
     18  O60       54.8760   35.7670  134.1470 O.3   286  MA5286     -0.2176
     19  C40       56.1390   33.6590  135.5500 C.3   286  MA5286      0.1804
     20  O1        57.4780   34.1460  135.5930 O.3   286  MA5286     -0.3257
     21  C1        58.3320   33.6370  134.5620 C.3   286  MA5286      0.2695
     22  O5        58.0140   34.3230  133.3520 O.3   286  MA5286     -0.3256
     23  C5        58.1500   35.7440  133.4570 C.3   286  MA5286      0.1835
     24  C6        57.7620   36.3870  132.1320 C.3   286  MA5286      0.2142
     25  O6        57.0790   37.6170  132.4020 O.3   286  MA5286     -0.2176
     26  C4        59.5670   36.1370  133.8670 C.3   286  MA5286      0.2144
     27  O4        59.6310   37.5520  134.0650 O.3   286  MA5286     -0.2176
     28  C3        59.9390   35.4280  135.1620 C.3   286  MA5286      0.2198
     29  O3        61.2720   35.7710  135.5570 O.3   286  MA5286     -0.2174
     30  C2        59.7840   33.9300  134.9310 C.3   286  MA5286      0.2406
     31  O2        60.1730   33.1840  136.0930 O.3   286  MA5286     -0.2149
@<TRIPOS>BOND
     1    24    25    1
     2    24    23    1
     3    22    23    1
     4    22    21    1
     5    23    26    1
     6    26    27    1
     7    26    28    1
     8    18    17    1
     9    21    30    1
    10    21    20    1
    11    30    28    1
    12    30    31    1
    13    28    29    1
    14    14    13    1
    15    17    16    1
    16    19    20    1
    17    19    13    1
    18    19    16    1
    19    13    11    1
    20    11    12    1
    21    11    10    1
    22    16    15    1
    23    15    10    1
    24     4     5    1
    25     4     3    1
    26     9    10    1
    27     9     8    1
    28     5     6    1
    29     8     7    1
    30     6     7    1
    31     6     1    1
    32     3     2    1
    33     2     1    1
