@<TRIPOS>MOLECULE
3kcx_CQL_A_1.pdb
 13 14 0 0 0
SMALL
GASTEIGER

@<TRIPOS>ATOM
      1  OAA      -23.4310   25.4730    6.5070 O.3     1  CQL1       -0.2845
      2 CLAB      -17.6190   25.1650    7.9850 Cl      1  CQL1       -0.0822
      3  IAC      -22.0000   24.0640    4.1630 I       1  CQL1       -0.0391
      4  CAD      -20.8130   26.8550   10.3610 C.ar    1  CQL1        0.0207
      5  CAE      -22.1570   26.9010    9.9980 C.ar    1  CQL1        0.0989
      6  CAF      -19.8610   26.2910    9.5130 C.ar    1  CQL1        0.0040
      7  CAG      -19.8200   24.7240    6.2490 C.ar    1  CQL1        0.0205
      8  NAH      -22.5560   26.4200    8.8210 N.ar    1  CQL1       -0.2406
      9  CAI      -19.3560   25.2230    7.4680 C.ar    1  CQL1        0.0597
     10  CAJ      -22.0990   25.3810    6.8070 C.ar    1  CQL1        0.2184
     11  CAK      -21.1880   24.8070    5.9420 C.ar    1  CQL1        0.0713
     12  CAL      -20.2870   25.7870    8.3150 C.ar    1  CQL1        0.0315
     13  CAM      -21.6440   25.8700    7.9960 C.ar    1  CQL1        0.1213
@<TRIPOS>BOND
     1     3    11    1
     2    11     7   ar
     3    11    10   ar
     4     7     9   ar
     5     1    10    1
     6    10    13   ar
     7     9     2    1
     8     9    12   ar
     9    13    12   ar
    10    13     8   ar
    11    12     6   ar
    12     8     5   ar
    13     6     4   ar
    14     5     4   ar
