@<TRIPOS>MOLECULE
3kcy_HQY_A_1.pdb
 11 12 0 0 0
SMALL
GASTEIGER

@<TRIPOS>ATOM
      1  OAA      -24.2980   25.4790    6.0950 O.3     1  HQY1       -0.2850
      2  CAD      -19.7030   25.3290    7.9560 C.ar    1  HQY1        0.0207
      3  CAE      -20.9410   25.8280    8.3830 C.ar    1  HQY1        0.0989
      4  CAF      -19.6060   24.6920    6.7220 C.ar    1  HQY1        0.0032
      5  CAG      -21.8590   23.8280    3.9210 C.ar    1  HQY1        0.0034
      6  NAH      -22.0410   25.7020    7.6270 N.ar    1  HQY1       -0.2406
      7  CAI      -20.7080   23.9470    4.7010 C.ar    1  HQY1        0.0017
      8  CAJ      -23.1200   24.9640    5.6290 C.ar    1  HQY1        0.2131
      9  CAK      -23.0740   24.3350    4.3810 C.ar    1  HQY1        0.0436
     10  CAL      -20.7570   24.5700    5.9450 C.ar    1  HQY1        0.0209
     11  CAM      -21.9690   25.0850    6.4170 C.ar    1  HQY1        0.1201
@<TRIPOS>BOND
     1     5     9   ar
     2     5     7   ar
     3     9     8   ar
     4     7    10   ar
     5     8     1    1
     6     8    11   ar
     7    10    11   ar
     8    10     4   ar
     9    11     6   ar
    10     4     2   ar
    11     6     3   ar
    12     2     3   ar
