@<TRIPOS>MOLECULE
3kcz_3AB_A_1.pdb
 10 10 0 0 0
SMALL
GASTEIGER

@<TRIPOS>ATOM
      1  N3        22.1960    3.1710   19.0230 N.pl3   1  3AB1       -0.1281
      2  C3        21.2070    3.2110   19.9240 C.ar    1  3AB1        0.0892
      3  C2        19.8930    3.1570   19.4630 C.ar    1  3AB1        0.0227
      4  C4        21.4680    3.2690   21.2800 C.ar    1  3AB1        0.0181
      5  C5        20.3890    3.2730   22.1470 C.ar    1  3AB1        0.0015
      6  C6        19.0610    3.2500   21.7040 C.ar    1  3AB1        0.0047
      7  C1        18.8170    3.2040   20.3340 C.ar    1  3AB1        0.0580
      8  C1'       17.3820    3.1910   19.7930 C.2     1  3AB1        0.2842
      9  O1'       16.4390    3.6670   20.4340 O.2     1  3AB1       -0.2667
     10  N1'       17.2170    2.6230   18.6070 N.am    1  3AB1       -0.0837
@<TRIPOS>BOND
     1    10     8   am
     2     1     2    1
     3     3     2   ar
     4     3     7   ar
     5     8     7    1
     6     8     9    2
     7     2     4   ar
     8     7     6   ar
     9     4     5   ar
    10     6     5   ar
