@<TRIPOS>MOLECULE
3kd6_AMP_A_1.pdb
 23 25 0 0 0
SMALL
GASTEIGER

@<TRIPOS>ATOM
      1  P         18.5270   -2.2090    7.9980 P.3   509  AMP509      0.5327
      2  O1P       19.9520   -1.8080    8.6100 O.3   509  AMP509     -0.1145
      3  O2P       18.6450   -3.6440    7.3270 O.2   509  AMP509     -0.2224
      4  O3P       17.4290   -2.2780    9.1680 O.3   509  AMP509     -0.1145
      5  O5'       18.4690   -1.4350    6.9400 O.3   509  AMP509     -0.2675
      6  C5'       17.2560   -0.6510    6.9200 C.3   509  AMP509      0.1860
      7  C4'       17.2890    0.2900    5.6900 C.3   509  AMP509      0.1823
      8  O4'       17.5940   -0.2910    4.4070 O.3   509  AMP509     -0.3135
      9  C3'       16.0780    1.2450    5.4530 C.3   509  AMP509      0.2184
     10  O3'       16.2560    2.5670    5.9520 O.3   509  AMP509     -0.2174
     11  C2'       15.7920    1.2360    3.9380 C.3   509  AMP509      0.2570
     12  O2'       15.8230    2.4920    3.2650 O.3   509  AMP509     -0.2130
     13  C1'       16.8270    0.3190    3.3540 C.3   509  AMP509      0.3186
     14  N9        16.3500   -0.7070    2.3590 N.pl3 509  AMP509     -0.1439
     15  C8        15.2250   -1.4650    2.2830 C.3   509  AMP509      0.3377
     16  N7        15.2520   -2.2530    1.1690 N.2   509  AMP509     -0.2095
     17  C5        16.4090   -1.9870    0.5170 C.2   509  AMP509      0.2526
     18  C6        17.0980   -2.4610   -0.7160 C.2   509  AMP509      0.4393
     19  N6        16.5220   -3.3950   -1.5050 N.pl3 509  AMP509      0.2180
     20  N1        18.3170   -1.9260   -1.0440 N.2   509  AMP509      0.0021
     21  C2        18.9130   -0.9820   -0.2620 C.3   509  AMP509      0.5254
     22  N3        18.3530   -0.5030    0.8840 N.2   509  AMP509     -0.0055
     23  C4        17.1310   -0.9680    1.3050 C.2   509  AMP509      0.3518
@<TRIPOS>BOND
     1    19    18    1
     2    20    18    2
     3    20    21    1
     4    18    17    1
     5    21    22    1
     6    17    16    2
     7    17    23    1
     8    22    23    2
     9    16    15    1
    10    23    14    1
    11    15    14    1
    12    14    13    1
    13    12    11    1
    14    13    11    1
    15    13     8    1
    16    11     9    1
    17     8     7    1
    18     9     7    1
    19     9    10    1
    20     7     6    1
    21     6     5    1
    22     5     1    1
    23     3     1    2
    24     1     2    1
    25     1     4    1
