@<TRIPOS>MOLECULE
3kd7_III_G_1.pdb
 45 44 0 0 0
SMALL
GASTEIGER

@<TRIPOS>ATOM
      1  C        -26.4400  -14.0850  -17.0450 C.2     0  ACE0        0.2423
      2  O        -27.1680  -13.1390  -16.7440 O.2     0  ACE0       -0.2733
      3  CH3      -25.6580  -14.1080  -18.3270 C.3     0  ACE0        0.0964
      4  N        -26.3780  -15.2000  -16.3180 N.am    1  MET1       -0.1977
      5  CA       -25.8440  -15.2210  -14.9550 C.3     1  MET1        0.1736
      6  C        -24.3480  -14.9090  -14.9210 C.2     1  MET1        0.2616
      7  O        -23.6080  -15.2550  -15.8460 O.2     1  MET1       -0.2715
      8  CB       -26.1250  -16.5660  -14.2770 C.3     1  MET1        0.0427
      9  CG       -27.5940  -16.7960  -13.9330 C.3     1  MET1        0.0599
     10  SD       -27.8660  -18.1770  -12.8030 S.3     1  MET1       -0.1393
     11  CE       -27.3690  -17.4580  -11.2370 C.3     1  MET1        0.0692
     12  N        -23.9160  -14.2590  -13.8430 N.am    2  GLU2       -0.1963
     13  CA       -22.5420  -13.7740  -13.7260 C.3     2  GLU2        0.1733
     14  C        -21.7090  -14.6050  -12.7500 C.2     2  GLU2        0.2616
     15  O        -22.2120  -15.0590  -11.7200 O.2     2  GLU2       -0.2715
     16  CB       -22.5280  -12.2940  -13.3210 C.3     2  GLU2        0.0429
     17  CG       -23.3010  -11.3560  -14.2640 C.3     2  GLU2        0.1163
     18  CD       -22.7540  -11.3360  -15.6880 C.2     2  GLU2        0.3649
     19  OE1      -21.5280  -11.1640  -15.8680 O.co2   2  GLU2       -0.2457
     20  OE2      -23.5590  -11.4830  -16.6320 O.co2   2  GLU2       -0.2457
     21  N        -20.4340  -14.7930  -13.0900 N.am    3  GLU3       -0.1963
     22  CA       -19.5060  -15.6020  -12.2930 C.3     3  GLU3        0.1733
     23  C        -18.7040  -14.7510  -11.3020 C.2     3  GLU3        0.2616
     24  O        -18.9790  -13.5630  -11.1320 O.2     3  GLU3       -0.2715
     25  CB       -18.5610  -16.3870  -13.2130 C.3     3  GLU3        0.0429
     26  CG       -19.2520  -17.4480  -14.0680 C.3     3  GLU3        0.1163
     27  CD       -18.2940  -18.2110  -14.9730 C.2     3  GLU3        0.3649
     28  OE1      -17.0630  -18.0210  -14.8600 O.co2   3  GLU3       -0.2457
     29  OE2      -18.7790  -19.0100  -15.8020 O.co2   3  GLU3       -0.2457
     30  N        -17.7220  -15.3700  -10.6470 N.am    4  VAL4       -0.1963
     31  CA       -16.8590  -14.6830   -9.6790 C.3     4  VAL4        0.1727
     32  C        -15.4010  -15.1320   -9.7710 C.2     4  VAL4        0.2617
     33  O        -15.1190  -16.3200   -9.9530 O.2     4  VAL4       -0.2715
     34  CB       -17.3430  -14.8700   -8.2150 C.3     4  VAL4        0.0290
     35  CG1      -18.3590  -13.8010   -7.8370 C.3     4  VAL4        0.0023
     36  CG2      -17.8960  -16.2740   -7.9890 C.3     4  VAL4        0.0023
     37  N        -14.4870  -14.1710   -9.6390 N.am    5  ASP5       -0.1936
     38  CA       -13.0520  -14.4470   -9.6420 C.3     5  ASP5        0.2090
     39  C        -12.3770  -13.8710   -8.3980 C.2     5  ASP5        0.3848
     40  O        -12.2190  -12.6570   -8.2520 O.co2   5  ASP5       -0.2437
     41  CB       -12.3910  -13.9030  -10.9170 C.3     5  ASP5        0.1472
     42  CG       -12.8390  -14.6370  -12.1720 C.2     5  ASP5        0.3672
     43  OD1      -14.0310  -14.5370  -12.5360 O.co2   5  ASP5       -0.2456
     44  OD2      -11.9920  -15.3070  -12.8020 O.co2   5  ASP5       -0.2456
     45  OXT      -11.9730  -14.6110   -7.5000 O.co2   5  ASP5       -0.2437
@<TRIPOS>BOND
     1     3     1    1
     2     1     2    2
     3     1     4   am
     4    20    18   ar
     5     4     5    1
     6    19    18   ar
     7     7     6    2
     8    29    27   ar
     9    18    17    1
    10    27    28   ar
    11    27    26    1
    12     5     6    1
    13     5     8    1
    14     6    12   am
    15     8     9    1
    16    17    16    1
    17    26    25    1
    18     9    10    1
    19    12    13    1
    20    13    16    1
    21    13    14    1
    22    25    22    1
    23    21    14   am
    24    21    22    1
    25    10    11    1
    26    44    42   ar
    27    14    15    2
    28    43    42   ar
    29    22    23    1
    30    42    41    1
    31    23    24    2
    32    23    30   am
    33    41    38    1
    34    30    31    1
    35    33    32    2
    36    32    31    1
    37    32    37   am
    38    31    34    1
    39    38    37    1
    40    38    39    1
    41    39    40   ar
    42    39    45   ar
    43    34    36    1
    44    34    35    1
