@<TRIPOS>MOLECULE
3kdb_006_B_1.pdb
 46 50 0 0 0
SMALL
GASTEIGER

@<TRIPOS>ATOM
      1  N2        14.3550   21.0610   18.0380 N.am  100  006100     -0.2006
      2  N2        18.6240   24.7650   17.5370 N.3   100  006100     -0.0824
      3  C20       15.1500   22.1960   17.5930 C.3   100  006100      0.1390
      4  O20       14.1300   23.9720   18.8530 O.3   100  006100     -0.2114
      5  C21       14.5770   22.8430   16.3280 C.3   100  006100      0.0511
      6  O21       16.6550   24.9000   17.9030 O.2   100  006100     -0.2720
      7  C22       14.3260   21.7680   15.2890 C.ar  100  006100     -0.0204
      8  C23       15.3940   21.2690   14.5290 C.ar  100  006100     -0.0042
      9  C24       15.1610   20.2750   13.5830 C.ar  100  006100     -0.0003
     10  C25       13.8700   19.7640   13.3920 C.ar  100  006100     -0.0000
     11  C26       12.8060   20.2570   14.1440 C.ar  100  006100     -0.0003
     12  C27       13.0280   21.2600   15.0940 C.ar  100  006100     -0.0042
     13  C28       15.2960   23.1430   18.7730 C.3   100  006100      0.2475
     14  C29       16.5830   23.9190   18.6370 C.2   100  006100      0.2587
     15  N30       20.1530   25.4420   17.7460 N.3   100  006100     -0.1700
     16  O30       21.6980   27.6060   17.8290 O.3   100  006100     -0.2209
     17  C31       21.0700   25.5670   16.6340 C.3   100  006100      0.1291
     18  C32       20.4350   26.1520   15.4360 C.ar  100  006100     -0.0078
     19  C33       19.1930   25.8790   14.8800 C.ar  100  006100     -0.0032
     20  C34       18.8180   26.5860   13.7300 C.ar  100  006100     -0.0003
     21  C35       22.1730   26.6000   16.9330 C.3   100  006100      0.1764
     22  C36       21.3060   27.1690   14.8340 C.ar  100  006100     -0.0222
     23  C37       20.9130   27.8650   13.6900 C.ar  100  006100     -0.0045
     24  C38       19.6550   27.5570   13.1540 C.ar  100  006100     -0.0003
     25  C39       22.5760   27.2890   15.6250 C.3   100  006100      0.0607
     26  C40       10.1730   15.8850   19.6630 C.ar  100  006100     -0.0004
     27  O40       16.1720   19.7610   18.2460 O.2   100  006100     -0.2693
     28  C41       10.1750   16.5910   18.4640 C.ar  100  006100     -0.0013
     29  O41       12.8480   19.0910   19.2010 O.3   100  006100     -0.4662
     30  C42       11.0410   17.6600   18.2630 C.ar  100  006100      0.0118
     31  C43       11.0320   18.4150   16.9610 C.3   100  006100      0.0342
     32  C44       12.8260   17.5730   21.7930 C.3   100  006100      0.0342
     33  C45       11.9660   18.0460   19.3610 C.ar  100  006100      0.1312
     34  C46       11.9330   17.2500   20.6250 C.ar  100  006100      0.0118
     35  C47       11.0230   16.2040   20.7220 C.ar  100  006100     -0.0013
     36  C48       14.9720   19.9080   18.3080 C.2   100  006100      0.2859
     37  C49       14.1210   18.7160   18.6630 C.3   100  006100      0.2911
     38  C50       17.7160   22.1440   20.0110 C.3   100  006100      0.1524
     39  N50       17.6330   23.4390   19.3100 N.am  100  006100     -0.2631
     40  O50       19.5990   23.3000   17.3280 O.3   100  006100     -0.1857
     41  S50       19.3760   21.9540   20.5290 S.3   100  006100     -0.1185
     42  C51       19.7650   23.6750   20.5160 C.3   100  006100      0.0628
     43  C52       19.2720   24.3150   21.8220 C.3   100  006100      0.0127
     44  C53       21.2650   23.8740   20.3390 C.3   100  006100      0.0127
     45  C54       18.8770   24.2240   19.3950 C.3   100  006100      0.1462
     46  C55       19.5800   24.2790   18.0540 C.3   100  006100      0.2810
@<TRIPOS>BOND
     1    24    23   ar
     2    24    20   ar
     3    10     9   ar
     4    10    11   ar
     5     9     8   ar
     6    23    22   ar
     7    20    19   ar
     8    11    12   ar
     9     8     7   ar
    10    22    18   ar
    11    22    25    1
    12    19    18   ar
    13    12     7   ar
    14     7     5    1
    15    18    17    1
    16    25    21    1
    17     5     3    1
    18    17    21    1
    19    17    15    1
    20    21    16    1
    21    31    30    1
    22    40    46    1
    23     2    46    1
    24     3     1    1
    25     3    13    1
    26    15    46    1
    27     6    14    2
    28     1    36   am
    29    46    45    1
    30    27    36    2
    31    30    28   ar
    32    30    33   ar
    33    36    37    1
    34    28    26   ar
    35    14    13    1
    36    14    39   am
    37    37    29    1
    38    13     4    1
    39    29    33    1
    40    39    45    1
    41    39    38    1
    42    33    34   ar
    43    45    42    1
    44    26    35   ar
    45    38    41    1
    46    44    42    1
    47    42    41    1
    48    42    43    1
    49    34    35   ar
    50    34    32    1
