@<TRIPOS>MOLECULE
3kdc_JZP_A_1.pdb
 45 49 0 0 0
SMALL
GASTEIGER

@<TRIPOS>ATOM
      1 CL1        12.3610   17.6690   21.3570 Cl    100  JZP100     -0.0791
      2  O2        12.5220   19.2220   18.6710 O.3   100  JZP100     -0.4638
      3 CL2        10.9940   18.8880   16.0050 Cl    100  JZP100     -0.0791
      4  O8        15.9660   19.9430   18.2290 O.2   100  JZP100     -0.2693
      5  C12       14.7570   20.0670   18.1290 C.2   100  JZP100      0.2859
      6  C21       13.8830   18.8690   18.4160 C.3   100  JZP100      0.2912
      7  C40        9.7250   16.0700   18.6660 C.ar  100  JZP100      0.0019
      8  C41       10.4720   16.3220   19.8200 C.ar  100  JZP100      0.0145
      9  C42       11.4100   17.3510   19.8710 C.ar  100  JZP100      0.0924
     10  C45       11.6040   18.2030   18.6760 C.ar  100  JZP100      0.1601
     11  C46       10.7920   17.8950   17.4760 C.ar  100  JZP100      0.0924
     12  C47        9.8770   16.8430   17.5100 C.ar  100  JZP100      0.0145
     13  C16       16.3170   24.1220   18.5250 C.2   100  JZP100      0.2589
     14  N2        14.1570   21.2080   17.7710 N.am  100  JZP100     -0.2006
     15  O3        16.3310   25.1970   17.9420 O.2   100  JZP100     -0.2720
     16  C14       15.0390   23.3230   18.5620 C.3   100  JZP100      0.2475
     17  C22       13.9620   21.9860   15.0950 C.ar  100  JZP100     -0.0204
     18  C15       14.3410   23.0380   16.1090 C.3   100  JZP100      0.0511
     19  C25       13.2340   20.0370   13.2390 C.ar  100  JZP100     -0.0000
     20  C13       14.9220   22.3780   17.3640 C.3   100  JZP100      0.1390
     21  O5        13.9170   24.2070   18.6240 O.3   100  JZP100     -0.2114
     22  C23       14.9490   21.2490   14.4360 C.ar  100  JZP100     -0.0042
     23  C27       12.6140   21.7490   14.8250 C.ar  100  JZP100     -0.0042
     24  C24       14.5820   20.2760   13.5060 C.ar  100  JZP100     -0.0003
     25  C26       12.2490   20.7750   13.8970 C.ar  100  JZP100     -0.0003
     26  C20       19.3450   24.4260   17.8850 C.2   100  JZP100      0.2606
     27  N3        17.3870   23.6120   19.1520 N.am  100  JZP100     -0.2602
     28  O4        19.3530   23.4370   17.1670 O.2   100  JZP100     -0.2715
     29  C17       18.6460   24.3770   19.2200 C.3   100  JZP100      0.1633
     30  C18       19.5500   23.8300   20.3260 C.3   100  JZP100      0.0661
     31  C19       17.4670   22.3010   19.8110 C.3   100  JZP100      0.1527
     32  C29       21.0490   23.9300   20.0560 C.3   100  JZP100      0.0131
     33  C30       19.2370   24.5230   21.6310 C.3   100  JZP100      0.0131
     34  S1        19.0900   22.1470   20.4520 S.3   100  JZP100     -0.1182
     35  N4        19.9230   25.5870   17.5570 N.am  100  JZP100     -0.1986
     36  O7        21.6270   27.5140   17.8270 O.3   100  JZP100     -0.2206
     37  C31       20.7920   25.7330   16.4030 C.3   100  JZP100      0.1478
     38  C32       20.0660   26.2750   15.2420 C.ar  100  JZP100     -0.0040
     39  C33       18.8850   25.8130   14.6750 C.ar  100  JZP100     -0.0029
     40  C34       18.3920   26.5040   13.5630 C.ar  100  JZP100     -0.0003
     41  C35       21.9070   26.7660   16.6410 C.3   100  JZP100      0.1802
     42  C36       20.7590   27.4370   14.6840 C.ar  100  JZP100     -0.0218
     43  C37       20.2490   28.1080   13.5820 C.ar  100  JZP100     -0.0044
     44  C38       19.0570   27.6210   13.0310 C.ar  100  JZP100     -0.0003
     45  C39       22.0080   27.7460   15.4610 C.3   100  JZP100      0.0611
@<TRIPOS>BOND
     1    44    40   ar
     2    44    43   ar
     3    19    24   ar
     4    19    25   ar
     5    24    22   ar
     6    40    39   ar
     7    43    42   ar
     8    25    23   ar
     9    22    17   ar
    10    39    38   ar
    11    42    38   ar
    12    42    45    1
    13    23    17   ar
    14    17    18    1
    15    38    37    1
    16    45    41    1
    17     3    11    1
    18    18    20    1
    19    37    41    1
    20    37    35    1
    21    41    36    1
    22    28    26    2
    23    20    14    1
    24    20    16    1
    25    11    12   ar
    26    11    10   ar
    27    12     7   ar
    28    35    26   am
    29    14     5   am
    30    26    29    1
    31    15    13    2
    32     5     4    2
    33     5     6    1
    34     6     2    1
    35    13    16    1
    36    13    27   am
    37    16    21    1
    38     7     8   ar
    39     2    10    1
    40    10     9   ar
    41    27    29    1
    42    27    31    1
    43    29    30    1
    44    31    34    1
    45     8     9   ar
    46     9     1    1
    47    32    30    1
    48    30    34    1
    49    30    33    1
