@<TRIPOS>MOLECULE
3kdd_JZQ_A_1.pdb
 45 49 0 0 0
SMALL
GASTEIGER

@<TRIPOS>ATOM
      1  F1        20.9360   27.7840   13.9310 F     100  JZQ100     -0.2009
      2  F2        21.8310   26.5760   18.4360 F     100  JZQ100     -0.2009
      3  O2        20.1430   26.5120   16.2750 O.3   100  JZQ100     -0.4610
      4  O8        18.5390   23.4190   15.6150 O.2   100  JZQ100     -0.2693
      5  C12       18.8880   24.4270   16.2010 C.2   100  JZQ100      0.2859
      6  C21       20.0300   25.2410   15.6370 C.3   100  JZQ100      0.2913
      7  C40       23.8070   28.4700   16.0460 C.ar  100  JZQ100      0.0048
      8  C41       22.9650   28.4430   14.9370 C.ar  100  JZQ100      0.0329
      9  C42       21.7370   27.7920   15.0110 C.ar  100  JZQ100      0.1761
     10  C45       21.3510   27.1650   16.1920 C.ar  100  JZQ100      0.1937
     11  C46       22.1970   27.1830   17.2930 C.ar  100  JZQ100      0.1761
     12  C47       23.4240   27.8360   17.2230 C.ar  100  JZQ100      0.0329
     13  C16       14.8800   23.4820   17.6680 C.2   100  JZQ100      0.2589
     14  N2        18.3120   24.8540   17.3280 N.am  100  JZQ100     -0.2006
     15  O3        14.3210   23.1510   18.7030 O.2   100  JZQ100     -0.2720
     16  C14       15.9400   24.5570   17.7100 C.3   100  JZQ100      0.2475
     17  C22       19.0230   23.4480   19.7890 C.ar  100  JZQ100     -0.0204
     18  C15       17.6560   24.0460   19.5430 C.3   100  JZQ100      0.0511
     19  C25       21.5480   22.3650   20.2370 C.ar  100  JZQ100     -0.0000
     20  C13       17.3440   24.0400   18.0450 C.3   100  JZQ100      0.1390
     21  O5        15.5370   25.5580   18.6490 O.3   100  JZQ100     -0.2114
     22  C23       19.1960   22.0620   19.7970 C.ar  100  JZQ100     -0.0042
     23  C27       20.1130   24.2890   20.0070 C.ar  100  JZQ100     -0.0042
     24  C24       20.4580   21.5220   20.0270 C.ar  100  JZQ100     -0.0003
     25  C26       21.3800   23.7500   20.2270 C.ar  100  JZQ100     -0.0003
     26  C20       13.7810   20.6630   17.0470 C.2   100  JZQ100      0.2606
     27  N3        14.5650   22.9520   16.4800 N.am  100  JZQ100     -0.2602
     28  O4        14.8870   20.1430   16.9220 O.2   100  JZQ100     -0.2715
     29  C17       13.4670   21.9680   16.3660 C.3   100  JZQ100      0.1633
     30  C18       13.0320   21.7570   14.9090 C.3   100  JZQ100      0.0661
     31  C19       15.2200   23.2390   15.1980 C.3   100  JZQ100      0.1527
     32  C29       11.9340   22.7570   14.5910 C.3   100  JZQ100      0.0131
     33  C30       12.5540   20.3490   14.5550 C.3   100  JZQ100      0.0131
     34  S1        14.4870   22.1630   14.0230 S.3   100  JZQ100     -0.1182
     35  N4        12.7750   20.1510   17.7610 N.am  100  JZQ100     -0.1986
     36  O7        10.3050   19.0900   18.0860 O.3   100  JZQ100     -0.2206
     37  C31       12.7160   18.7520   18.1230 C.3   100  JZQ100      0.1478
     38  C32       12.9200   18.5560   19.5700 C.ar  100  JZQ100     -0.0040
     39  C33       13.8460   19.2030   20.3720 C.ar  100  JZQ100     -0.0029
     40  C34       13.8510   18.8560   21.7200 C.ar  100  JZQ100     -0.0003
     41  C35       11.3370   18.1130   17.9220 C.3   100  JZQ100      0.1802
     42  C36       12.0610   17.6130   20.0750 C.ar  100  JZQ100     -0.0218
     43  C37       12.0500   17.2580   21.4170 C.ar  100  JZQ100     -0.0044
     44  C38       12.9700   17.9010   22.2350 C.ar  100  JZQ100     -0.0003
     45  C39       11.1530   17.0670   19.0160 C.3   100  JZQ100      0.0611
@<TRIPOS>BOND
     1     1     9    1
     2    34    30    1
     3    34    31    1
     4    33    30    1
     5    32    30    1
     6    30    29    1
     7     8     9   ar
     8     8     7   ar
     9     9    10   ar
    10    31    27    1
    11     4     5    2
    12     6     5    1
    13     6     3    1
    14     7    12   ar
    15    10     3    1
    16    10    11   ar
    17     5    14   am
    18    29    27    1
    19    29    26    1
    20    27    13   am
    21    28    26    2
    22    26    35   am
    23    12    11   ar
    24    11     2    1
    25    14    20    1
    26    13    16    1
    27    13    15    2
    28    16    20    1
    29    16    21    1
    30    35    37    1
    31    41    36    1
    32    41    37    1
    33    41    45    1
    34    20    18    1
    35    37    38    1
    36    45    42    1
    37    18    17    1
    38    38    42   ar
    39    38    39   ar
    40    17    22   ar
    41    17    23   ar
    42    22    24   ar
    43    23    25   ar
    44    24    19   ar
    45    42    43   ar
    46    25    19   ar
    47    39    40   ar
    48    43    44   ar
    49    40    44   ar
