@<TRIPOS>MOLECULE
3kdm_TES_B_1.pdb
 21 24 0 0 0
SMALL
GASTEIGER

@<TRIPOS>ATOM
      1  C1        69.7270  -21.0090    0.7100 C.3   226  TES226      0.0118
      2  C2        70.9460  -20.4300    1.4630 C.3   226  TES226      0.0694
      3  C3        71.1790  -18.9900    1.0700 C.2   226  TES226      0.1725
      4  O3        72.3000  -18.4680    1.1390 O.2   226  TES226     -0.2914
      5  C4        70.0350  -18.1960    0.5910 C.2   226  TES226      0.0289
      6  C5        68.8010  -18.6960    0.4050 C.2   226  TES226     -0.0420
      7  C6        67.7670  -17.7310   -0.0780 C.3   226  TES226      0.0221
      8  C7        66.8780  -18.3310   -1.1550 C.3   226  TES226      0.0044
      9  C8        66.3930  -19.7300   -0.7930 C.3   226  TES226      0.0007
     10  C9        67.5420  -20.6850   -0.4520 C.3   226  TES226      0.0035
     11  C10       68.4590  -20.1460    0.6650 C.3   226  TES226      0.0157
     12  C11       67.0620  -22.1220   -0.1740 C.3   226  TES226      0.0004
     13  C12       66.1420  -22.6510   -1.2910 C.3   226  TES226      0.0025
     14  C13       65.0180  -21.6740   -1.5990 C.3   226  TES226      0.0282
     15  C14       65.6110  -20.3300   -1.9500 C.3   226  TES226      0.0025
     16  C15       64.4130  -19.5420   -2.4460 C.3   226  TES226      0.0027
     17  C16       63.5870  -20.6090   -3.1810 C.3   226  TES226      0.0329
     18  C17       64.1790  -21.9830   -2.8330 C.3   226  TES226      0.1519
     19  O17       63.1290  -22.9320   -2.5760 O.3   226  TES226     -0.2232
     20  C18       64.0720  -21.5150   -0.4090 C.3   226  TES226      0.0025
     21  C19       67.7540  -20.2590    2.0090 C.3   226  TES226      0.0041
@<TRIPOS>BOND
     1    17    18    1
     2    17    16    1
     3    18    19    1
     4    18    14    1
     5    16    15    1
     6    15    14    1
     7    15     9    1
     8    14    13    1
     9    14    20    1
    10    13    12    1
    11     8     9    1
    12     8     7    1
    13     9    10    1
    14    10    12    1
    15    10    11    1
    16     7     6    1
    17     6     5    2
    18     6    11    1
    19     5     3    1
    20    11     1    1
    21    11    21    1
    22     1     2    1
    23     3     4    2
    24     3     2    1
