@<TRIPOS>MOLECULE
3kdp_CLR_B_1.pdb
 28 31 0 0 0
SMALL
GASTEIGER

@<TRIPOS>ATOM
      1  C1       -12.7020    7.9360   68.8910 C.3   3001  CLR3001     0.0026
      2  C2       -13.1100    8.4830   67.5210 C.3   3001  CLR3001     0.0329
      3  C3       -14.1230    7.6110   66.7610 C.3   3001  CLR3001     0.1520
      4  C4       -15.2010    7.0370   67.7150 C.3   3001  CLR3001     0.0329
      5  C5       -14.9030    6.7810   69.2170 C.3   3001  CLR3001     0.0025
      6  C6       -14.7550    5.2950   69.5030 C.3   3001  CLR3001     0.0001
      7  C7       -14.4400    4.9910   70.9610 C.3   3001  CLR3001     0.0000
      8  C8       -14.3030    6.2110   71.8750 C.3   3001  CLR3001     0.0000
      9  C9       -13.3080    7.1720   71.2320 C.3   3001  CLR3001     0.0000
     10  C10      -13.8580    7.7050   69.8740 C.3   3001  CLR3001     0.0002
     11  C11      -12.9640    8.2840   72.2440 C.3   3001  CLR3001     0.0000
     12  C12      -12.4950    7.8200   73.6340 C.3   3001  CLR3001     0.0000
     13  C13      -13.4160    6.7910   74.2870 C.3   3001  CLR3001     0.0000
     14  C14      -13.7020    5.7280   73.1990 C.3   3001  CLR3001     0.0000
     15  C15      -14.4420    4.6280   73.9420 C.3   3001  CLR3001     0.0000
     16  C16      -13.6640    4.5680   75.2600 C.3   3001  CLR3001     0.0000
     17  C17      -12.8240    5.8670   75.3930 C.3   3001  CLR3001     0.0000
     18  C18      -14.6610    7.4800   74.7990 C.3   3001  CLR3001     0.0000
     19  C19      -14.5870    9.0300   70.1510 C.3   3001  CLR3001     0.0000
     20  C20      -12.7740    6.2700   76.8850 C.3   3001  CLR3001     0.0000
     21  C21      -11.8510    7.4540   77.1250 C.3   3001  CLR3001     0.0000
     22  C22      -12.2760    5.0670   77.7370 C.3   3001  CLR3001     0.0000
     23  C23      -11.9370    5.3350   79.2190 C.3   3001  CLR3001     0.0000
     24  C24      -12.9380    4.6300   80.1800 C.3   3001  CLR3001     0.0000
     25  C25      -13.1020    5.1460   81.6500 C.3   3001  CLR3001     0.0000
     26  C26      -14.4630    5.8330   81.8550 C.3   3001  CLR3001     0.0000
     27  C27      -12.8870    4.0620   82.7210 C.3   3001  CLR3001     0.0000
     28  O1       -14.7510    8.4300   65.7780 O.3   3001  CLR3001    -0.2232
@<TRIPOS>BOND
     1    28     3    1
     2     3     2    1
     3     3     4    1
     4     2     1    1
     5     4     5    1
     6     1    10    1
     7     5     6    1
     8     5    10    1
     9     6     7    1
    10    10    19    1
    11    10     9    1
    12     7     8    1
    13     9     8    1
    14     9    11    1
    15     8    14    1
    16    11    12    1
    17    14    15    1
    18    14    13    1
    19    12    13    1
    20    15    16    1
    21    13    18    1
    22    13    17    1
    23    16    17    1
    24    17    20    1
    25    20    21    1
    26    20    22    1
    27    22    23    1
    28    23    24    1
    29    24    25    1
    30    25    26    1
    31    25    27    1
