@<TRIPOS>MOLECULE
3kds_NHX_E_1.pdb
 33 34 0 0 0
SMALL
GASTEIGER

@<TRIPOS>ATOM
      1  C         32.4960    8.4270   26.3180 C.2   998  NHX998      0.2806
      2  N         32.4400   10.9580   26.1380 N.am  998  NHX998     -0.1963
      3  O         33.0630    7.3360   26.2120 O.2   998  NHX998     -0.2698
      4  CA        33.2590    9.7300   26.0270 C.3   998  NHX998      0.1745
      5  CB        34.3590    9.8340   27.0650 C.3   998  NHX998      0.0334
      6  CAA       33.7960   13.8840   22.2130 C.3   998  NHX998      0.0000
      7  CAB       34.3970   15.7790   20.5530 C.3   998  NHX998      0.0000
      8  NAD       31.2410    8.5840   26.7290 N.am  998  NHX998     -0.0863
      9  OAF       29.3240   17.4460   21.2610 O.2   998  NHX998     -0.5395
     10  OAG       32.3680   14.9040   24.8750 O.2   998  NHX998     -0.2733
     11  OAH       31.7760   10.9270   23.9670 O.2   998  NHX998     -0.2715
     12  OAI       30.7880   19.4970   21.2000 O.3   998  NHX998     -0.4026
     13  CAJ       26.7410    7.9280   22.5420 C.ar  998  NHX998     -0.0000
     14  CAK       28.0560    8.0320   22.1330 C.ar  998  NHX998     -0.0000
     15  CAL       27.4700   11.3100   25.9170 C.ar  998  NHX998     -0.0042
     16  CAM       26.2710    8.7130   23.5780 C.ar  998  NHX998     -0.0000
     17  CAN       28.9030    8.9280   22.7640 C.ar  998  NHX998     -0.0000
     18  CAO       26.6450   10.3930   25.2630 C.ar  998  NHX998     -0.0003
     19  CAP       29.2620   10.6260   24.4410 C.ar  998  NHX998     -0.0042
     20  CAQ       30.2650   16.6520   23.3540 C.3   998  NHX998      0.0603
     21  CAR       29.7370   12.3860   26.1930 C.3   998  NHX998      0.0574
     22  CAS       32.4980   16.1730   22.2040 C.3   998  NHX998      0.0095
     23  NAT       30.8990   18.6630   22.2990 N.am  998  NHX998     -0.2030
     24  NAV       30.6950   13.5730   24.2240 N.am  998  NHX998     -0.1974
     25  CAX       30.1680   17.5830   22.1800 C.2   998  NHX998      0.0873
     26  CAY       31.4640   14.6460   24.0820 C.2   998  NHX998      0.2417
     27  CAZ       31.8060   11.4680   25.0810 C.2   998  NHX998      0.2619
     28  CBA       28.7870   11.4290   25.4780 C.ar  998  NHX998     -0.0200
     29  CBB       27.1180    9.6080   24.2120 C.ar  998  NHX998     -0.0000
     30  CBC       28.4320    9.7210   23.8010 C.ar  998  NHX998     -0.0003
     31  CBD       33.2850   15.1100   21.3940 C.3   998  NHX998      0.0005
     32  CBF       31.2280   15.5600   22.8900 C.3   998  NHX998      0.0845
     33  CBG       31.0130   12.7550   25.4060 C.3   998  NHX998      0.1770
@<TRIPOS>BOND
     1     7    31    1
     2    12    23    1
     3     9    25    2
     4    31    22    1
     5    31     6    1
     6    14    13   ar
     7    14    17   ar
     8    25    23   am
     9    25    20    1
    10    22    32    1
    11    13    16   ar
    12    17    30   ar
    13    32    20    1
    14    32    26    1
    15    16    29   ar
    16    30    29   ar
    17    30    19   ar
    18    11    27    2
    19    26    24   am
    20    26    10    2
    21    29    18   ar
    22    24    33    1
    23    19    28   ar
    24    27    33    1
    25    27     2   am
    26    18    15   ar
    27    33    21    1
    28    28    15   ar
    29    28    21    1
    30     4     2    1
    31     4     1    1
    32     4     5    1
    33     3     1    2
    34     1     8   am
