@<TRIPOS>MOLECULE
3kdt_7HA_A_1.pdb
 31 33 0 0 0
SMALL
GASTEIGER

@<TRIPOS>ATOM
      1  C1         0.7750   17.1400   -8.1040 C.3   501  7HA501      0.0550
      2  C2         1.9370   17.2450   -9.0650 C.3   501  7HA501      0.2197
      3  C3         3.2110   16.6640   -8.9570 C.2   501  7HA501      0.1736
      4  N4         3.8940   17.0490  -10.0430 N.2   501  7HA501     -0.3692
      5  C5         3.0600   17.8140  -10.7780 C.2   501  7HA501      0.2772
      6  O6         1.9200   17.9160  -10.1670 O.2   501  7HA501     -0.4484
      7  C7         3.4880   18.4620  -12.0520 C.ar  501  7HA501      0.0661
      8  C8         2.6210   18.8410  -13.0830 C.ar  501  7HA501      0.0066
      9  C9         3.1520   19.4660  -14.2120 C.ar  501  7HA501      0.0116
     10  C10        4.5300   19.7200  -14.2870 C.ar  501  7HA501      0.0577
     11  C11        5.3840   19.3560  -13.2520 C.ar  501  7HA501      0.0116
     12  C12        4.8530   18.7370  -12.1390 C.ar  501  7HA501      0.0066
     13 CL13        5.2700   20.4970  -15.6560 Cl    501  7HA501     -0.0822
     14  C14        3.7690   15.7740   -7.8760 C.3   501  7HA501      0.2629
     15  O15        2.6810   15.1100   -7.1990 O.3   501  7HA501     -0.4681
     16  C16        2.7930   13.9700   -6.5350 C.ar  501  7HA501      0.1389
     17  C17        4.0260   13.6090   -5.9810 C.ar  501  7HA501      0.0369
     18  C18        4.1240   12.4110   -5.2980 C.ar  501  7HA501      0.0028
     19  C19        3.0210   11.5810   -5.1520 C.ar  501  7HA501     -0.0024
     20  C20        1.7900   11.9430   -5.6830 C.ar  501  7HA501      0.0008
     21  C21        1.6850   13.1370   -6.3850 C.ar  501  7HA501      0.0343
     22  C22        0.6280   11.0050   -5.5240 C.3   501  7HA501      0.1241
     23  N23        0.2710   10.5680   -6.8690 N.am  501  7HA501     -0.2311
     24  C24        1.1580    9.7170   -7.6680 C.3   501  7HA501      0.2113
     25  C25        0.9050    8.2530   -7.4100 C.2   501  7HA501      0.3848
     26  O26        1.8000    7.4600   -7.6350 O.co2 501  7HA501     -0.2437
     27  O27       -0.2670    7.8290   -6.9510 O.co2 501  7HA501     -0.2437
     28  C28       -0.8670   11.0040   -7.4070 C.2   501  7HA501      0.4057
     29  O29       -1.6470   11.6520   -6.7330 O.2   501  7HA501     -0.2262
     30  O30       -1.1360   10.7410   -8.6810 O.3   501  7HA501     -0.4304
     31  C31       -2.0690    9.6790   -9.0220 C.3   501  7HA501      0.2573
@<TRIPOS>BOND
     1    13    10    1
     2    10     9   ar
     3    10    11   ar
     4     9     8   ar
     5    11    12   ar
     6     8     7   ar
     7    12     7   ar
     8     7     5    1
     9     5     6    1
    10     5     4    2
    11     6     2    1
    12     4     3    2
    13     2     3    1
    14     2     1    1
    15    31    30    1
    16     3    14    1
    17    30    28    1
    18    14    15    1
    19    24    25    1
    20    24    23    1
    21    26    25   ar
    22    25    27   ar
    23    28    23   am
    24    28    29    2
    25    15    16    1
    26    23    22    1
    27    16    21   ar
    28    16    17   ar
    29    21    20   ar
    30    17    18   ar
    31    20    22    1
    32    20    19   ar
    33    18    19   ar
