@<TRIPOS>MOLECULE
3kdu_NKS_A_1.pdb
 37 40 0 0 0
SMALL
GASTEIGER

@<TRIPOS>ATOM
      1  C1        27.6340   48.4050   16.6830 C.3   501  NKS501      0.0310
      2  C2        28.3160   47.2920   17.4400 C.ar  501  NKS501     -0.0217
      3  C3        28.0440   45.9620   17.1270 C.ar  501  NKS501     -0.0011
      4  C4        28.6780   44.9410   17.8390 C.ar  501  NKS501      0.0373
      5  C5        29.5960   45.2270   18.8560 C.ar  501  NKS501      0.1500
      6  C6        29.8470   46.5680   19.1520 C.ar  501  NKS501      0.0373
      7  C7        29.2170   47.6020   18.4550 C.ar  501  NKS501     -0.0011
      8  O8        30.2080   44.2640   19.5560 O.3   501  NKS501     -0.4101
      9  C9        30.9210   43.2700   19.0120 C.2   501  NKS501      0.4101
     10  O10       30.6620   42.8660   17.8900 O.2   501  NKS501     -0.2258
     11  N11       31.9280   42.6760   19.6680 N.am  501  NKS501     -0.2308
     12  C12       32.2230   43.0200   21.0660 C.3   501  NKS501      0.1241
     13  C13       33.5290   43.7690   21.1140 C.ar  501  NKS501      0.0008
     14  C14       34.6960   43.1210   21.5160 C.ar  501  NKS501     -0.0024
     15  C15       35.9020   43.8180   21.5310 C.ar  501  NKS501      0.0028
     16  C16       35.9270   45.1550   21.1510 C.ar  501  NKS501      0.0369
     17  C17       34.7570   45.8000   20.7450 C.ar  501  NKS501      0.1389
     18  C18       33.5550   45.1060   20.7240 C.ar  501  NKS501      0.0343
     19  O19       34.7660   47.0780   20.3700 O.3   501  NKS501     -0.4681
     20  C20       35.8380   47.5700   19.5370 C.3   501  NKS501      0.2629
     21  C21       35.3840   48.6360   18.5690 C.2   501  NKS501      0.1736
     22  C22       34.2630   49.4830   18.5980 C.3   501  NKS501      0.2197
     23  O23       34.3290   50.2150   17.5370 O.2   501  NKS501     -0.4484
     24  C24       35.3790   49.9150   16.8360 C.2   501  NKS501      0.2772
     25  N25       36.0670   48.9370   17.4440 N.2   501  NKS501     -0.3692
     26  C26       35.7530   50.5990   15.5770 C.ar  501  NKS501      0.0661
     27  C27       36.9770   50.3440   14.9600 C.ar  501  NKS501      0.0066
     28  C28       37.2970   51.0300   13.7880 C.ar  501  NKS501      0.0116
     29  C29       36.3870   51.9490   13.2610 C.ar  501  NKS501      0.0577
     30  C30       35.1700   52.2010   13.8870 C.ar  501  NKS501      0.0116
     31  C31       34.8520   51.5240   15.0560 C.ar  501  NKS501      0.0066
     32 CL32       36.7660   52.8120   11.8070 Cl    501  NKS501     -0.0822
     33  C33       33.1360   49.5830   19.6090 C.3   501  NKS501      0.0550
     34  C34       32.7320   41.6720   18.9520 C.3   501  NKS501      0.2113
     35  C35       32.3940   40.2470   19.3450 C.2   501  NKS501      0.3848
     36  O36       33.2020   39.3410   19.1780 O.co2 501  NKS501     -0.2437
     37  O37       31.2110   39.9470   19.8710 O.co2 501  NKS501     -0.2437
@<TRIPOS>BOND
     1    32    29    1
     2    29    28   ar
     3    29    30   ar
     4    28    27   ar
     5    30    31   ar
     6    27    26   ar
     7    31    26   ar
     8    26    24    1
     9     1     2    1
    10    24    25    2
    11    24    23    1
    12     3     2   ar
    13     3     4   ar
    14     2     7   ar
    15    25    21    2
    16    23    22    1
    17     4     5   ar
    18    10     9    2
    19     7     6   ar
    20    21    22    1
    21    21    20    1
    22    22    33    1
    23     5     6   ar
    24     5     8    1
    25    34    35    1
    26    34    11    1
    27     9     8    1
    28     9    11   am
    29    36    35   ar
    30    35    37   ar
    31    20    19    1
    32    11    12    1
    33    19    17    1
    34    18    17   ar
    35    18    13   ar
    36    17    16   ar
    37    12    13    1
    38    13    14   ar
    39    16    15   ar
    40    14    15   ar
