@<TRIPOS>MOLECULE
3kdz_TYR_A_1.pdb
 13 13 0 0 0
SMALL
GASTEIGER

@<TRIPOS>ATOM
      1  N        -23.7590   12.4480   29.9840 N.3   600  TYR600     -0.1205
      2  CA       -25.1660   12.1230   29.7100 C.3   600  TYR600      0.1986
      3  C        -25.8320   13.2130   28.8700 C.2   600  TYR600      0.3822
      4  O        -26.5980   12.8240   27.9620 O.co2 600  TYR600     -0.2440
      5  CB       -25.9450   11.9280   31.0120 C.3   600  TYR600      0.0569
      6  CG       -25.8470   10.4820   31.5010 C.ar  600  TYR600     -0.0200
      7  CD1      -25.2470    9.5190   30.6950 C.ar  600  TYR600     -0.0009
      8  CD2      -26.4300   10.1140   32.7080 C.ar  600  TYR600     -0.0009
      9  CE1      -25.2450    8.1870   31.0910 C.ar  600  TYR600      0.0417
     10  CE2      -26.4260    8.7800   33.1030 C.ar  600  TYR600      0.0417
     11  CZ       -25.8390    7.8150   32.2930 C.ar  600  TYR600      0.1957
     12  OH       -25.8750    6.5050   32.6530 O.3   600  TYR600     -0.2866
     13  OXT      -25.5750   14.4010   29.1660 O.co2 600  TYR600     -0.2440
@<TRIPOS>BOND
     1     4     3   ar
     2     3    13   ar
     3     3     2    1
     4     2     1    1
     5     2     5    1
     6     7     9   ar
     7     7     6   ar
     8     5     6    1
     9     9    11   ar
    10     6     8   ar
    11    11    12    1
    12    11    10   ar
    13     8    10   ar
