@<TRIPOS>MOLECULE
3ke1_829_A_1.pdb
 25 27 0 0 0
SMALL
GASTEIGER

@<TRIPOS>ATOM
      1  N1        10.1390  -27.0120  -24.4960 N.am  164  829164     -0.1778
      2  C2        10.5030  -26.7020  -25.7760 C.1   164  829164      0.2756
      3  O2         9.7320  -26.8650  -26.7460 O.2   164  829164     -0.1925
      4  N3        11.7360  -26.2120  -26.0680 N.2   164  829164     -0.3024
      5  C4        12.6400  -25.9670  -25.0900 C.2   164  829164      0.2346
      6  N4        13.8590  -25.4630  -25.4000 N.pl3 164  829164     -0.0921
      7  C5        12.3050  -26.2560  -23.7760 C.2   164  829164      0.0687
      8  C6        11.0350  -26.7700  -23.5110 C.2   164  829164      0.0836
      9  C07        9.6920  -26.3950  -19.2220 C.2   164  829164      0.2650
     10  C08        8.2700  -27.4230  -17.3210 C.ar  164  829164      0.0252
     11  C09        8.1160  -27.7200  -15.9530 C.ar  164  829164      0.0990
     12  C1'        8.7850  -27.5340  -24.1420 C.3   164  829164      0.2400
     13  N10        9.0590  -27.3830  -15.0520 N.ar  164  829164     -0.2423
     14  C11       10.1870  -26.7350  -15.4310 C.ar  164  829164      0.0990
     15  C12       10.3960  -26.4110  -16.7790 C.ar  164  829164      0.0252
     16  C13        9.4270  -26.7480  -17.7570 C.ar  164  829164      0.0581
     17  O15       10.8260  -26.5610  -19.6360 O.2   164  829164     -0.2684
     18  C2'        8.7670  -28.8590  -23.3630 C.3   164  829164      0.2319
     19  O2'        7.5870  -29.5910  -23.7240 O.3   164  829164     -0.2157
     20  C3'        8.6620  -28.4240  -21.9070 C.3   164  829164      0.2151
     21  O3'        8.0960  -29.3840  -21.0110 O.3   164  829164     -0.2176
     22  C4'        7.7550  -27.2230  -22.0240 C.3   164  829164      0.1717
     23  O4'        8.1870  -26.5670  -23.2460 O.3   164  829164     -0.3327
     24  C5'        7.6070  -26.4410  -20.6930 C.3   164  829164      0.1476
     25  N5'        8.7830  -25.8530  -20.0620 N.am  164  829164     -0.1990
@<TRIPOS>BOND
     1     3     2    2
     2     4     2    2
     3     4     5    2
     4     2     1   am
     5     6     5    1
     6     5     7    1
     7     1    12    1
     8     1     8    1
     9    12    18    1
    10    12    23    1
    11     7     8    2
    12    19    18    1
    13    18    20    1
    14    23    22    1
    15    22    20    1
    16    22    24    1
    17    20    21    1
    18    24    25    1
    19    25     9   am
    20    17     9    2
    21     9    16    1
    22    16    10   ar
    23    16    15   ar
    24    10    11   ar
    25    15    14   ar
    26    11    13   ar
    27    14    13   ar
