@<TRIPOS>MOLECULE
3ke5_ATP_A_1.pdb
 31 33 0 0 0
SMALL
GASTEIGER

@<TRIPOS>ATOM
      1  PG        65.3570  -60.4900   24.0080 P.3   203  ATP203      0.5373
      2  O1G       64.5140  -61.6510   23.5570 O.3   203  ATP203     -0.1143
      3  O2G       66.7750  -60.8740   24.3360 O.3   203  ATP203     -0.1143
      4  O3G       65.3340  -59.3800   22.9770 O.2   203  ATP203     -0.2221
      5  PB        63.2050  -59.3190   25.4910 P.3   203  ATP203      0.2277
      6  O1B       62.5420  -59.3740   24.1450 O.2   203  ATP203     -0.5168
      7  O2B       62.4970  -59.9870   26.6520 O.3   203  ATP203     -0.4368
      8  O3B       64.7130  -59.9100   25.3850 O.3   203  ATP203     -0.2258
      9  PA        64.2290  -56.6940   24.9540 P.3   203  ATP203      0.2189
     10  O1A       63.7600  -56.8440   23.5450 O.2   203  ATP203     -0.5170
     11  O2A       65.7000  -56.7490   25.2680 O.3   203  ATP203     -0.4371
     12  O3A       63.4700  -57.7760   25.9050 O.3   203  ATP203     -0.2700
     13  O5'       63.6350  -55.3060   25.5020 O.3   203  ATP203     -0.3112
     14  C5'       64.1210  -54.7440   26.7090 C.3   203  ATP203      0.1813
     15  C4'       62.9720  -54.3500   27.6170 C.3   203  ATP203      0.1821
     16  O4'       61.8340  -53.8490   26.8880 O.3   203  ATP203     -0.3135
     17  C3'       62.4900  -55.5000   28.5020 C.3   203  ATP203      0.2184
     18  O3'       62.8290  -55.2370   29.8680 O.3   203  ATP203     -0.2174
     19  C2'       60.9900  -55.6030   28.2480 C.3   203  ATP203      0.2570
     20  O2'       60.2630  -55.3820   29.4590 O.3   203  ATP203     -0.2130
     21  C1'       60.6290  -54.5570   27.2170 C.3   203  ATP203      0.3186
     22  N9        60.0700  -55.1720   25.9630 N.pl3 203  ATP203     -0.1439
     23  C8        60.4830  -56.3280   25.3720 C.3   203  ATP203      0.3377
     24  N7        59.7800  -56.5960   24.2490 N.2   203  ATP203     -0.2095
     25  C5        58.8900  -55.6070   24.0860 C.2   203  ATP203      0.2526
     26  C6        57.8260  -55.2610   23.0940 C.2   203  ATP203      0.4393
     27  N6        57.5860  -56.0590   22.0220 N.pl3 203  ATP203      0.2180
     28  N1        57.1030  -54.1050   23.2980 N.2   203  ATP203      0.0021
     29  C2        57.3240  -53.2830   24.3620 C.3   203  ATP203      0.5254
     30  N3        58.2760  -53.5380   25.3020 N.2   203  ATP203     -0.0055
     31  C4        59.0770  -54.6630   25.2230 C.2   203  ATP203      0.3518
@<TRIPOS>BOND
     1    27    26    1
     2     4     1    2
     3    26    28    2
     4    26    25    1
     5    28    29    1
     6    10     9    2
     7     2     1    1
     8     1     3    1
     9     1     8    1
    10    25    24    2
    11    25    31    1
    12     6     5    2
    13    24    23    1
    14    29    30    1
    15     9    11    1
    16     9    13    1
    17     9    12    1
    18    31    30    2
    19    31    22    1
    20    23    22    1
    21     8     5    1
    22     5    12    1
    23     5     7    1
    24    13    14    1
    25    22    21    1
    26    14    15    1
    27    16    21    1
    28    16    15    1
    29    21    19    1
    30    15    17    1
    31    19    17    1
    32    19    20    1
    33    17    18    1
