@<TRIPOS>MOLECULE
3ke8_EIP_A_1.pdb
 15 14 0 0 0
SMALL
GASTEIGER

@<TRIPOS>ATOM
      1  O1       -27.2850    1.8050  -16.7820 O.3   998  EIP998     -0.1143
      2  O2       -25.5670    0.8370  -18.2270 O.2   998  EIP998     -0.2221
      3  O3       -25.0480    0.8210  -15.7600 O.3   998  EIP998     -0.1143
      4  P4       -26.1830    0.6800  -16.8600 P.3   998  EIP998      0.5373
      5  O5       -27.0120   -0.7030  -16.8360 O.3   998  EIP998     -0.2261
      6  O6       -27.2270   -3.2190  -16.8750 O.3   998  EIP998     -0.4370
      7  O7       -24.8590   -2.2850  -17.3010 O.2   998  EIP998     -0.5169
      8  P8       -26.2760   -2.1170  -16.6180 P.3   998  EIP998      0.2233
      9  O9       -26.0410   -2.1930  -15.0130 O.3   998  EIP998     -0.3089
     10  C10      -27.1080   -2.0970  -14.0400 C.3   998  EIP998      0.1748
     11  C11      -27.6910   -0.6900  -13.9890 C.2   998  EIP998      0.0001
     12  C12      -28.9560   -0.2640  -14.2620 C.2   998  EIP998     -0.0131
     13  C13      -29.3120    1.2120  -14.1420 C.3   998  EIP998      0.2042
     14  C14      -30.1250   -1.1320  -14.6970 C.3   998  EIP998      0.0287
     15  O15      -29.7950    1.4330  -12.7780 O.3   998  EIP998     -0.2155
@<TRIPOS>BOND
     1     2     4    2
     2     7     8    2
     3     6     8    1
     4     4     5    1
     5     4     1    1
     6     4     3    1
     7     5     8    1
     8     8     9    1
     9     9    10    1
    10    14    12    1
    11    12    13    1
    12    12    11    2
    13    13    15    1
    14    10    11    1
