@<TRIPOS>MOLECULE
3ke9_IPE_A_1.pdb
 14 13 0 0 0
SMALL
GASTEIGER

@<TRIPOS>ATOM
      1  C1       -27.0850   -2.3850  -13.8900 C.3   998  IPE998      0.1747
      2  O1       -26.3610   -2.8130  -15.0610 O.3   998  IPE998     -0.3089
      3  C2       -27.6370   -0.9570  -13.9740 C.2   998  IPE998     -0.0024
      4  C3       -29.0120   -0.5900  -14.2000 C.2   998  IPE998     -0.0454
      5  C4       -30.1100   -1.5950  -14.3970 C.3   998  IPE998      0.0261
      6  C5       -29.2020    0.8200  -14.2010 C.3   998  IPE998      0.0261
      7  PA       -26.2250   -2.2400  -16.5190 P.3   998  IPE998      0.2233
      8  O1A      -24.7760   -2.6630  -16.9660 O.2   998  IPE998     -0.5169
      9  O2A      -27.1630   -3.3310  -16.8920 O.3   998  IPE998     -0.4370
     10  O3A      -26.8130   -0.9690  -17.2170 O.3   998  IPE998     -0.2261
     11  PB       -26.0790    0.4490  -17.0750 P.3   998  IPE998      0.5373
     12  O1B      -24.8480    0.4710  -16.0870 O.3   998  IPE998     -0.1143
     13  O2B      -25.6350    0.8090  -18.4550 O.2   998  IPE998     -0.2221
     14  O3B      -27.1710    1.4810  -16.5970 O.3   998  IPE998     -0.1143
@<TRIPOS>BOND
     1    13    11    2
     2    10    11    1
     3    10     7    1
     4    11    14    1
     5    11    12    1
     6     8     7    2
     7     9     7    1
     8     7     2    1
     9     2     1    1
    10     5     4    1
    11     6     4    1
    12     4     3    2
    13     3     1    1
