@<TRIPOS>MOLECULE
3kec_3KE_A_1.pdb
 33 36 0 0 0
SMALL
GASTEIGER

@<TRIPOS>ATOM
      1  C3        82.0980    9.6500   35.7790 C.ar  271  3KE271      0.0101
      2  C22       82.7220   10.8580   36.0090 C.ar  271  3KE271      0.0656
      3  C7        86.2950    9.9820   35.6580 C.2   271  3KE271      0.2651
      4  N2        86.9950    8.9940   35.0160 N.am  271  3KE271     -0.1968
      5  C11       88.4260    9.1780   34.9210 C.3   271  3KE271      0.1418
      6  C9        89.7000   10.9030   31.2400 C.ar  271  3KE271      0.0798
      7  C12       90.1860    9.6850   31.6570 C.ar  271  3KE271      0.0063
      8  C14       89.7650    9.1390   32.8490 C.ar  271  3KE271     -0.0023
      9  C20       88.8550    9.8030   33.6370 C.ar  271  3KE271     -0.0005
     10  C16       88.3670   11.0240   33.2210 C.ar  271  3KE271     -0.0023
     11  C18       88.7870   11.5710   32.0270 C.ar  271  3KE271      0.0063
     12  C2        82.8550    8.5290   35.5030 C.ar  271  3KE271      0.0008
     13  C23       84.0950   10.9380   35.9650 C.ar  271  3KE271      0.0147
     14  C8        84.8380    9.8150   35.6910 C.ar  271  3KE271      0.0557
     15  C6        84.2340    8.6000   35.4580 C.ar  271  3KE271      0.0046
     16  O3        86.7990   10.9750   36.1690 O.2   271  3KE271     -0.2684
     17  C24       90.1690   11.4700   29.9610 C.2   271  3KE271      0.3878
     18  O4        90.1810   12.7300   29.8510 O.co2 271  3KE271     -0.2406
     19  O5        90.5280   10.6420   29.0800 O.co2 271  3KE271     -0.2406
     20  N1        80.6850   12.2450   36.0680 N.2   271  3KE271     -0.1059
     21  N5        80.5640   13.4890   36.5520 N.pl3 271  3KE271     -0.1104
     22  N3        81.6710   14.0570   37.0550 N.pl3 271  3KE271     -0.0179
     23  N4        82.6070   13.1310   36.9020 N.2   271  3KE271     -0.0864
     24  C5        81.9900   12.0560   36.3110 C.1   271  3KE271      0.0737
     25  C1        79.3030   14.1920   36.5280 C.3   271  3KE271      0.1641
     26  C21       79.3940   17.4220   33.7590 C.ar  271  3KE271      0.1387
     27  C15       78.5060   17.4310   34.8210 C.ar  271  3KE271      0.0366
     28  C10       78.4990   16.3730   35.7050 C.ar  271  3KE271      0.0006
     29  C4        79.3630   15.3110   35.5430 C.ar  271  3KE271      0.0014
     30  C19       80.2510   15.3110   34.4800 C.ar  271  3KE271      0.0006
     31  C17       80.2670   16.3680   33.5890 C.ar  271  3KE271      0.0366
     32  O1        79.4330   18.4670   32.8370 O.3   271  3KE271     -0.4714
     33  C13       78.2980   19.3070   33.0240 C.3   271  3KE271      0.2525
@<TRIPOS>BOND
     1    19    17   ar
     2    18    17   ar
     3    17     6    1
     4     6     7   ar
     5     6    11   ar
     6     7     8   ar
     7    11    10   ar
     8    32    33    1
     9    32    26    1
    10     8     9   ar
    11    10     9   ar
    12    31    26   ar
    13    31    30   ar
    14     9     5    1
    15    26    27   ar
    16    30    29   ar
    17    27    28   ar
    18     5     4    1
    19     4     3   am
    20    15    12   ar
    21    15    14   ar
    22    12     1   ar
    23    29    28   ar
    24    29    25    1
    25     3    14    1
    26     3    16    2
    27    14    13   ar
    28     1     2   ar
    29    13     2   ar
    30     2    24    1
    31    20    24    2
    32    20    21    1
    33    24    23    2
    34    25    21    1
    35    21    22    1
    36    23    22    1
