@<TRIPOS>MOLECULE
3kef_DMA_A_1.pdb
 14 13 0 0 0
SMALL
GASTEIGER

@<TRIPOS>ATOM
      1  C1       -27.3400   -2.3270  -13.8640 C.3   998  DMA998      0.1747
      2  O1       -26.1180   -2.3270  -14.6120 O.3   998  DMA998     -0.3089
      3  C2       -27.5800   -0.9640  -13.2630 C.2   998  DMA998     -0.0024
      4  C3       -28.7440   -0.2710  -13.2660 C.2   998  DMA998     -0.0454
      5  C4       -28.8300    1.0800  -12.6130 C.3   998  DMA998      0.0261
      6  C5       -30.0340   -0.7750  -13.9020 C.3   998  DMA998      0.0261
      7  PA       -26.1070   -2.0230  -16.1740 P.3   998  DMA998      0.2233
      8  O1A      -26.9540   -3.0410  -16.8460 O.2   998  DMA998     -0.5169
      9  O2A      -24.6110   -2.1230  -16.7040 O.3   998  DMA998     -0.4370
     10  O3A      -26.8060   -0.5810  -16.4300 O.3   998  DMA998     -0.2261
     11  PB       -25.9630    0.7990  -16.4400 P.3   998  DMA998      0.5373
     12  O1B      -26.9470    1.9160  -15.8780 O.3   998  DMA998     -0.1143
     13  O2B      -25.6050    1.1110  -17.8470 O.2   998  DMA998     -0.2221
     14  O3B      -24.6400    0.7730  -15.5470 O.3   998  DMA998     -0.1143
@<TRIPOS>BOND
     1    13    11    2
     2     8     7    2
     3     9     7    1
     4    11    10    1
     5    11    12    1
     6    11    14    1
     7    10     7    1
     8     7     2    1
     9     2     1    1
    10     6     4    1
    11     1     3    1
    12     4     3    2
    13     4     5    1
