@<TRIPOS>MOLECULE
3keg_MRE_A_1.pdb
 35 36 0 0 0
SMALL
GASTEIGER

@<TRIPOS>ATOM
      1  C1       -35.9300  -15.2170   -4.4630 C.ar  214  MRE214      0.0863
      2  C2       -35.1460  -15.4790   -5.6380 C.ar  214  MRE214      0.0832
      3  C3       -34.1230  -16.5040   -5.5060 C.ar  214  MRE214     -0.0459
      4  C4       -33.9120  -17.2440   -4.1910 C.ar  214  MRE214     -0.0609
      5  C5       -34.6790  -16.9770   -3.0720 C.ar  214  MRE214     -0.0599
      6  C6       -35.7370  -15.9260   -3.1920 C.ar  214  MRE214     -0.0364
      7  C1'      -38.6460  -13.5930   -3.0820 C.ar  214  MRE214      0.0725
      8  C2'      -39.1150  -13.8290   -1.8140 C.ar  214  MRE214     -0.0355
      9  C3'      -40.3140  -13.1830   -1.3560 C.ar  214  MRE214     -0.0388
     10  C4'      -41.0230  -12.2890   -2.2460 C.ar  214  MRE214      0.0293
     11  C5'      -40.5430  -12.0370   -3.5560 C.ar  214  MRE214     -0.0388
     12  C6'      -39.3380  -12.6880   -4.0020 C.ar  214  MRE214     -0.0355
     13  C        -35.4570  -14.6850   -6.8800 C.2   214  MRE214      0.3387
     14  CHX      -42.2460  -11.5350   -0.2540 C.3   214  MRE214      0.0004
     15  CHZ      -43.2500  -11.1460   -2.5530 C.3   214  MRE214      0.0004
     16  N1       -36.9220  -14.2050   -4.4760 N.pl3 214  MRE214     -0.1285
     17  N1'      -37.4360  -14.2760   -3.3800 N.pl3 214  MRE214     -0.1293
     18  OXT      -34.8250  -14.8070   -7.9600 O.3   214  MRE214     -0.4771
     19  O        -36.3590  -13.8360   -6.8190 O.2   214  MRE214     -0.2451
     20  N10      -42.2210  -11.6280   -1.6990 N.pl3 214  MRE214     -0.3360
     21  H6       -36.2950  -15.7140   -2.4180 H     214  MRE214      0.0637
     22  H3       -33.5650  -16.7190   -6.2680 H     214  MRE214      0.0626
     23  H4       -33.2110  -17.9350   -4.1330 H     214  MRE214      0.0618
     24  H5       -34.5290  -17.4670   -2.2320 H     214  MRE214      0.0618
     25  H2'      -38.6450  -14.4230   -1.2260 H     214  MRE214      0.0638
     26  H6'      -38.9930  -12.5350   -4.8970 H     214  MRE214      0.0638
     27  H3'      -40.6510  -13.3480   -0.4470 H     214  MRE214      0.0637
     28  H5'      -41.0180  -11.4380   -4.1380 H     214  MRE214      0.0637
     29  HXT      -35.1610  -14.2600   -8.5580 H     214  MRE214      0.2954
     30 HHX1      -41.5940  -10.8610    0.0470 H     214  MRE214      0.0428
     31 HHX2      -42.0110  -12.4120    0.1350 H     214  MRE214      0.0428
     32 HHX3      -43.1400  -11.2760    0.0420 H     214  MRE214      0.0428
     33 HHZ1      -43.9020  -10.6760   -2.0290 H     214  MRE214      0.0428
     34 HHZ2      -43.6640  -11.9010   -3.0050 H     214  MRE214      0.0428
     35 HHZ3      -42.8710  -10.5490   -3.2100 H     214  MRE214      0.0428
@<TRIPOS>BOND
     1    29    18    1
     2    18    13    1
     3    13    19    2
     4    13     2    1
     5    22     3    1
     6     2     3   ar
     7     2     1   ar
     8     3     4   ar
     9    26    12    1
    10    16     1    1
    11    16    17    1
    12     1     6   ar
    13     4    23    1
    14     4     5   ar
    15    28    11    1
    16    12    11   ar
    17    12     7   ar
    18    11    10   ar
    19    17     7    1
    20    35    15    1
    21     6     5   ar
    22     6    21    1
    23     7     8   ar
    24     5    24    1
    25    34    15    1
    26    15    33    1
    27    15    20    1
    28    10    20    1
    29    10     9   ar
    30     8     9   ar
    31     8    25    1
    32    20    14    1
    33     9    27    1
    34    14    32    1
    35    14    30    1
    36    14    31    1
