@<TRIPOS>MOLECULE
3keg_FMN_A_1.pdb
 50 52 0 0 0
SMALL
GASTEIGER

@<TRIPOS>ATOM
      1  N1       -34.6080  -11.6670   -4.6330 N.2   213  FMN213     -0.3025
      2  C2       -35.4610  -11.3190   -3.5990 C.1   213  FMN213      0.2727
      3  O2       -36.3000  -10.4410   -3.7470 O.2   213  FMN213     -0.1927
      4  N3       -35.3900  -11.9480   -2.3760 N.am  213  FMN213     -0.1956
      5  C4       -34.4540  -12.9360   -2.1870 C.2   213  FMN213      0.2930
      6  O4       -34.3830  -13.5000   -1.1040 O.2   213  FMN213     -0.2661
      7  C4A      -33.5910  -13.2970   -3.2150 C.2   213  FMN213      0.2302
      8  N5       -32.6590  -14.2920   -3.0090 N.2   213  FMN213     -0.3926
      9  C5A      -31.7970  -14.6540   -4.0230 C.2   213  FMN213      0.1360
     10  C6       -30.8580  -15.6550   -3.8130 C.2   213  FMN213     -0.0226
     11  C7       -29.9820  -16.0380   -4.8170 C.2   213  FMN213     -0.0587
     12  C7M      -28.9940  -17.1340   -4.5500 C.3   213  FMN213     -0.0425
     13  C8       -30.0440  -15.4090   -6.0510 C.3   213  FMN213      0.0216
     14  C8M      -29.1230  -15.8260   -7.1620 C.3   213  FMN213     -0.0512
     15  C9       -30.9860  -14.4070   -6.2630 C.2   213  FMN213     -0.0484
     16  C9A      -31.8670  -14.0220   -5.2540 C.2   213  FMN213      0.0706
     17  N10      -32.8100  -13.0330   -5.4650 N.pl3 213  FMN213     -0.2669
     18  C10      -33.6650  -12.6600   -4.4480 C.2   213  FMN213      0.2351
     19  C1'      -32.8790  -12.3350   -6.7820 C.3   213  FMN213      0.0482
     20  C2'      -31.7290  -11.3400   -6.7220 C.3   213  FMN213      0.0996
     21  O2'      -31.8950  -10.5660   -5.5520 O.3   213  FMN213     -0.3876
     22  C3'      -31.6630  -10.4460   -7.9580 C.3   213  FMN213      0.1104
     23  O3'      -31.3900  -11.2400   -9.0980 O.3   213  FMN213     -0.3865
     24  C4'      -30.5980   -9.3660   -7.7600 C.3   213  FMN213      0.1073
     25  O4'      -30.8010   -8.3220   -8.6920 O.3   213  FMN213     -0.3868
     26  C5'      -29.1800   -9.9190   -7.8600 C.3   213  FMN213      0.0876
     27  O5'      -28.2780   -8.8470   -7.7720 O.3   213  FMN213     -0.2809
     28  P        -27.2240   -8.6270   -8.9610 P.3   213  FMN213      0.5320
     29  O1P      -28.0060   -8.2860  -10.2020 O.2   213  FMN213     -0.2224
     30  O2P      -26.4340   -9.8950   -9.1650 O.3   213  FMN213     -0.1145
     31  O3P      -26.3040   -7.4910   -8.6090 O.3   213  FMN213     -0.1145
     32  HN3      -35.9140  -11.5660   -1.5640 H     213  FMN213      0.1693
     33  H6       -30.8080  -16.1480   -2.8420 H     213  FMN213      0.0650
     34 HM71      -28.3970  -17.3110   -5.4440 H     213  FMN213      0.0275
     35 HM72      -28.3400  -16.8410   -3.7280 H     213  FMN213      0.0275
     36 HM73      -29.5270  -18.0460   -4.2820 H     213  FMN213      0.0275
     37 HM81      -29.3380  -15.2370   -8.0530 H     213  FMN213      0.0241
     38 HM82      -28.0890  -15.6610   -6.8580 H     213  FMN213      0.0241
     39 HM83      -29.2720  -16.8840   -7.3810 H     213  FMN213      0.0241
     40  H9       -31.0360  -13.9150   -7.2340 H     213  FMN213      0.0600
     41 H1'1      -32.7410  -13.0390   -7.6030 H     213  FMN213      0.0495
     42 H1'2      -33.8320  -11.8210   -6.9010 H     213  FMN213      0.0495
     43  H2'      -30.7960  -11.8990   -6.6560 H     213  FMN213      0.0636
     44 HO2'      -31.9330   -9.6160   -5.7910 H     213  FMN213      0.2100
     45  H3'      -32.6290   -9.9570   -8.0790 H     213  FMN213      0.0646
     46 HO3'      -30.5660  -10.9260   -9.5260 H     213  FMN213      0.2100
     47  H4'      -30.7220   -8.9640   -6.7540 H     213  FMN213      0.0643
     48 HO4'      -29.9790   -8.1780   -9.2060 H     213  FMN213      0.2100
     49 H5'1      -28.9980  -10.6270   -7.0510 H     213  FMN213      0.0592
     50 H5'2      -29.0490  -10.4400   -8.8080 H     213  FMN213      0.0592
@<TRIPOS>BOND
     1    29    28    2
     2    46    23    1
     3    48    25    1
     4    30    28    1
     5    23    22    1
     6    28    31    1
     7    28    27    1
     8    50    26    1
     9    25    24    1
    10    45    22    1
    11    37    14    1
    12    22    24    1
    13    22    20    1
    14    26    27    1
    15    26    24    1
    16    26    49    1
    17    24    47    1
    18    41    19    1
    19    39    14    1
    20    40    15    1
    21    14    38    1
    22    14    13    1
    23    42    19    1
    24    19    20    1
    25    19    17    1
    26    20    43    1
    27    20    21    1
    28    15    13    1
    29    15    16    2
    30    13    11    1
    31    44    21    1
    32    17    16    1
    33    17    18    1
    34    34    12    1
    35    16     9    1
    36    11    12    1
    37    11    10    2
    38     1    18    2
    39     1     2    2
    40    12    36    1
    41    12    35    1
    42    18     7    1
    43     9    10    1
    44     9     8    2
    45    10    33    1
    46     3     2    2
    47     2     4   am
    48     7     8    2
    49     7     5    1
    50     4     5   am
    51     4    32    1
    52     5     6    2
