@<TRIPOS>MOLECULE
3kei_GLU_A_1.pdb
 10 9 0 0 0
SMALL
GASTEIGER

@<TRIPOS>ATOM
      1  N         50.8860   47.7790  -32.0160 N.3   258  GLU258     -0.1208
      2  CA        51.1320   47.1510  -33.3570 C.3   258  GLU258      0.1949
      3  C         52.6180   46.9270  -33.5740 C.2   258  GLU258      0.3819
      4  O         53.0220   46.4140  -34.6150 O.co2 258  GLU258     -0.2441
      5  CB        50.6480   48.0620  -34.4890 C.3   258  GLU258      0.0424
      6  CG        49.3120   47.7850  -35.1310 C.3   258  GLU258      0.1161
      7  CD        48.9780   46.3260  -35.3330 C.2   258  GLU258      0.3649
      8  OE1       49.7540   45.5630  -35.9530 O.co2 258  GLU258     -0.2457
      9  OE2       47.8820   45.9570  -34.8880 O.co2 258  GLU258     -0.2457
     10  OXT       53.4510   47.2700  -32.7350 O.co2 258  GLU258     -0.2441
@<TRIPOS>BOND
     1     8     7   ar
     2     7     6    1
     3     7     9   ar
     4     6     5    1
     5     4     3   ar
     6     5     2    1
     7     3     2    1
     8     3    10   ar
     9     2     1    1
