@<TRIPOS>MOLECULE
3kej_3EJ_A_1.pdb
 32 35 0 0 0
SMALL
GASTEIGER

@<TRIPOS>ATOM
      1  C1        47.1460   18.4200   15.4830 C.ar  801  3EJ801      0.0063
      2  C2        46.9490   17.2380   14.7990 C.ar  801  3EJ801      0.0798
      3  C3        46.1510   16.2590   15.3470 C.ar  801  3EJ801      0.0063
      4  C4        45.5600   16.4650   16.5730 C.ar  801  3EJ801     -0.0023
      5  C5        45.7480   17.6420   17.2630 C.ar  801  3EJ801      0.0013
      6  C6        46.5440   18.6230   16.7080 C.ar  801  3EJ801     -0.0023
      7  C7        47.5670   16.9880   13.4820 C.2   801  3EJ801      0.3878
      8  O8        48.7320   17.4180   13.3040 O.co2 801  3EJ801     -0.2406
      9  O9        46.8670   16.3570   12.6410 O.co2 801  3EJ801     -0.2406
     10  C10       45.0650   17.7820   18.5860 C.3   801  3EJ801      0.1641
     11  N11       45.0940   19.1470   19.0680 N.pl3 801  3EJ801     -0.1104
     12  N12       46.1170   19.5550   19.8200 N.pl3 801  3EJ801     -0.0179
     13  N13       45.8280   20.8230   20.0620 N.2   801  3EJ801     -0.0864
     14  C14       44.6470   21.1040   19.4310 C.1   801  3EJ801      0.0738
     15  N15       44.1450   20.0540   18.7740 N.2   801  3EJ801     -0.1059
     16  C16       44.0850   22.4290   19.4450 C.ar  801  3EJ801      0.0686
     17  C17       44.9110   23.4960   19.7330 C.ar  801  3EJ801      0.0339
     18  C18       44.3890   24.7710   19.6930 C.ar  801  3EJ801      0.1368
     19  N19       43.1210   25.0560   19.3700 N.ar  801  3EJ801     -0.2392
     20  C20       42.3490   23.9920   19.1020 C.ar  801  3EJ801      0.0997
     21  C21       42.7680   22.6790   19.1250 C.ar  801  3EJ801      0.0308
     22  C22       45.3010   25.9020   19.9820 C.2   801  3EJ801      0.2828
     23  N23       44.7740   27.1290   19.6830 N.am  801  3EJ801     -0.1955
     24  C24       45.5380   28.3470   19.8460 C.3   801  3EJ801      0.1419
     25  C25       46.6090   28.5590   18.8320 C.ar  801  3EJ801      0.0017
     26  O26       46.4390   25.7070   20.3870 O.2   801  3EJ801     -0.2667
     27  C27       46.9120   27.6180   17.8620 C.ar  801  3EJ801     -0.0024
     28  C28       47.9120   27.8440   16.9420 C.ar  801  3EJ801      0.0020
     29  C29       48.6330   29.0190   16.9700 C.ar  801  3EJ801      0.0296
     30  C30       48.3190   29.9470   17.9380 C.ar  801  3EJ801      0.1399
     31  C31       47.3210   29.7360   18.8620 C.ar  801  3EJ801      0.0271
     32  F32       48.9940   31.0980   17.9850 F     801  3EJ801     -0.2042
@<TRIPOS>BOND
     1     9     7   ar
     2     8     7   ar
     3     7     2    1
     4     2     3   ar
     5     2     1   ar
     6     3     4   ar
     7     1     6   ar
     8     4     5   ar
     9     6     5   ar
    10    28    29   ar
    11    28    27   ar
    12    29    30   ar
    13     5    10    1
    14    27    25   ar
    15    30    32    1
    16    30    31   ar
    17    10    11    1
    18    15    11    1
    19    15    14    2
    20    25    31   ar
    21    25    24    1
    22    11    12    1
    23    20    21   ar
    24    20    19   ar
    25    21    16   ar
    26    19    18   ar
    27    14    16    1
    28    14    13    2
    29    16    17   ar
    30    23    24    1
    31    23    22   am
    32    18    17   ar
    33    18    22    1
    34    12    13    1
    35    22    26    2
