@<TRIPOS>MOLECULE
3kek_3EK_A_1.pdb
 33 36 0 0 0
SMALL
GASTEIGER

@<TRIPOS>ATOM
      1  C1        45.7610   16.9670   16.8730 C.3   801  3EK801      0.0216
      2  C2        46.1890   15.5530   16.5290 C.3   801  3EK801      0.0023
      3  C3        46.5830   15.4360   15.0660 C.3   801  3EK801      0.0113
      4  C4        47.7560   16.3670   14.8590 C.3   801  3EK801      0.1034
      5  C5        47.3790   17.8150   15.0840 C.3   801  3EK801      0.0113
      6  C6        46.8100   18.0060   16.4880 C.3   801  3EK801      0.0023
      7  C7        45.3010   17.0310   18.3230 C.3   801  3EK801      0.1139
      8  N8        45.4300   18.3580   18.8920 N.pl3 801  3EK801     -0.2002
      9  N9        44.5840   19.3570   18.5920 N.2   801  3EK801     -0.1267
     10  C10       45.1080   20.3520   19.3110 C.1   801  3EK801      0.0458
     11  N11       46.2310   20.0110   20.0190 N.2   801  3EK801     -0.1949
     12  C12       46.4220   18.7520   19.7360 C.3   801  3EK801      0.2477
     13  C13       44.5610   21.6850   19.2910 C.2   801  3EK801      0.0508
     14  C14       43.2650   21.8830   18.8570 C.2   801  3EK801      0.0337
     15  C15       42.7790   23.1710   18.7800 C.2   801  3EK801      0.1096
     16  N16       43.4850   24.2570   19.1070 N.2   801  3EK801     -0.4055
     17  C17       44.7350   24.0290   19.5410 C.2   801  3EK801      0.1682
     18  C18       45.3210   22.7810   19.6430 C.3   801  3EK801      0.1003
     19  C19       41.3840   23.3900   18.3110 C.3   801  3EK801      0.0664
     20  C20       45.5260   25.2270   19.8950 C.2   801  3EK801      0.2909
     21  O21       46.6710   25.1310   20.3160 O.2   801  3EK801     -0.2659
     22  N22       44.8650   26.4080   19.6710 N.am  801  3EK801     -0.1949
     23  C23       45.5080   27.7020   19.7770 C.3   801  3EK801      0.1419
     24  C24       46.5950   27.9880   18.7870 C.ar  801  3EK801     -0.0004
     25  C25       47.3330   29.1440   18.9480 C.ar  801  3EK801     -0.0002
     26  C26       48.3450   29.4490   18.0630 C.ar  801  3EK801      0.0294
     27  C27       48.6110   28.6020   17.0120 C.ar  801  3EK801      0.1401
     28  C28       47.8800   27.4480   16.8300 C.ar  801  3EK801      0.0294
     29  C29       46.8710   27.1470   17.7250 C.ar  801  3EK801     -0.0002
     30  C30       48.1550   16.2680   13.3900 C.2   801  3EK801      0.3643
     31  O31       49.3930   16.1030   13.2450 O.co2 801  3EK801     -0.2457
     32  F32       49.5970   28.9210   16.1560 F     801  3EK801     -0.2042
     33  O33       47.2580   16.3480   12.5040 O.co2 801  3EK801     -0.2457
@<TRIPOS>BOND
     1    33    30   ar
     2    31    30   ar
     3    30     4    1
     4     4     3    1
     5     4     5    1
     6     3     2    1
     7     5     6    1
     8    32    27    1
     9     6     1    1
    10     2     1    1
    11    28    27   ar
    12    28    29   ar
    13     1     7    1
    14    27    26   ar
    15    29    24   ar
    16    26    25   ar
    17    19    15    1
    18     7     8    1
    19     9     8    1
    20     9    10    2
    21    15    14    1
    22    15    16    2
    23    24    25   ar
    24    24    23    1
    25    14    13    2
    26     8    12    1
    27    16    17    2
    28    13    10    1
    29    13    18    1
    30    10    11    2
    31    17    18    1
    32    17    20    1
    33    22    23    1
    34    22    20   am
    35    12    11    1
    36    20    21    2
