@<TRIPOS>MOLECULE
3kem_IPE_A_1.pdb
 14 13 0 0 0
SMALL
GASTEIGER

@<TRIPOS>ATOM
      1  C1        11.6620  -17.0120   31.1060 C.3   998  IPE998      0.1535
      2  O1        12.5480  -16.8070   29.9930 O.3   998  IPE998     -0.3135
      3  C2        11.8950  -18.4250   31.7030 C.3   998  IPE998      0.0545
      4  C3        11.0280  -18.7450   32.8840 C.2   998  IPE998     -0.0414
      5  C4        11.3290  -18.0090   34.1680 C.3   998  IPE998      0.0264
      6  C5        10.0640  -19.6620   32.7900 C.2   998  IPE998     -0.0090
      7  PA        14.1580  -16.7720   30.0770 P.3   998  IPE998      0.2230
      8  O1A       14.5390  -15.6660   30.9810 O.3   998  IPE998     -0.4370
      9  O2A       14.7540  -16.5300   28.6200 O.2   998  IPE998     -0.5169
     10  O3A       14.7560  -18.1250   30.7180 O.3   998  IPE998     -0.2261
     11  PB        14.5810  -19.5380   29.9520 P.3   998  IPE998      0.5373
     12  O1B       13.7270  -19.4900   28.6050 O.2   998  IPE998     -0.2221
     13  O2B       13.8910  -20.5610   30.9560 O.3   998  IPE998     -0.1143
     14  O3B       15.9470  -20.0130   29.6190 O.3   998  IPE998     -0.1143
@<TRIPOS>BOND
     1    12    11    2
     2     9     7    2
     3    14    11    1
     4    11    10    1
     5    11    13    1
     6     2     7    1
     7     2     1    1
     8     7    10    1
     9     7     8    1
    10     1     3    1
    11     3     4    1
    12     6     4    2
    13     4     5    1
