@<TRIPOS>MOLECULE
3ken_ZZD_A_1.pdb
 26 28 0 0 0
SMALL
GASTEIGER

@<TRIPOS>ATOM
      1  N        -20.1060  -10.7830   70.4830 N.3   370  ZZD370     -0.1199
      2  CA       -20.3150  -10.8790   71.9350 C.3   370  ZZD370      0.2050
      3  CB       -21.4080  -11.9120   72.2260 C.3   370  ZZD370      0.0890
      4  C        -19.0050  -11.2760   72.6200 C.2   370  ZZD370      0.3828
      5  O        -19.0220  -11.3950   73.8650 O.co2 370  ZZD370     -0.2440
      6  OXT      -18.0060  -11.4420   71.8880 O.co2 370  ZZD370     -0.2440
      7  SG       -23.0380  -11.4490   71.5300 S.3   370  ZZD370     -0.1273
      8  CAM      -25.1310  -13.2220   74.5770 C.ar  370  ZZD370     -0.0029
      9  CAG      -25.3720  -12.8930   75.9110 C.ar  370  ZZD370     -0.0003
     10  CAD      -24.8850  -11.7010   76.4270 C.ar  370  ZZD370     -0.0000
     11  CAH      -24.1570  -10.8350   75.6130 C.ar  370  ZZD370     -0.0003
     12  CAN      -23.9230  -11.1720   74.2860 C.ar  370  ZZD370     -0.0029
     13  CAV      -24.4060  -12.3680   73.7540 C.ar  370  ZZD370     -0.0060
     14  CAZ      -24.2030  -12.6650   72.2580 C.3   370  ZZD370      0.0953
     15  CAX      -23.6290  -14.0590   71.9630 C.ar  370  ZZD370     -0.0060
     16  CAQ      -23.6270  -14.5440   70.6550 C.ar  370  ZZD370     -0.0029
     17  CAK      -23.0470  -15.7710   70.3490 C.ar  370  ZZD370     -0.0003
     18  CAF      -22.4590  -16.5320   71.3550 C.ar  370  ZZD370     -0.0000
     19  CAL      -22.4530  -16.0590   72.6630 C.ar  370  ZZD370     -0.0003
     20  CAR      -23.0360  -14.8310   72.9600 C.ar  370  ZZD370     -0.0029
     21  CAW      -25.5690  -12.4590   71.5860 C.ar  370  ZZD370     -0.0060
     22  CAO      -26.5600  -13.4410   71.6280 C.ar  370  ZZD370     -0.0029
     23  CAI      -27.8170  -13.2070   71.0850 C.ar  370  ZZD370     -0.0003
     24  CAE      -28.1020  -11.9820   70.4850 C.ar  370  ZZD370     -0.0000
     25  CAJ      -27.1220  -11.0000   70.4340 C.ar  370  ZZD370     -0.0003
     26  CAP      -25.8630  -11.2410   70.9820 C.ar  370  ZZD370     -0.0029
@<TRIPOS>BOND
     1    17    16   ar
     2    17    18   ar
     3    25    24   ar
     4    25    26   ar
     5     1     2    1
     6    24    23   ar
     7    16    15   ar
     8    26    21   ar
     9    23    22   ar
    10    18    19   ar
    11     7     3    1
    12     7    14    1
    13    21    22   ar
    14    21    14    1
    15     6     4   ar
    16     2     3    1
    17     2     4    1
    18    15    14    1
    19    15    20   ar
    20    14    13    1
    21     4     5   ar
    22    19    20   ar
    23    13    12   ar
    24    13     8   ar
    25    12    11   ar
    26     8     9   ar
    27    11    10   ar
    28     9    10   ar
