@<TRIPOS>MOLECULE
3ken_ADP_A_1.pdb
 27 28 0 0 0
SMALL
GASTEIGER

@<TRIPOS>ATOM
      1  PB       -13.1660   -8.4300   64.7890 P.3   1452  ADP1452     0.5385
      2  O1B      -13.8820   -9.4580   65.6320 O.3   1452  ADP1452    -0.1143
      3  O2B      -12.5060   -8.8800   63.3890 O.2   1452  ADP1452    -0.2220
      4  O3B      -11.9400   -7.8140   65.5490 O.3   1452  ADP1452    -0.1143
      5  PA       -14.7530   -6.6950   65.8570 P.3   1452  ADP1452     0.3742
      6  O1A      -15.9790   -7.4900   66.0050 O.3   1452  ADP1452    -0.1442
      7  O2A      -13.7940   -6.8000   67.1720 O.3   1452  ADP1452     0.0000
      8  O3A      -13.9210   -7.0940   64.5670 O.3   1452  ADP1452    -0.2072
      9  O5'      -15.0640   -5.2530   65.4970 O.3   1452  ADP1452    -0.2938
     10  C5'      -15.8660   -4.8390   66.4430 C.3   1452  ADP1452     0.1830
     11  C4'      -16.0250   -3.4050   66.2580 C.3   1452  ADP1452     0.1822
     12  O4'      -16.2360   -3.0600   64.9010 O.3   1452  ADP1452    -0.3135
     13  C3'      -17.1510   -3.2040   67.1790 C.3   1452  ADP1452     0.2184
     14  O3'      -16.8690   -2.3420   68.2860 O.3   1452  ADP1452    -0.2174
     15  C2'      -18.2380   -2.7330   66.2150 C.3   1452  ADP1452     0.2570
     16  O2'      -18.8210   -1.5410   66.6530 O.3   1452  ADP1452    -0.2130
     17  C1'      -17.5100   -2.5490   64.8370 C.3   1452  ADP1452     0.3186
     18  N9       -18.1610   -3.0830   63.6580 N.pl3 1452  ADP1452    -0.1439
     19  C8       -17.7610   -4.1270   62.8520 C.3   1452  ADP1452     0.3377
     20  N7       -18.6130   -4.2690   61.8770 N.2   1452  ADP1452    -0.2095
     21  C5       -19.5770   -3.3270   62.0000 C.2   1452  ADP1452     0.2526
     22  C6       -20.7210   -2.9690   61.2710 C.2   1452  ADP1452     0.4393
     23  N6       -21.0560   -3.6670   60.1310 N.pl3 1452  ADP1452     0.2180
     24  N1       -21.4830   -1.9350   61.7130 N.2   1452  ADP1452     0.0021
     25  C2       -21.1670   -1.2480   62.8130 C.3   1452  ADP1452     0.5254
     26  N3       -20.0920   -1.5520   63.5160 N.2   1452  ADP1452    -0.0055
     27  C4       -19.2880   -2.5700   63.1500 C.2   1452  ADP1452     0.3518
@<TRIPOS>BOND
     1    23    22    1
     2    22    24    2
     3    22    21    1
     4    24    25    1
     5    20    21    2
     6    20    19    1
     7    21    27    1
     8    25    26    1
     9    19    18    1
    10    27    26    2
    11    27    18    1
    12     3     1    2
    13    18    17    1
    14     8     1    1
    15     8     5    1
    16     1     4    1
    17     1     2    1
    18    17    12    1
    19    17    15    1
    20    12    11    1
    21     9     5    1
    22     9    10    1
    23     5     6    1
    24    15    16    1
    25    15    13    1
    26    11    10    1
    27    11    13    1
    28    13    14    1
