@<TRIPOS>MOLECULE
3keo_NAD_A_1.pdb
 44 48 0 0 0
SMALL
GASTEIGER

@<TRIPOS>ATOM
      1  PA        37.1820   59.3600   45.2860 P.3   213  NAD213      0.2189
      2  O1A       37.7960   59.7800   46.5440 O.3   213  NAD213     -0.4371
      3  O2A       37.4620   60.1920   44.0850 O.2   213  NAD213     -0.5170
      4  O5B       35.5680   59.3000   45.4240 O.3   213  NAD213     -0.3112
      5  C5B       34.9090   58.8250   46.5480 C.3   213  NAD213      0.1813
      6  C4B       33.5800   59.5670   46.5920 C.3   213  NAD213      0.1821
      7  O4B       32.8860   58.9090   47.6540 O.3   213  NAD213     -0.3135
      8  C3B       33.7110   61.0600   46.8850 C.3   213  NAD213      0.2184
      9  O3B       32.9540   61.8060   45.9170 O.3   213  NAD213     -0.2174
     10  C2B       33.1830   61.1360   48.3220 C.3   213  NAD213      0.2570
     11  O2B       32.6200   62.4600   48.6470 O.3   213  NAD213     -0.2130
     12  C1B       32.2110   59.9130   48.4000 C.3   213  NAD213      0.3186
     13  N9A       31.9750   59.4420   49.7900 N.pl3 213  NAD213     -0.1439
     14  C8A       32.8430   59.4320   50.8550 C.3   213  NAD213      0.3377
     15  N7A       32.2100   58.9790   51.9650 N.2   213  NAD213     -0.2095
     16  C5A       30.9400   58.6920   51.5580 C.2   213  NAD213      0.2526
     17  C6A       29.8290   58.2180   52.2260 C.2   213  NAD213      0.4393
     18  N6A       29.8640   57.9220   53.5410 N.pl3 213  NAD213      0.2180
     19  N1A       28.6990   58.0660   51.5130 N.2   213  NAD213      0.0021
     20  C2A       28.5750   58.3780   50.2090 C.3   213  NAD213      0.5254
     21  N3A       29.6300   58.8540   49.5300 N.2   213  NAD213     -0.0055
     22  C4A       30.8070   58.9880   50.2060 C.2   213  NAD213      0.3518
     23  O3        37.6090   57.8550   45.0440 O.3   213  NAD213     -0.2703
     24  PN        37.8400   57.1320   43.6320 P.3   213  NAD213      0.2189
     25  O1N       39.2420   57.5210   43.2460 O.3   213  NAD213     -0.4371
     26  O2N       36.7030   57.3820   42.7190 O.2   213  NAD213     -0.5170
     27  O5D       37.9170   55.6170   44.0870 O.3   213  NAD213     -0.3112
     28  C5D       36.7900   55.0200   44.7770 C.3   213  NAD213      0.1813
     29  C4D       37.0550   53.5770   45.0650 C.3   213  NAD213      0.1799
     30  O4D       37.1480   52.8610   43.8550 O.3   213  NAD213     -0.3327
     31  C3D       38.3270   53.4000   45.8400 C.3   213  NAD213      0.2158
     32  O3D       38.1810   52.3070   46.7210 O.3   213  NAD213     -0.2175
     33  C2D       39.3420   53.0050   44.7520 C.3   213  NAD213      0.2309
     34  O2D       40.4060   52.2330   45.2530 O.3   213  NAD213     -0.2158
     35  C1D       38.4080   52.2180   43.8140 C.3   213  NAD213      0.2263
     36  N1N       38.7940   52.1630   42.3930 N.pl3 213  NAD213     -0.2787
     37  C2N       38.9580   53.2780   41.7160 C.3   213  NAD213      0.1244
     38  C3N       39.3040   53.2240   40.3800 C.2   213  NAD213      0.0544
     39  C7N       39.5740   54.4910   39.6190 C.2   213  NAD213      0.2818
     40  O7N       39.3480   54.4780   38.3310 O.2   213  NAD213     -0.2670
     41  N7N       39.9930   55.5990   40.2920 N.am  213  NAD213     -0.0839
     42  C4N       39.4400   52.0020   39.7360 C.2   213  NAD213      0.0033
     43  C5N       39.2510   50.8440   40.4440 C.2   213  NAD213      0.0157
     44  C6N       38.9150   50.9270   41.7910 C.2   213  NAD213      0.0633
@<TRIPOS>BOND
     1    40    39    2
     2    39    41   am
     3    39    38    1
     4    42    38    2
     5    42    43    1
     6    38    37    1
     7    43    44    2
     8    37    36    1
     9    44    36    1
    10    36    35    1
    11    26    24    2
    12    25    24    1
    13    24    27    1
    14    24    23    1
    15    35    30    1
    16    35    33    1
    17    30    29    1
    18     3     1    2
    19    27    28    1
    20    33    34    1
    21    33    31    1
    22    28    29    1
    23    23     1    1
    24    29    31    1
    25     1     4    1
    26     1     2    1
    27     4     5    1
    28    31    32    1
    29     9     8    1
    30     5     6    1
    31     6     8    1
    32     6     7    1
    33     8    10    1
    34     7    12    1
    35    10    12    1
    36    10    11    1
    37    12    13    1
    38    21    22    2
    39    21    20    1
    40    13    22    1
    41    13    14    1
    42    22    16    1
    43    20    19    1
    44    14    15    1
    45    19    17    2
    46    16    15    2
    47    16    17    1
    48    17    18    1
