@<TRIPOS>MOLECULE
3keq_NAD_A_1.pdb
 44 48 0 0 0
SMALL
GASTEIGER

@<TRIPOS>ATOM
      1  PA        27.7670  -17.3680  -17.4220 P.3   213  NAD213      0.2189
      2  O1A       28.9040  -17.5980  -18.3360 O.2   213  NAD213     -0.5170
      3  O2A       28.1950  -16.9570  -16.0870 O.3   213  NAD213     -0.4371
      4  O5B       26.9050  -18.6880  -17.2450 O.3   213  NAD213     -0.3112
      5  C5B       26.6370  -19.4220  -18.4010 C.3   213  NAD213      0.1813
      6  C4B       26.3250  -20.8930  -18.0570 C.3   213  NAD213      0.1821
      7  O4B       25.9630  -21.6860  -19.1810 O.3   213  NAD213     -0.3135
      8  C3B       27.5240  -21.6110  -17.4530 C.3   213  NAD213      0.2184
      9  O3B       27.1400  -22.2570  -16.2530 O.3   213  NAD213     -0.2174
     10  C2B       27.9080  -22.6410  -18.4890 C.3   213  NAD213      0.2570
     11  O2B       28.6230  -23.7170  -17.9060 O.3   213  NAD213     -0.2130
     12  C1B       26.5290  -22.9870  -19.0480 C.3   213  NAD213      0.3186
     13  N9A       26.5230  -23.5880  -20.3640 N.pl3 213  NAD213     -0.1439
     14  C8A       27.3980  -23.3180  -21.3930 C.3   213  NAD213      0.3377
     15  N7A       26.9940  -24.0770  -22.4420 N.2   213  NAD213     -0.2095
     16  C5A       25.8910  -24.7940  -22.1140 C.2   213  NAD213      0.2526
     17  C6A       25.1600  -25.7010  -22.8290 C.2   213  NAD213      0.4393
     18  N6A       25.6490  -26.2200  -24.0050 N.pl3 213  NAD213      0.2180
     19  N1A       24.0830  -26.3020  -22.1970 N.2   213  NAD213      0.0021
     20  C2A       23.7930  -26.0130  -20.8820 C.3   213  NAD213      0.5254
     21  N3A       24.5420  -25.0820  -20.1920 N.2   213  NAD213     -0.0055
     22  C4A       25.5880  -24.4930  -20.8150 C.2   213  NAD213      0.3518
     23  O3        26.6790  -16.4190  -18.1690 O.3   213  NAD213     -0.2703
     24  PN        25.9460  -15.1900  -17.3970 P.3   213  NAD213      0.2189
     25  O1N       26.9440  -14.1610  -17.1610 O.2   213  NAD213     -0.5170
     26  O2N       25.1580  -15.8190  -16.3330 O.3   213  NAD213     -0.4371
     27  O5D       24.9590  -14.6390  -18.5500 O.3   213  NAD213     -0.3112
     28  C5D       23.8480  -15.2990  -19.0520 C.3   213  NAD213      0.1813
     29  C4D       23.4820  -14.5010  -20.2970 C.3   213  NAD213      0.1799
     30  O4D       22.8720  -13.3060  -19.9080 O.3   213  NAD213     -0.3327
     31  C3D       24.6670  -14.0440  -21.1760 C.3   213  NAD213      0.2158
     32  O3D       24.1990  -13.9270  -22.5120 O.3   213  NAD213     -0.2175
     33  C2D       25.0260  -12.6610  -20.7010 C.3   213  NAD213      0.2309
     34  O2D       25.5870  -11.8010  -21.6950 O.3   213  NAD213     -0.2158
     35  C1D       23.6250  -12.1810  -20.3110 C.3   213  NAD213      0.2263
     36  N1N       23.7800  -11.1050  -19.3050 N.pl3 213  NAD213     -0.2787
     37  C2N       24.0870  -11.3590  -17.9800 C.3   213  NAD213      0.1244
     38  C3N       24.2500  -10.2640  -17.1070 C.2   213  NAD213      0.0544
     39  C7N       24.8990  -10.4210  -15.7430 C.2   213  NAD213      0.2818
     40  O7N       24.6370   -9.4710  -14.7320 O.2   213  NAD213     -0.2670
     41  N7N       25.7390  -11.4420  -15.5020 N.am  213  NAD213     -0.0839
     42  C4N       24.1430   -8.9720  -17.6010 C.2   213  NAD213      0.0033
     43  C5N       23.8510   -8.7490  -18.9510 C.2   213  NAD213      0.0157
     44  C6N       23.6830   -9.8220  -19.7990 C.2   213  NAD213      0.0633
@<TRIPOS>BOND
     1    18    17    1
     2    17    19    2
     3    17    16    1
     4    32    31    1
     5    15    16    2
     6    15    14    1
     7    19    20    1
     8    16    22    1
     9    34    33    1
    10    14    13    1
    11    31    33    1
    12    31    29    1
    13    20    21    1
    14    22    13    1
    15    22    21    2
    16    33    35    1
    17    13    12    1
    18    35    30    1
    19    35    36    1
    20    29    30    1
    21    29    28    1
    22    44    36    1
    23    44    43    2
    24    36    37    1
    25     7    12    1
    26     7     6    1
    27    28    27    1
    28    12    10    1
    29    43    42    1
    30    27    24    1
    31    10    11    1
    32    10     8    1
    33     5     6    1
    34     5     4    1
    35     2     1    2
    36    23     1    1
    37    23    24    1
    38     6     8    1
    39    37    38    1
    40    42    38    2
    41     8     9    1
    42     1     4    1
    43     1     3    1
    44    24    25    2
    45    24    26    1
    46    38    39    1
    47    39    41   am
    48    39    40    2
