@<TRIPOS>MOLECULE
3ker_RW1_A_1.pdb
 12 13 0 0 0
SMALL
GASTEIGER

@<TRIPOS>ATOM
      1  C2        11.9930  -25.4290    0.4360 C.ar  120  RW1120      0.1989
      2  N3        13.0980  -25.8520    1.0220 N.ar  120  RW1120     -0.2224
      3  C4        14.1350  -26.2640    0.3150 C.ar  120  RW1120      0.1022
      4  C5        14.0610  -26.2570   -1.0740 C.ar  120  RW1120      0.0398
      5  N1        11.8800  -25.3990   -0.8800 N.ar  120  RW1120     -0.2240
      6  C6        12.8890  -25.8010   -1.6680 C.ar  120  RW1120      0.0846
      7  C7        12.7970  -25.6880   -3.0520 C.ar  120  RW1120      0.0178
      8  C8        11.7890  -24.9170   -3.6230 C.ar  120  RW1120      0.0015
      9  C12       13.7230  -26.3260   -3.8720 C.ar  120  RW1120      0.0015
     10  C11       13.6430  -26.1920   -5.2540 C.ar  120  RW1120      0.0000
     11  C10       12.6360  -25.4180   -5.8190 C.ar  120  RW1120      0.0000
     12  C9        11.7070  -24.7800   -5.0040 C.ar  120  RW1120      0.0000
@<TRIPOS>BOND
     1    11    10   ar
     2    11    12   ar
     3    10     9   ar
     4    12     8   ar
     5     9     7   ar
     6     8     7   ar
     7     7     6    1
     8     6     4   ar
     9     6     5   ar
    10     4     3   ar
    11     5     1   ar
    12     3     2   ar
    13     1     2   ar
