@<TRIPOS>MOLECULE
3ket_NAD_A_1.pdb
 44 48 0 0 0
SMALL
GASTEIGER

@<TRIPOS>ATOM
      1  PA        -1.8110   -9.4910   10.6060 P.3   213  NAD213      0.2189
      2  O1A       -2.4410  -10.8230   10.3200 O.3   213  NAD213     -0.4371
      3  O2A       -2.1710   -8.2660    9.8330 O.2   213  NAD213     -0.5170
      4  O5B       -0.1930   -9.6790   10.6520 O.3   213  NAD213     -0.3112
      5  C5B        0.4550  -10.8930   11.0510 C.3   213  NAD213      0.1813
      6  C4B        1.7090  -11.1490   10.2080 C.3   213  NAD213      0.1821
      7  O4B        2.4820  -12.2260   10.7370 O.3   213  NAD213     -0.3135
      8  C3B        1.3880  -11.5120    8.7490 C.3   213  NAD213      0.2184
      9  O3B        2.1980  -10.7170    7.8500 O.3   213  NAD213     -0.2174
     10  C2B        1.7580  -12.9610    8.6620 C.3   213  NAD213      0.2570
     11  O2B        2.1700  -13.3420    7.3540 O.3   213  NAD213     -0.2130
     12  C1B        2.8760  -13.0970    9.6850 C.3   213  NAD213      0.3186
     13  N9A        3.1430  -14.4910   10.1740 N.pl3 213  NAD213     -0.1439
     14  C8A        2.2830  -15.4950   10.3820 C.3   213  NAD213      0.3377
     15  N7A        2.9410  -16.6020   10.8640 N.2   213  NAD213     -0.2095
     16  C5A        4.2410  -16.2420   10.9540 C.2   213  NAD213      0.2526
     17  C6A        5.3660  -16.9400   11.3480 C.2   213  NAD213      0.4393
     18  N6A        5.2410  -18.2420   11.7440 N.pl3 213  NAD213      0.2180
     19  N1A        6.5560  -16.2750   11.3340 N.2   213  NAD213      0.0021
     20  C2A        6.6380  -15.0000   10.9140 C.3   213  NAD213      0.5254
     21  N3A        5.5660  -14.3140   10.5450 N.2   213  NAD213     -0.0055
     22  C4A        4.3640  -14.9270   10.5440 C.2   213  NAD213      0.3518
     23  O3        -2.1010   -9.2260   12.1750 O.3   213  NAD213     -0.2703
     24  PN        -2.0820   -7.7740   12.7980 P.3   213  NAD213      0.2189
     25  O1N       -3.4200   -7.2140   12.5220 O.3   213  NAD213     -0.4371
     26  O2N       -0.8920   -6.9910   12.3490 O.2   213  NAD213     -0.5170
     27  O5D       -2.0180   -8.0580   14.3620 O.3   213  NAD213     -0.3112
     28  C5D       -1.0620   -8.8920   14.9550 C.3   213  NAD213      0.1813
     29  C4D       -1.3640   -9.1130   16.4050 C.3   213  NAD213      0.1799
     30  O4D       -1.7300   -7.8940   17.0120 O.3   213  NAD213     -0.3327
     31  C3D       -2.5320  -10.0630   16.6210 C.3   213  NAD213      0.2158
     32  O3D       -2.2350  -10.8530   17.8010 O.3   213  NAD213     -0.2175
     33  C2D       -3.7160   -9.1390   16.8340 C.3   213  NAD213      0.2309
     34  O2D       -4.6840   -9.7410   17.6900 O.3   213  NAD213     -0.2158
     35  C1D       -3.0530   -8.0060   17.5490 C.3   213  NAD213      0.2263
     36  N1N       -3.8430   -6.8240   17.3390 N.pl3 213  NAD213     -0.2787
     37  C2N       -3.6610   -6.0470   16.2430 C.3   213  NAD213      0.1244
     38  C3N       -4.4650   -4.9100   16.0690 C.2   213  NAD213      0.0544
     39  C7N       -4.2620   -4.0280   14.8820 C.2   213  NAD213      0.2818
     40  O7N       -4.6390   -2.7840   15.0120 O.2   213  NAD213     -0.2670
     41  N7N       -3.7040   -4.4770   13.7610 N.am  213  NAD213     -0.0839
     42  C4N       -5.4350   -4.5800   17.0060 C.2   213  NAD213      0.0033
     43  C5N       -5.6020   -5.4100   18.1410 C.2   213  NAD213      0.0157
     44  C6N       -4.7840   -6.5190   18.2880 C.2   213  NAD213      0.0633
@<TRIPOS>BOND
     1    11    10    1
     2     9     8    1
     3    10     8    1
     4    10    12    1
     5     8     6    1
     6    12    13    1
     7    12     7    1
     8     3     1    2
     9    13    14    1
    10    13    22    1
    11     6     7    1
    12     6     5    1
    13     2     1    1
    14    14    15    1
    15    22    21    2
    16    22    16    1
    17    21    20    1
    18     1     4    1
    19     1    23    1
    20     4     5    1
    21    15    16    2
    22    20    19    1
    23    16    17    1
    24    19    17    2
    25    17    18    1
    26    23    24    1
    27    26    24    2
    28    25    24    1
    29    24    27    1
    30    41    39   am
    31    27    28    1
    32    39    40    2
    33    39    38    1
    34    28    29    1
    35    38    37    1
    36    38    42    2
    37    37    36    1
    38    29    31    1
    39    29    30    1
    40    31    33    1
    41    31    32    1
    42    33    35    1
    43    33    34    1
    44    42    43    1
    45    30    35    1
    46    36    35    1
    47    36    44    1
    48    43    44    2
