@<TRIPOS>MOLECULE
3keu_ATP_A_1.pdb
 31 33 0 0 0
SMALL
GASTEIGER

@<TRIPOS>ATOM
      1  PG        26.8850    1.3920   46.4750 P.3   407  ATP407      0.5373
      2  O1G       26.1240    2.5380   45.6340 O.2   407  ATP407     -0.2221
      3  O2G       26.8380    1.9120   48.0010 O.3   407  ATP407     -0.1143
      4  O3G       28.2720    1.1640   46.0130 O.3   407  ATP407     -0.1143
      5  PB        26.3620   -1.4550   46.3840 P.3   407  ATP407      0.2277
      6  O1B       27.6980   -1.7170   45.7970 O.2   407  ATP407     -0.5168
      7  O2B       25.6230   -2.4130   47.2310 O.3   407  ATP407     -0.4368
      8  O3B       25.9180    0.0960   46.4420 O.3   407  ATP407     -0.2258
      9  PA        25.6920   -2.8820   43.9810 P.3   407  ATP407      0.2189
     10  O1A       25.1600   -2.5650   42.6400 O.2   407  ATP407     -0.5170
     11  O2A       26.7540   -3.8790   44.2420 O.3   407  ATP407     -0.4371
     12  O3A       25.4720   -1.7000   45.0580 O.3   407  ATP407     -0.2700
     13  O5'       24.4560   -3.7780   44.5000 O.3   407  ATP407     -0.3112
     14  C5'       23.1800   -3.2170   44.8190 C.3   407  ATP407      0.1813
     15  C4'       22.0510   -4.1320   44.3360 C.3   407  ATP407      0.1821
     16  O4'       22.0370   -4.2100   42.9010 O.3   407  ATP407     -0.3135
     17  C3'       22.1740   -5.5710   44.8440 C.3   407  ATP407      0.2184
     18  O3'       21.4650   -5.6650   46.0810 O.3   407  ATP407     -0.2174
     19  C2'       21.3420   -6.3010   43.7920 C.3   407  ATP407      0.2570
     20  O2'       19.9500   -6.1240   44.0770 O.3   407  ATP407     -0.2130
     21  C1'       21.7010   -5.5540   42.5090 C.3   407  ATP407      0.3186
     22  N9        22.8970   -6.1210   41.8410 N.pl3 407  ATP407     -0.1439
     23  C8        24.0000   -5.4510   41.5330 C.3   407  ATP407      0.3377
     24  N7        24.8340   -6.2460   40.8680 N.2   407  ATP407     -0.2095
     25  C5        24.2600   -7.4420   40.7590 C.2   407  ATP407      0.2526
     26  C6        24.6250   -8.6380   40.1610 C.2   407  ATP407      0.4393
     27  N6        25.8020   -8.7550   39.5480 N.pl3 407  ATP407      0.2180
     28  N1        23.7760   -9.6710   40.2060 N.2   407  ATP407      0.0021
     29  C2        22.6040   -9.5610   40.8080 C.3   407  ATP407      0.5254
     30  N3        22.2200   -8.4370   41.3890 N.2   407  ATP407     -0.0055
     31  C4        23.0180   -7.3640   41.3800 C.2   407  ATP407      0.3518
@<TRIPOS>BOND
     1    27    26    1
     2    26    28    2
     3    26    25    1
     4    28    29    1
     5    25    24    2
     6    25    31    1
     7    29    30    1
     8    24    23    1
     9    31    30    2
    10    31    22    1
    11    23    22    1
    12    22    21    1
    13    21    16    1
    14    21    19    1
    15    10     9    2
    16    16    15    1
    17    19    20    1
    18    19    17    1
    19     9    11    1
    20     9    13    1
    21     9    12    1
    22    15    14    1
    23    15    17    1
    24    13    14    1
    25    17    18    1
    26    12     5    1
    27     2     1    2
    28     6     5    2
    29     4     1    1
    30     5     8    1
    31     5     7    1
    32     8     1    1
    33     1     3    1
