@<TRIPOS>MOLECULE
3keu_PLP_A_1.pdb
 16 16 0 0 0
SMALL
GASTEIGER

@<TRIPOS>ATOM
      1  N1        27.8150    7.9860   39.5330 N.ar  500  PLP500     -0.2452
      2  C2        29.1190    7.8760   39.2410 C.ar  500  PLP500      0.0982
      3  C2A       29.9240    9.1280   38.8660 C.3   500  PLP500      0.0555
      4  C3        29.7380    6.6360   39.2760 C.ar  500  PLP500      0.2120
      5  O3        31.0470    6.5120   38.9340 O.3   500  PLP500     -0.2852
      6  C4        28.9890    5.5150   39.6220 C.ar  500  PLP500      0.0822
      7  C4A       29.6530    4.1410   39.7330 C.2   500  PLP500      0.2372
      8  O4A       30.8190    4.0260   40.0930 O.2   500  PLP500     -0.2830
      9  C5        27.6350    5.6550   39.9080 C.ar  500  PLP500      0.0333
     10  C6        27.0860    6.9330   39.8530 C.ar  500  PLP500      0.0969
     11  C5A       26.7140    4.4840   40.2450 C.3   500  PLP500      0.1819
     12  O4P       27.2400    3.6890   41.3170 O.3   500  PLP500     -0.2653
     13  P         26.6710    2.2110   41.6100 P.3   500  PLP500      0.5329
     14  O1P       25.1080    2.2240   41.2380 O.3   500  PLP500     -0.1145
     15  O2P       26.9110    1.7690   43.0040 O.3   500  PLP500     -0.1145
     16  O3P       27.3930    1.2570   40.5320 O.2   500  PLP500     -0.2224
@<TRIPOS>BOND
     1     3     2    1
     2     5     4    1
     3     2     4   ar
     4     2     1   ar
     5     4     6   ar
     6     1    10   ar
     7     6     7    1
     8     6     9   ar
     9     7     8    2
    10    10     9   ar
    11     9    11    1
    12    11    12    1
    13    16    13    2
    14    14    13    1
    15    12    13    1
    16    13    15    1
