@<TRIPOS>MOLECULE
3kex_ANP_A_1.pdb
 31 33 0 0 0
SMALL
GASTEIGER

@<TRIPOS>ATOM
      1  PG        26.7150   -0.0600  -12.7470 P.3     1  ANP1        0.4884
      2  O1G       27.6010   -0.9620  -11.6850 O.3     1  ANP1       -0.1240
      3  O2G       26.0620   -1.1100  -13.8310 O.2     1  ANP1       -0.2331
      4  O3G       27.5440    0.9030  -13.4400 O.3     1  ANP1       -0.1240
      5  PB        24.9810    0.0140  -10.5890 P.3     1  ANP1        0.4669
      6  O1B       23.3360    0.0450  -10.5190 O.3     1  ANP1       -0.1253
      7  O2B       25.4530   -1.3760  -10.6740 O.2     1  ANP1       -0.2351
      8  N3B       25.5300    0.8470  -11.9550 N.3     1  ANP1       -0.0163
      9  PA        27.0680    1.1580   -8.9620 P.3     1  ANP1        0.2220
     10  O1A       28.0550   -0.1620   -9.0240 O.3     1  ANP1       -0.4370
     11  O2A       27.4900    2.1330   -9.9460 O.2     1  ANP1       -0.5170
     12  O3A       25.4930    0.7780   -9.2240 O.3     1  ANP1       -0.2360
     13  O5'       27.1130    1.8410   -7.4540 O.3     1  ANP1       -0.3111
     14  C5'       26.0790    1.5540   -6.5590 C.3     1  ANP1        0.1813
     15  C4'       25.1100    2.7360   -6.3230 C.3     1  ANP1        0.1821
     16  O4'       25.7170    4.0200   -6.3280 O.3     1  ANP1       -0.3135
     17  C3'       23.9130    2.8880   -7.3580 C.3     1  ANP1        0.2184
     18  O3'       22.7080    2.2140   -7.1290 O.3     1  ANP1       -0.2174
     19  C2'       23.9070    4.4090   -7.7530 C.3     1  ANP1        0.2570
     20  O2'       22.6930    5.0350   -8.0720 O.3     1  ANP1       -0.2130
     21  C1'       24.7870    4.9920   -6.6810 C.3     1  ANP1        0.3186
     22  N9        25.5330    6.1450   -7.2030 N.pl3   1  ANP1       -0.1439
     23  C8        26.5520    6.1360   -8.1140 C.3     1  ANP1        0.3377
     24  N7        26.9970    7.4960   -8.2680 N.2     1  ANP1       -0.2095
     25  C5        26.2090    8.3220   -7.4140 C.2     1  ANP1        0.2526
     26  C6        26.2230    9.6690   -7.1810 C.2     1  ANP1        0.4393
     27  N6        27.1840   10.5140   -7.8500 N.pl3   1  ANP1        0.2180
     28  N1        25.2960   10.2320   -6.2510 N.2     1  ANP1        0.0021
     29  C2        24.4240    9.4430   -5.6140 C.3     1  ANP1        0.5254
     30  N3        24.4110    8.0610   -5.8530 N.2     1  ANP1       -0.0055
     31  C4        25.3140    7.5180   -6.7550 C.2     1  ANP1        0.3518
@<TRIPOS>BOND
     1     3     1    2
     2     4     1    1
     3     1     8    1
     4     1     2    1
     5     8     5    1
     6     7     5    2
     7     5     6    1
     8     5    12    1
     9    11     9    2
    10    12     9    1
    11    10     9    1
    12     9    13    1
    13    24    23    1
    14    24    25    2
    15    23    22    1
    16    20    19    1
    17    27    26    1
    18    19    17    1
    19    19    21    1
    20    13    14    1
    21    25    26    1
    22    25    31    1
    23    17    18    1
    24    17    15    1
    25    22    31    1
    26    22    21    1
    27    26    28    2
    28    31    30    2
    29    21    16    1
    30    14    15    1
    31    16    15    1
    32    28    29    1
    33    30    29    1
