@<TRIPOS>MOLECULE
3kf3_FRU_A_1.pdb
 12 12 0 0 0
SMALL
GASTEIGER

@<TRIPOS>ATOM
      1  C1        17.1650   -8.4810   19.7690 C.3   600  FRU600      0.2434
      2  C2        17.4920   -9.9630   19.7480 C.3   600  FRU600      0.2807
      3  C3        18.7160  -10.3230   18.9380 C.3   600  FRU600      0.2409
      4  C4        18.6720  -11.8590   18.9770 C.3   600  FRU600      0.2168
      5  C5        17.1980  -12.1730   19.0400 C.3   600  FRU600      0.1836
      6  C6        16.7610  -13.3720   19.8770 C.3   600  FRU600      0.2142
      7  O1        15.7750   -8.2560   19.9380 O.3   600  FRU600     -0.2148
      8  O2        17.9810  -10.2160   21.0900 O.3   600  FRU600     -0.1896
      9  O3        19.9110   -9.6790   19.3710 O.3   600  FRU600     -0.2149
     10  O4        19.1580  -12.3960   17.7770 O.3   600  FRU600     -0.2175
     11  O5        16.5890  -11.0110   19.5550 O.3   600  FRU600     -0.3253
     12  O6        15.3730  -13.5490   19.5720 O.3   600  FRU600     -0.2176
@<TRIPOS>BOND
     1    10     4    1
     2     3     4    1
     3     3     9    1
     4     3     2    1
     5     4     5    1
     6     5    11    1
     7     5     6    1
     8    11     2    1
     9    12     6    1
    10     2     1    1
    11     2     8    1
    12     1     7    1
