@<TRIPOS>MOLECULE
3kf4_B90_A_1.pdb
 32 36 0 0 0
SMALL
GASTEIGER

@<TRIPOS>ATOM
      1  N1        34.2750   -7.8030  -17.4230 N.2     1  B901       -0.1464
      2  C2        34.6230   -8.2210  -18.6310 C.2     1  B901        0.1233
      3  C3        35.0800   -9.5950  -18.4450 C.2     1  B901        0.0368
      4  C4        34.9610   -9.9030  -17.0400 C.2     1  B901        0.1038
      5  N5        34.4640   -8.7540  -16.5000 N.2     1  B901       -0.1479
      6  C6        35.5730  -10.5790  -19.3290 C.2     1  B901       -0.0119
      7  C7        35.9430  -11.8760  -18.8160 C.3     1  B901        0.0445
      8  C8        35.8120  -12.1370  -17.4220 C.2     1  B901       -0.0205
      9  C9        35.3190  -11.1430  -16.5450 C.2     1  B901        0.0167
     10  C10       36.4690  -12.9690  -19.7130 C.3     1  B901        0.0094
     11  C14       35.7100  -10.2770  -20.7860 C.2     1  B901        0.0401
     12  C15       34.6530  -10.0660  -21.5910 C.2     1  B901        0.1772
     13  N16       34.7920   -9.9020  -23.0510 N.pl3   1  B901       -0.1436
     14  C17       34.0260  -10.5100  -23.9910 C.3     1  B901        0.3407
     15  N18       34.3870  -10.1680  -25.2330 N.2     1  B901       -0.2094
     16  C19       35.4560   -9.2820  -25.0910 C.2     1  B901        0.2486
     17  C20       35.7130   -9.1000  -23.7070 C.2     1  B901        0.3542
     18  C21       36.2650   -8.5690  -25.9620 C.2     1  B901        0.3904
     19  N22       37.2640   -7.7440  -25.4940 N.2     1  B901       -0.0016
     20  C23       37.4390   -7.6350  -24.1440 C.3     1  B901        0.5253
     21  N24       36.7000   -8.2890  -23.2350 N.2     1  B901       -0.0051
     22  N25       36.0390   -8.7250  -27.2980 N.pl3   1  B901       -0.0044
     23  C26       36.7240   -8.1820  -28.3700 C.ar    1  B901        0.1835
     24  C27       36.1840   -8.4100  -29.6670 C.ar    1  B901        0.0445
     25  C28       36.8140   -7.8760  -30.8100 C.ar    1  B901        0.0065
     26  C29       37.9860   -7.1120  -30.6780 C.ar    1  B901        0.0299
     27  C30       38.5470   -6.8800  -29.3980 C.ar    1  B901        0.0065
     28  C31       37.9220   -7.4110  -28.2470 C.ar    1  B901        0.0445
     29  P36       38.7440   -6.4260  -32.1840 P.3     1  B901        0.1353
     30  C37       40.4190   -5.7360  -31.7720 C.3     1  B901        0.0720
     31  C41       37.8000   -4.9630  -32.8030 C.3     1  B901        0.0720
     32  O45       38.8470   -7.4690  -33.2170 O.2     1  B901       -0.3149
@<TRIPOS>BOND
     1    32    29    2
     2    31    29    1
     3    29    30    1
     4    29    26    1
     5    25    26   ar
     6    25    24   ar
     7    26    27   ar
     8    24    23   ar
     9    27    28   ar
    10    23    28   ar
    11    23    22    1
    12    22    18    1
    13    18    19    2
    14    18    16    1
    15    19    20    1
    16    15    16    2
    17    15    14    1
    18    16    17    1
    19    20    21    1
    20    14    13    1
    21    17    21    2
    22    17    13    1
    23    13    12    1
    24    12    11    2
    25    11     6    1
    26    10     7    1
    27     6     7    1
    28     6     3    2
    29     7     8    1
    30     2     3    1
    31     2     1    2
    32     3     4    1
    33     1     5    1
    34     8     9    2
    35     4     9    1
    36     4     5    2
