@<TRIPOS>MOLECULE
3kf7_L9G_A_1.pdb
 29 32 0 0 0
SMALL
GASTEIGER

@<TRIPOS>ATOM
      1  C1        35.0480   39.4460   19.7000 C.ar  401  L9G401      0.0389
      2  C2        34.7890   39.7550   21.1720 C.ar  401  L9G401      0.1704
      3  N3        34.6380   38.7990   22.0790 N.ar  401  L9G401     -0.2728
      4  C4        34.7200   37.3760   21.7200 C.ar  401  L9G401      0.0786
      5  C5        34.9520   37.0970   20.3870 C.ar  401  L9G401     -0.0041
      6  C6        35.0990   38.0870   19.4320 C.ar  401  L9G401      0.0004
      7  C7        34.4230   39.3940   23.3060 C.ar  401  L9G401      0.1700
      8  N8        34.6670   40.9230   21.7970 N.ar  401  L9G401     -0.1284
      9  N9        34.4320   40.6640   23.1190 N.ar  401  L9G401     -0.1284
     10  C10       35.0330   35.6420   20.0030 C.3   401  L9G401      0.0326
     11  C11       36.4500   35.1530   19.7320 C.3   401  L9G401      0.0334
     12  C12       37.0580   35.7980   18.5220 C.ar  401  L9G401      0.0058
     13  C13       38.2210   36.5360   18.6370 C.ar  401  L9G401      0.1384
     14  C14       38.8080   37.1310   17.5570 C.ar  401  L9G401      0.0589
     15  C15       38.2190   36.9920   16.3270 C.ar  401  L9G401      0.1424
     16  C16       37.0600   36.2650   16.1730 C.ar  401  L9G401      0.0295
     17  C17       36.4830   35.6550   17.2710 C.ar  401  L9G401      0.0003
     18  F18       38.8320   36.6900   19.8110 F     401  L9G401     -0.2044
     19  F19       38.8070   37.5970   15.2980 F     401  L9G401     -0.2041
     20  C20       34.1820   38.8190   24.6610 C.ar  401  L9G401      0.0325
     21  C21       35.0790   39.1970   25.6360 C.ar  401  L9G401      0.0074
     22  C22       34.8940   38.7980   26.9410 C.ar  401  L9G401      0.0567
     23  C23       33.8240   38.0130   27.3040 C.ar  401  L9G401      0.0043
     24  C24       32.9300   37.6150   26.3140 C.ar  401  L9G401     -0.0040
     25  C25       33.1000   38.0240   24.9990 C.ar  401  L9G401     -0.0189
     26  C26       35.9200   39.2670   27.9010 C.2   401  L9G401      0.2842
     27  N27       35.8070   38.7430   29.1580 N.am  401  L9G401     -0.0837
     28  O28       36.7690   40.0650   27.5170 O.2   401  L9G401     -0.2667
     29  C29       32.0820   37.6070   23.9750 C.3   401  L9G401      0.0311
@<TRIPOS>BOND
     1    19    15    1
     2    16    15   ar
     3    16    17   ar
     4    15    14   ar
     5    17    12   ar
     6    14    13   ar
     7    12    13   ar
     8    12    11    1
     9    13    18    1
    10     6     1   ar
    11     6     5   ar
    12     1     2   ar
    13    11    10    1
    14    10     5    1
    15     5     4   ar
    16     2     8   ar
    17     2     3   ar
    18     4     3   ar
    19     8     9   ar
    20     3     7   ar
    21     9     7   ar
    22     7    20    1
    23    29    25    1
    24    20    25   ar
    25    20    21   ar
    26    25    24   ar
    27    21    22   ar
    28    24    23   ar
    29    22    23   ar
    30    22    26    1
    31    28    26    2
    32    26    27   am
