@<TRIPOS>MOLECULE
3kfa_B91_A_1.pdb
 41 46 0 0 0
SMALL
GASTEIGER

@<TRIPOS>ATOM
      1  C1        18.3370   -9.3260    9.5910 C.2     1  B911        0.3542
      2  F1        12.5540   -4.6400   18.5400 F       1  B911       -0.1659
      3  N1        17.3090   -9.9130   10.2840 N.pl3   1  B911       -0.1436
      4  O1        15.5850   -7.6620   16.2180 O.2     1  B911       -0.2680
      5  C2        19.0160   -8.4720    3.6040 C.3     1  B911        0.0552
      6  F2        11.5440   -6.4890   18.4420 F       1  B911       -0.1659
      7  N2        16.2160   -8.5610   18.2140 N.am    1  B911       -0.1754
      8  C3        17.1530  -10.1670   11.7090 C.2     1  B911        0.1775
      9  F3        11.5280   -5.3580   20.2760 F       1  B911       -0.1659
     10  N3        15.7310   -6.9880   22.6820 N.pl3   1  B911       -0.2819
     11  C4        18.1240  -10.1410   12.5790 C.2     1  B911        0.0436
     12  N4        15.8040   -7.1560   24.8800 N.2     1  B911       -0.2549
     13  C5        17.8880  -10.3490   14.0070 C.ar    1  B911       -0.0003
     14  N5        16.6760   -9.9370    8.1730 N.2     1  B911       -0.2094
     15  C6        18.3440  -11.5240   14.6490 C.ar    1  B911       -0.0217
     16  N6        19.5060   -8.8290   10.0310 N.2     1  B911       -0.0051
     17  C7        18.1290  -11.7160   16.0400 C.ar    1  B911       -0.0041
     18  N7        19.9620   -8.2670    7.7600 N.2     1  B911       -0.0020
     19  C8        17.4380  -10.7280   16.7830 C.ar    1  B911        0.0043
     20  N8        18.4280   -8.7350    6.0170 N.pl3   1  B911       -0.0344
     21  C9        16.9650   -9.5530   16.1430 C.ar    1  B911        0.0554
     22  C10       17.1960   -9.3610   14.7560 C.ar    1  B911        0.0044
     23  C11       19.0520  -12.5990   13.8860 C.3     1  B911        0.0310
     24  C12       16.2190   -8.5150   16.8550 C.2     1  B911        0.2690
     25  C13       15.4590   -7.8040   19.0800 C.ar    1  B911        0.0749
     26  C14       15.9110   -7.7140   20.3770 C.ar    1  B911        0.0312
     27  C15       15.2170   -6.9790   21.3740 C.ar    1  B911        0.0507
     28  C16       14.0220   -6.3230   21.0000 C.ar    1  B911        0.0185
     29  C17       13.5240   -6.3960   19.6660 C.ar    1  B911        0.0739
     30  C18       14.2550   -7.1460   18.7190 C.ar    1  B911        0.0205
     31  C19       12.2520   -5.7120   19.2270 C.3     1  B911        0.4187
     32  C22       17.0550   -6.9300   23.0430 C.3     1  B911        0.1337
     33  C23       14.9670   -7.1280   23.8220 C.3     1  B911        0.2194
     34  C24       19.3030   -8.0120    5.0290 C.3     1  B911        0.2054
     35  C25       17.0650   -7.0390   24.4280 C.2     1  B911        0.0539
     36  C26       16.3040  -10.2880    9.4400 C.3     1  B911        0.3407
     37  C27       18.2180   -7.0480   25.3310 C.3     1  B911        0.0487
     38  C28       20.2890   -8.9560    4.3150 C.3     1  B911        0.0552
     39  C29       17.9100   -9.3430    8.2460 C.2     1  B911        0.2481
     40  C30       18.7780   -8.7780    7.3300 C.2     1  B911        0.3854
     41  C33       20.3100   -8.2980    9.0650 C.3     1  B911        0.5253
@<TRIPOS>BOND
     1     5    38    1
     2     5    34    1
     3    38    34    1
     4    34    20    1
     5    20    40    1
     6    40    18    2
     7    40    39    1
     8    18    41    1
     9    14    39    2
    10    14    36    1
    11    39     1    1
    12    41    16    1
    13    36     3    1
    14     1    16    2
    15     1     3    1
    16     3     8    1
    17     8    11    2
    18    11    13    1
    19    23    15    1
    20    13    15   ar
    21    13    22   ar
    22    15    17   ar
    23    22    21   ar
    24    17    19   ar
    25    21    19   ar
    26    21    24    1
    27     4    24    2
    28    24     7   am
    29     7    25    1
    30     6    31    1
    31     2    31    1
    32    30    25   ar
    33    30    29   ar
    34    25    26   ar
    35    31    29    1
    36    31     9    1
    37    29    28   ar
    38    26    27   ar
    39    28    27   ar
    40    27    10    1
    41    10    32    1
    42    10    33    1
    43    32    35    1
    44    33    12    1
    45    35    12    2
    46    35    37    1
