@<TRIPOS>MOLECULE
3kfb_ANP_A_1.pdb
 31 33 0 0 0
SMALL
GASTEIGER

@<TRIPOS>ATOM
      1  PG        18.1110  -90.3440   82.1670 P.3   544  ANP544      0.4884
      2  O1G       19.1310  -89.2930   82.4510 O.3   544  ANP544     -0.1240
      3  O2G       17.9180  -90.7360   80.7450 O.2   544  ANP544     -0.2331
      4  O3G       16.8170  -89.9310   82.7790 O.3   544  ANP544     -0.1240
      5  PB        17.8470  -92.5250   84.0690 P.3   544  ANP544      0.4669
      6  O1B       16.3770  -92.4980   83.8950 O.2   544  ANP544     -0.2351
      7  O2B       18.5330  -93.8110   84.2800 O.3   544  ANP544     -0.1253
      8  N3B       18.5300  -91.7800   82.8000 N.3   544  ANP544     -0.0163
      9  PA        17.4480  -90.7120   86.4140 P.3   544  ANP544      0.2220
     10  O1A       18.4090  -89.8970   87.1660 O.3   544  ANP544     -0.4370
     11  O2A       16.3280  -90.0240   85.7490 O.2   544  ANP544     -0.5170
     12  O3A       18.2880  -91.6080   85.3460 O.3   544  ANP544     -0.2360
     13  O5'       16.8980  -91.7930   87.4570 O.3   544  ANP544     -0.3111
     14  C5'       15.9370  -92.7910   87.1240 C.3   544  ANP544      0.1813
     15  C4'       15.9400  -93.9040   88.1570 C.3   544  ANP544      0.1821
     16  O4'       15.3570  -93.4120   89.3860 O.3   544  ANP544     -0.3135
     17  C3'       15.1220  -95.0980   87.7270 C.3   544  ANP544      0.2184
     18  O3'       15.8840  -96.2730   88.0590 O.3   544  ANP544     -0.2174
     19  C2'       13.8060  -94.8890   88.4900 C.3   544  ANP544      0.2570
     20  O2'       13.0680  -96.1040   88.7060 O.3   544  ANP544     -0.2130
     21  C1'       14.2230  -94.2130   89.7780 C.3   544  ANP544      0.3186
     22  N9        13.1580  -93.3200   90.3330 N.pl3 544  ANP544     -0.1439
     23  C8        12.3770  -92.3490   89.7190 C.3   544  ANP544      0.3377
     24  N7        11.5320  -91.7470   90.5170 N.2   544  ANP544     -0.2095
     25  C5        11.7540  -92.3470   91.7560 C.2   544  ANP544      0.2526
     26  C6        11.1860  -92.1790   93.0730 C.2   544  ANP544      0.4393
     27  N6        10.2220  -91.3060   93.3750 N.pl3 544  ANP544      0.2180
     28  N1        11.6640  -92.9650   94.0950 N.2   544  ANP544      0.0021
     29  C2        12.6370  -93.8620   93.8500 C.3   544  ANP544      0.5254
     30  N3        13.2440  -94.1100   92.6630 N.2   544  ANP544     -0.0055
     31  C4        12.7480  -93.3100   91.6510 C.2   544  ANP544      0.3518
@<TRIPOS>BOND
     1     3     1    2
     2     1     2    1
     3     1     4    1
     4     1     8    1
     5     8     5    1
     6     6     5    2
     7     5     7    1
     8     5    12    1
     9    12     9    1
    10    11     9    2
    11     9    10    1
    12     9    13    1
    13    14    13    1
    14    14    15    1
    15    17    18    1
    16    17    15    1
    17    17    19    1
    18    15    16    1
    19    19    20    1
    20    19    21    1
    21    16    21    1
    22    23    22    1
    23    23    24    1
    24    21    22    1
    25    22    31    1
    26    24    25    2
    27    31    25    1
    28    31    30    2
    29    25    26    1
    30    30    29    1
    31    26    27    1
    32    26    28    2
    33    29    28    1
