@<TRIPOS>MOLECULE
3kfc_61X_A_1.pdb
 31 34 0 0 0
SMALL
GASTEIGER

@<TRIPOS>ATOM
      1  C1         9.6880   53.0900   26.6470 C.3     1  61X1        0.1816
      2  F1        21.5380   55.7430   32.9380 F       1  61X1       -0.1693
      3  N1        20.2940   53.6580   31.1030 N.2     1  61X1       -0.2482
      4  O1         8.5040   51.5720   28.3740 O.2     1  61X1       -0.1686
      5  S1         9.1410   51.4690   27.0770 S.O2    1  61X1        0.0105
      6  C2        10.6160   50.5420   27.3990 C.ar    1  61X1        0.1088
      7  F2        22.5060   55.2920   31.0580 F       1  61X1       -0.1693
      8  O2         8.4520   50.8740   25.9550 O.2     1  61X1       -0.1686
      9  C3        10.7880   49.2290   26.9480 C.ar    1  61X1        0.0185
     10  F3        22.1750   57.2980   31.6490 F       1  61X1       -0.1693
     11  O3        13.7070   51.1700   29.2170 O.3     1  61X1       -0.4535
     12  C4        11.9830   48.5490   27.2480 C.ar    1  61X1        0.0044
     13  C5        12.9980   49.1640   28.0060 C.ar    1  61X1        0.0376
     14  C6        12.7940   50.4780   28.4560 C.ar    1  61X1        0.1466
     15  C7        11.6140   51.1610   28.1620 C.ar    1  61X1        0.0558
     16  C8        14.5770   52.0710   28.6390 C.ar    1  61X1        0.1450
     17  C9        14.3530   52.7280   27.4160 C.ar    1  61X1        0.0375
     18  C10       15.3100   53.6090   26.9150 C.ar    1  61X1        0.0028
     19  C11       16.4810   53.8430   27.6420 C.ar    1  61X1       -0.0034
     20  C12       16.6980   53.2030   28.8840 C.ar    1  61X1       -0.0112
     21  C13       15.7440   52.2990   29.3670 C.ar    1  61X1        0.0339
     22  C14       17.9350   53.4330   29.6480 C.3     1  61X1        0.0692
     23  C15       18.5710   52.2880   30.1570 C.2     1  61X1        0.0030
     24  C16       19.7350   52.4510   30.8710 C.2     1  61X1        0.0945
     25  C17       19.7150   54.7850   30.6210 C.2     1  61X1        0.0677
     26  C18       18.5130   54.7300   29.8660 C.2     1  61X1       -0.0002
     27  C19       17.9620   55.9540   29.4010 C.2     1  61X1       -0.0028
     28  C20       18.5610   57.1890   29.6540 C.2     1  61X1       -0.0042
     29  C21       19.7400   57.2370   30.3860 C.2     1  61X1       -0.0121
     30  C22       20.3060   56.0430   30.8720 C.3     1  61X1        0.1567
     31  C23       21.5920   56.0930   31.6390 C.3     1  61X1        0.4063
@<TRIPOS>BOND
     1     8     5    2
     2     1     5    1
     3    18    17   ar
     4    18    19   ar
     5     9    12   ar
     6     9     6   ar
     7     5     6    1
     8     5     4    2
     9    12    13   ar
    10     6    15   ar
    11    17    16   ar
    12    19    20   ar
    13    13    14   ar
    14    15    14   ar
    15    14    11    1
    16    16    11    1
    17    16    21   ar
    18    20    21   ar
    19    20    22    1
    20    27    28    1
    21    27    26    2
    22    22    26    1
    23    22    23    1
    24    28    29    2
    25    26    25    1
    26    23    24    2
    27    29    30    1
    28    25    30    1
    29    25     3    2
    30    24     3    1
    31    30    31    1
    32     7    31    1
    33    31    10    1
    34    31     2    1
