@<TRIPOS>MOLECULE
3kfe_ADP_A_1.pdb
 27 29 0 0 0
SMALL
GASTEIGER

@<TRIPOS>ATOM
      1  PB         6.0460   91.9710   79.1330 P.3   545  ADP545      0.5373
      2  O1B        7.5100   91.6380   78.9960 O.3   545  ADP545     -0.1143
      3  O2B        5.7110   93.2120   79.9180 O.3   545  ADP545     -0.1143
      4  O3B        5.3100   91.9880   77.8310 O.2   545  ADP545     -0.2221
      5  PA         6.4120   90.0000   81.1370 P.3   545  ADP545      0.2231
      6  O1A        5.8190   88.7510   81.7200 O.3   545  ADP545     -0.4370
      7  O2A        7.8190   89.9810   80.5710 O.2   545  ADP545     -0.5169
      8  O3A        5.4680   90.7510   80.0450 O.3   545  ADP545     -0.2261
      9  O5'        6.4840   91.0920   82.2980 O.3   545  ADP545     -0.3111
     10  C5'        7.7360   91.7830   82.3680 C.3   545  ADP545      0.1813
     11  C4'        7.7790   92.7980   83.4980 C.3   545  ADP545      0.1821
     12  O4'        8.4510   92.2360   84.6070 O.3   545  ADP545     -0.3135
     13  C3'        8.5490   94.0730   83.1570 C.3   545  ADP545      0.2184
     14  O3'        7.7920   95.1950   83.6310 O.3   545  ADP545     -0.2174
     15  C2'        9.7430   94.1340   84.0540 C.3   545  ADP545      0.2570
     16  O2'        9.6750   95.4820   84.5060 O.3   545  ADP545     -0.2130
     17  C1'        9.3470   93.1980   85.1760 C.3   545  ADP545      0.3186
     18  N9        10.4980   92.5210   85.8180 N.pl3 545  ADP545     -0.1439
     19  C8        11.4810   91.8430   85.1820 C.3   545  ADP545      0.3377
     20  N7        12.3670   91.3400   86.0800 N.2   545  ADP545     -0.2095
     21  C5        11.9400   91.7040   87.2870 C.2   545  ADP545      0.2526
     22  C6        12.4140   91.5060   88.6510 C.2   545  ADP545      0.4393
     23  N6        13.5440   90.7990   88.8510 N.pl3 545  ADP545      0.2180
     24  N1        11.6840   92.0490   89.6540 N.2   545  ADP545      0.0021
     25  C2        10.5610   92.7510   89.4270 C.3   545  ADP545      0.5254
     26  N3        10.0960   92.9680   88.1930 N.2   545  ADP545     -0.0055
     27  C4        10.7160   92.4800   87.1180 C.2   545  ADP545      0.3518
@<TRIPOS>BOND
     1     4     1    2
     2     2     1    1
     3     1     3    1
     4     1     8    1
     5     8     5    1
     6     7     5    2
     7     5     6    1
     8     5     9    1
     9     9    10    1
    10    10    11    1
    11    13    11    1
    12    13    14    1
    13    13    15    1
    14    11    12    1
    15    15    16    1
    16    15    17    1
    17    12    17    1
    18    17    18    1
    19    19    18    1
    20    19    20    1
    21    18    27    1
    22    20    21    2
    23    27    21    1
    24    27    26    2
    25    21    22    1
    26    26    25    1
    27    22    23    1
    28    22    24    2
    29    25    24    1
