@<TRIPOS>MOLECULE
3kfj_YEN_A_1.pdb
 38 38 0 0 0
SMALL
GASTEIGER

@<TRIPOS>ATOM
      1  C1         8.3790  -11.0000    2.5860 C.ar    1  YEN1       -0.0011
      2  C2         8.9550  -11.2940    3.8160 C.ar    1  YEN1        0.0371
      3  C3        10.2710  -10.9360    4.0870 C.ar    1  YEN1        0.1490
      4  C4        11.0150  -10.2880    3.1050 C.ar    1  YEN1        0.0371
      5  C5        10.4390   -9.9900    1.8730 C.ar    1  YEN1       -0.0011
      6  C6         9.1180  -10.3380    1.6120 C.ar    1  YEN1       -0.0215
      7  O1        10.7490  -11.1920    5.3360 O.3     1  YEN1       -0.3998
      8  P1        12.2560  -10.7040    5.6270 P.3     1  YEN1        0.5887
      9  O2        12.3490   -9.1370    5.2710 O.3     1  YEN1       -0.1039
     10  O3        12.4060  -10.7900    7.2280 O.3     1  YEN1       -0.1039
     11  O4        13.2890  -11.5130    4.9430 O.2     1  YEN1       -0.2114
     12  C7         8.4240   -9.9030    0.3180 C.3     1  YEN1        0.0360
     13  C8         8.1320   -8.4020    0.3740 C.3     1  YEN1        0.0917
     14  C9         7.2970   -7.9580   -0.8310 C.2     1  YEN1        0.2421
     15  O5         6.1160   -8.2830   -0.9410 O.2     1  YEN1       -0.2733
     16  C10        7.3650   -8.0810    1.6590 C.3     1  YEN1        0.0963
     17  C11        7.7030   -6.6700    2.1450 C.2     1  YEN1        0.2419
     18  N1         6.7060   -5.7900    2.0980 N.am    1  YEN1       -0.2035
     19  C12        6.9990   -4.4340    2.5850 C.3     1  YEN1        0.1385
     20  O7         8.8350   -6.4030    2.5440 O.2     1  YEN1       -0.2733
     21  N2         7.9410   -7.2070   -1.7200 N.am    1  YEN1       -0.1978
     22  C13        7.2910   -6.6670   -2.9230 C.3     1  YEN1        0.1733
     23  C14        6.7350   -7.7770   -3.8200 C.2     1  YEN1        0.2616
     24  O8         5.7480   -7.5750   -4.5250 O.2     1  YEN1       -0.2715
     25  C15        8.2920   -5.8260   -3.7180 C.3     1  YEN1        0.0429
     26  C16        8.8490   -4.6650   -2.8910 C.3     1  YEN1        0.1163
     27  C17        7.7660   -3.6410   -2.5440 C.2     1  YEN1        0.3649
     28  O9         6.9650   -3.3270   -3.4500 O.co2   1  YEN1       -0.2457
     29  O10        7.7710   -3.1860   -1.3790 O.co2   1  YEN1       -0.2457
     30  N3         7.3850   -8.9380   -3.7880 N.am    1  YEN1       -0.1958
     31  C18        6.9420  -10.0710   -4.6130 C.3     1  YEN1        0.1836
     32  C19        6.2220  -11.1090   -3.7500 C.2     1  YEN1        0.2811
     33  O12        6.1670  -12.2890   -4.0930 O.2     1  YEN1       -0.2698
     34  C20        8.1400  -10.7100   -5.3200 C.3     1  YEN1        0.1196
     35  C21        9.1660  -11.2480   -4.3210 C.2     1  YEN1        0.2630
     36  O13        9.2470  -10.7850   -3.1850 O.2     1  YEN1       -0.2716
     37  N4         9.9350  -12.2320   -4.7790 N.am    1  YEN1       -0.0877
     38  N5         5.6690  -10.6320   -2.6390 N.am    1  YEN1       -0.0863
@<TRIPOS>BOND
     1    34    31    1
     2    34    35    1
     3    37    35   am
     4    31    30    1
     5    31    32    1
     6    24    23    2
     7    35    36    2
     8    33    32    2
     9    23    30   am
    10    23    22    1
    11    32    38   am
    12    25    22    1
    13    25    26    1
    14    28    27   ar
    15    22    21    1
    16    26    27    1
    17    27    29   ar
    18    21    14   am
    19    15    14    2
    20    14    13    1
    21    12    13    1
    22    12     6    1
    23    13    16    1
    24     6     5   ar
    25     6     1   ar
    26    16    17    1
    27     5     4   ar
    28    18    17   am
    29    18    19    1
    30    17    20    2
    31     1     2   ar
    32     4     3   ar
    33     2     3   ar
    34     3     7    1
    35    11     8    2
    36     9     8    1
    37     7     8    1
    38     8    10    1
