@<TRIPOS>MOLECULE
3kfk_AGS_A_1.pdb
 31 33 0 0 0
SMALL
GASTEIGER

@<TRIPOS>ATOM
      1  PG       -27.7520  -57.6240  -25.9210 P.3   544  AGS544      0.4340
      2  S1G      -26.4530  -58.3170  -25.6820 S.3   544  AGS544      0.0416
      3  O2G      -28.5700  -58.0930  -27.0710 O.2   544  AGS544     -0.2423
      4  O3G      -27.5010  -56.1590  -26.0160 O.3   544  AGS544     -0.1305
      5  PB       -29.2930  -56.7960  -23.6000 P.3   544  AGS544      0.2262
      6  O1B      -29.6670  -55.5440  -24.2960 O.2   544  AGS544     -0.5168
      7  O2B      -30.2620  -57.4520  -22.7060 O.3   544  AGS544     -0.4369
      8  O3B      -28.8030  -57.8750  -24.7070 O.3   544  AGS544     -0.2405
      9  PA       -27.0320  -55.2620  -22.3830 P.3   544  AGS544      0.2189
     10  O1A      -25.8310  -55.7260  -21.6790 O.3   544  AGS544     -0.4371
     11  O2A      -26.8510  -54.4680  -23.6110 O.2   544  AGS544     -0.5170
     12  O3A      -27.9700  -56.5600  -22.6720 O.3   544  AGS544     -0.2701
     13  O5'      -27.8670  -54.4320  -21.3000 O.3   544  AGS544     -0.3112
     14  C5'      -29.1170  -53.8070  -21.5780 C.3   544  AGS544      0.1813
     15  C4'      -29.8530  -53.4830  -20.2910 C.3   544  AGS544      0.1821
     16  O4'      -29.1820  -52.3880  -19.6240 O.3   544  AGS544     -0.3135
     17  C3'      -31.2780  -53.0480  -20.5290 C.3   544  AGS544      0.2184
     18  O3'      -32.0920  -53.7090  -19.5430 O.3   544  AGS544     -0.2174
     19  C2'      -31.1780  -51.5180  -20.4300 C.3   544  AGS544      0.2570
     20  O2'      -32.4200  -50.8840  -20.0770 O.3   544  AGS544     -0.2130
     21  C1'      -30.0830  -51.2800  -19.4140 C.3   544  AGS544      0.3186
     22  N9       -29.3480  -49.9970  -19.6470 N.pl3 544  AGS544     -0.1439
     23  C8       -28.8090  -49.4580  -20.8090 C.3   544  AGS544      0.3377
     24  N7       -28.2230  -48.2990  -20.6490 N.2   544  AGS544     -0.2095
     25  C5       -28.3710  -48.0330  -19.2880 C.2   544  AGS544      0.2526
     26  C6       -27.9720  -46.9460  -18.4250 C.2   544  AGS544      0.4393
     27  N6       -27.3050  -45.8630  -18.8310 N.pl3 544  AGS544      0.2180
     28  N1       -28.2940  -47.0200  -17.0900 N.2   544  AGS544      0.0021
     29  C2       -28.9650  -48.0890  -16.6220 C.3   544  AGS544      0.5254
     30  N3       -29.3920  -49.1640  -17.3320 N.2   544  AGS544     -0.0055
     31  C4       -29.0580  -49.0670  -18.6690 C.2   544  AGS544      0.3518
@<TRIPOS>BOND
     1     3     1    2
     2     4     1    1
     3     1     2    1
     4     1     8    1
     5     8     5    1
     6     6     5    2
     7    11     9    2
     8     5     7    1
     9     5    12    1
    10    12     9    1
    11     9    10    1
    12     9    13    1
    13    14    13    1
    14    14    15    1
    15    23    24    1
    16    23    22    1
    17    24    25    2
    18    17    19    1
    19    17    15    1
    20    17    18    1
    21    19    20    1
    22    19    21    1
    23    15    16    1
    24    22    21    1
    25    22    31    1
    26    16    21    1
    27    25    31    1
    28    25    26    1
    29    27    26    1
    30    31    30    2
    31    26    28    2
    32    30    29    1
    33    28    29    1
