@<TRIPOS>MOLECULE
3kfl_ME8_A_1.pdb
 31 33 0 0 0
SMALL
GASTEIGER

@<TRIPOS>ATOM
      1  O         30.6040   45.6850   -7.9740 O.2   801  ME8801     -0.2482
      2  N1        38.7520   46.8300   -0.9330 N.2   801  ME8801      0.0021
      3  O1        31.3010   43.5580   -8.5520 O.3   801  ME8801     -0.4091
      4  P1        32.9160   43.8500   -8.4650 P.3   801  ME8801      0.2723
      5  C2        37.7020   46.2700   -0.3450 C.3   801  ME8801      0.5254
      6  N2        29.1580   42.8400   -9.5600 N.3   801  ME8801     -0.1209
      7  N3        36.7550   45.6390   -1.0360 N.2   801  ME8801     -0.0055
      8  C4        36.8200   45.5570   -2.3710 C.2   801  ME8801      0.3518
      9  C5        37.8890   46.1280   -3.0330 C.2   801  ME8801      0.2526
     10  C6        38.8720   46.7740   -2.2730 C.2   801  ME8801      0.4393
     11  N6        39.9180   47.3330   -2.8520 N.pl3 801  ME8801      0.2180
     12  N7        37.7070   45.9060   -4.3400 N.2   801  ME8801     -0.2095
     13  C8        36.5720   45.2150   -4.4870 C.3   801  ME8801      0.3377
     14  C9        30.3900   44.5600   -8.4120 C.2   801  ME8801      0.3386
     15  N9        36.0270   45.0060   -3.2860 N.pl3 801  ME8801     -0.1439
     16  CA        28.9950   44.0850   -8.7640 C.3   801  ME8801      0.1911
     17  CB        28.2760   43.7970   -7.4550 C.3   801  ME8801      0.0421
     18  SD        26.1120   42.9070   -6.0180 S.3   801  ME8801     -0.1393
     19  CE        24.4470   42.4670   -6.4620 C.3   801  ME8801      0.0692
     20  CG        26.8400   43.3420   -7.6360 C.3   801  ME8801      0.0597
     21  C1'       34.7700   44.2650   -2.9960 C.3   801  ME8801      0.3186
     22  O1S       33.4890   42.6630   -9.1090 O.2   801  ME8801     -0.5082
     23  C2'       33.7090   45.1650   -2.3890 C.3   801  ME8801      0.2570
     24  O2'       32.7280   44.3130   -1.8020 O.3   801  ME8801     -0.2130
     25  O2S       33.3090   45.2030   -8.9450 O.3   801  ME8801     -0.4273
     26  C3'       33.1730   45.8100   -3.6590 C.3   801  ME8801      0.2184
     27  O3'       31.8920   46.3390   -3.4410 O.3   801  ME8801     -0.2174
     28  C4'       33.0360   44.5720   -4.5620 C.3   801  ME8801      0.1822
     29  O4'       34.1870   43.7580   -4.2300 O.3   801  ME8801     -0.3135
     30  C5'       33.0640   44.9360   -6.0650 C.3   801  ME8801      0.1823
     31  O5'       33.2010   43.7530   -6.8640 O.3   801  ME8801     -0.3024
@<TRIPOS>BOND
     1     6    16    1
     2    22     4    2
     3    25     4    1
     4    16    14    1
     5    16    17    1
     6     3     4    1
     7     3    14    1
     8     4    31    1
     9    14     1    2
    10    20    17    1
    11    20    18    1
    12    31    30    1
    13    19    18    1
    14    30    28    1
    15    28    29    1
    16    28    26    1
    17    13    12    1
    18    13    15    1
    19    12     9    2
    20    29    21    1
    21    26    27    1
    22    26    23    1
    23    15    21    1
    24    15     8    1
    25     9     8    1
    26     9    10    1
    27    21    23    1
    28    11    10    1
    29    23    24    1
    30     8     7    2
    31    10     2    2
    32     7     5    1
    33     2     5    1
