@<TRIPOS>MOLECULE
3kfm_KAI_A_1.pdb
 15 15 0 0 0
SMALL
GASTEIGER

@<TRIPOS>ATOM
      1  N        -35.2530   48.7340  -44.5330 N.3   258  KAI258     -0.2084
      2  CD       -35.9270   48.5610  -45.8210 C.3   258  KAI258      0.0893
      3  CD1      -36.3250   47.0580  -48.3340 C.3   258  KAI258      0.0000
      4  CD2      -34.2300   47.9740  -49.2810 C.3   258  KAI258      0.0000
      5  CA       -33.8430   48.8840  -44.7180 C.3   258  KAI258      0.1762
      6  CB       -33.6110   48.1870  -46.0420 C.3   258  KAI258      0.0397
      7  CB1      -33.4350   46.6840  -45.8570 C.3   258  KAI258      0.1160
      8  CG       -34.8690   48.5650  -46.8440 C.3   258  KAI258      0.0199
      9  CG1      -32.0060   46.2770  -45.8900 C.2   258  KAI258      0.3649
     10  CG2      -35.1660   47.7920  -48.1340 C.3   258  KAI258      0.0015
     11  C        -33.3900   50.3620  -44.7110 C.2   258  KAI258      0.3803
     12  O        -32.3370   50.6090  -45.1970 O.co2 258  KAI258     -0.2441
     13  OD1      -31.7960   45.1670  -45.7320 O.co2 258  KAI258     -0.2457
     14  OD2      -31.1550   47.0560  -46.0940 O.co2 258  KAI258     -0.2457
     15  OXT      -34.0940   51.1660  -44.2970 O.co2 258  KAI258     -0.2441
@<TRIPOS>BOND
     1     4    10    1
     2     3    10    1
     3    10     8    1
     4     8     6    1
     5     8     2    1
     6    14     9   ar
     7     6     7    1
     8     6     5    1
     9     9     7    1
    10     9    13   ar
    11     2     1    1
    12    12    11   ar
    13     5    11    1
    14     5     1    1
    15    11    15   ar
