@<TRIPOS>MOLECULE
3kfp_3TL_A_1.pdb
 33 34 0 0 0
SMALL
GASTEIGER

@<TRIPOS>ATOM
      1  C31      -11.6190  -11.5260    5.6800 C.2   200  3TL200      0.4218
      2  O8       -10.6240  -10.6570    5.9070 O.2   200  3TL200     -0.2245
      3  O9       -11.9610  -11.4310    4.3910 O.3   200  3TL200     -0.4285
      4  CA       -11.6090  -10.2870    3.5630 C.3   200  3TL200      0.2368
      5  C        -12.2120   -8.9360    3.7950 C.ar  200  3TL200      0.0213
      6  C13      -11.5560   -7.8910    3.1580 C.ar  200  3TL200     -0.0007
      7  C14      -12.0950   -6.6270    3.3560 C.ar  200  3TL200     -0.0002
      8  C15      -13.2330   -6.5710    4.1230 C.ar  200  3TL200     -0.0000
      9  C16      -13.8260   -7.6200    4.7910 C.ar  200  3TL200     -0.0002
     10  C17      -13.3320   -8.8990    4.5980 C.ar  200  3TL200     -0.0007
     11  N4       -12.3450  -12.3610    6.4130 N.am  200  3TL200     -0.1611
     12  C18      -12.0760  -12.3830    7.8340 C.3   200  3TL200      0.1762
     13  C19      -11.4260  -13.6590    8.2340 C.2   200  3TL200      0.2617
     14  O4       -11.9710  -14.7310    7.8400 O.2   200  3TL200     -0.2715
     15  C20      -13.4570  -12.1140    8.4110 C.3   200  3TL200      0.0335
     16  N2       -10.3990  -13.5770    8.9560 N.am  200  3TL200     -0.1963
     17  C10       -9.6190  -14.6680    9.5320 C.3   200  3TL200      0.1727
     18  C11       -9.6160  -14.5360   10.9790 C.2   200  3TL200      0.2612
     19  O2        -8.7190  -13.7310   11.4310 O.2   200  3TL200     -0.2715
     20  C12       -8.3330  -15.0450    8.7950 C.3   200  3TL200      0.0290
     21  CG2       -8.4120  -15.2930    7.2860 C.3   200  3TL200      0.0023
     22  CG1       -7.8330  -16.3400    9.4020 C.3   200  3TL200      0.0023
     23  C2       -10.5290  -16.0340   14.1620 C.3   200  3TL200      0.2039
     24  O1       -11.2860  -17.1010   13.5650 O.3   200  3TL200     -0.2185
     25  C1       -10.7270  -14.8870   13.2010 C.3   200  3TL200      0.1325
     26  N1       -10.4450  -15.1970   11.7810 N.am  200  3TL200     -0.2027
     27  C3       -12.0610  -14.2690   13.6350 C.3   200  3TL200      0.0507
     28  C4       -12.2100  -12.8240   13.2660 C.ar  200  3TL200     -0.0204
     29  C5       -12.9760  -12.2820   12.2440 C.ar  200  3TL200     -0.0042
     30  C9       -11.4980  -12.0660   14.1810 C.ar  200  3TL200     -0.0042
     31  C6       -13.0080  -10.9100   12.0600 C.ar  200  3TL200     -0.0003
     32  C8       -11.5180  -10.6930   14.0220 C.ar  200  3TL200     -0.0003
     33  C7       -12.2420  -10.1780   12.9620 C.ar  200  3TL200     -0.0000
@<TRIPOS>BOND
     1     6     7   ar
     2     6     5   ar
     3     7     8   ar
     4     4     5    1
     5     4     3    1
     6     5    10   ar
     7     8     9   ar
     8     3     1    1
     9    10     9   ar
    10     1     2    2
    11     1    11   am
    12    11    12    1
    13    21    20    1
    14    12    13    1
    15    12    15    1
    16    14    13    2
    17    13    16   am
    18    20    22    1
    19    20    17    1
    20    16    17    1
    21    17    18    1
    22    18    19    2
    23    18    26   am
    24    26    25    1
    25    31    29   ar
    26    31    33   ar
    27    29    28   ar
    28    33    32   ar
    29    25    27    1
    30    25    23    1
    31    28    27    1
    32    28    30   ar
    33    24    23    1
    34    32    30   ar
