@<TRIPOS>MOLECULE
3kfr_1F1_B_1.pdb
 12 13 0 0 0
SMALL
GASTEIGER

@<TRIPOS>ATOM
      1  O1        -9.2180   22.6070  -25.5900 O.co2 201  1F1201     -0.2406
      2  C2        -9.6880   21.5670  -24.9140 C.2   201  1F1201      0.3878
      3  O3        -9.0620   20.5090  -24.9140 O.co2 201  1F1201     -0.2406
      4  C4       -10.9800   21.6870  -24.1810 C.2   201  1F1201      0.0807
      5  C5       -11.4990   22.9530  -23.9010 C.2   201  1F1201      0.0027
      6  C6       -12.7040   23.1100  -23.2350 C.2   201  1F1201     -0.0159
      7  C7       -13.3690   21.9540  -22.8480 C.3   201  1F1201      0.0856
      8  C8       -14.5660   21.7600  -22.1760 C.2   201  1F1201      0.0045
      9  C9       -14.7420   20.3890  -22.0440 C.2   201  1F1201      0.0946
     10  N10      -13.6930   19.7660  -22.6240 N.2   201  1F1201     -0.2478
     11  C11      -12.8450   20.6890  -23.1150 C.2   201  1F1201      0.0670
     12  C12      -11.6410   20.5280  -23.7900 C.2   201  1F1201      0.0219
@<TRIPOS>BOND
     1     1     2   ar
     2     2     3   ar
     3     2     4    1
     4     4     5    1
     5     4    12    2
     6     5     6    2
     7    12    11    1
     8     6     7    1
     9    11     7    1
    10    11    10    2
    11     7     8    1
    12    10     9    1
    13     8     9    2
