@<TRIPOS>MOLECULE
3kfs_2FX_B_1.pdb
 13 14 0 0 0
SMALL
GASTEIGER

@<TRIPOS>ATOM
      1  O1        -7.8760  -22.5550   26.1830 O.co2 201  2FX201     -0.2453
      2  C2        -9.0260  -22.7170   25.5340 C.2   201  2FX201      0.3697
      3  O3        -9.4700  -23.8440   25.4640 O.co2 201  2FX201     -0.2453
      4  C4       -11.0920  -21.8100   24.2840 C.ar  201  2FX201      0.0186
      5  C5       -12.0070  -22.8540   23.9980 C.ar  201  2FX201      0.0032
      6  C6       -13.1840  -22.5080   23.3190 C.ar  201  2FX201      0.0062
      7  C7       -14.2370  -23.3450   22.9220 C.ar  201  2FX201      0.0005
      8  C8       -15.3630  -22.8000   22.2830 C.ar  201  2FX201      0.0000
      9  C9       -15.4910  -21.4560   21.9620 C.ar  201  2FX201      0.0005
     10  C10      -14.4490  -20.5860   22.3220 C.ar  201  2FX201      0.0065
     11  C11      -13.3500  -21.1450   22.9960 C.ar  201  2FX201      0.0292
     12  S12      -11.9010  -20.4400   23.6130 S.2   201  2FX201     -0.0907
     13  C13       -9.7260  -21.5370   24.9190 C.3   201  2FX201      0.1468
@<TRIPOS>BOND
     1     9     8   ar
     2     9    10   ar
     3     8     7   ar
     4    10    11   ar
     5     7     6   ar
     6    11     6   ar
     7    11    12   ar
     8     6     5   ar
     9    12     4   ar
    10     5     4   ar
    11     4    13    1
    12    13     2    1
    13     3     2   ar
    14     2     1   ar
