@<TRIPOS>MOLECULE
3kft_FMN_A_1.pdb
 31 33 0 0 0
SMALL
GASTEIGER

@<TRIPOS>ATOM
      1  N1       -14.1650   15.9710  -37.3510 N.2   365  FMN365     -0.2887
      2  C2       -14.9620   15.2790  -36.4540 C.1   365  FMN365      0.3669
      3  O2       -16.0190   15.7870  -36.0810 O.2   365  FMN365     -0.1744
      4  N3       -14.5700   14.0400  -35.9570 N.2   365  FMN365     -0.2300
      5  C4       -13.3870   13.4400  -36.3800 C.1   365  FMN365      0.2513
      6  O4       -13.0400   12.3270  -35.9280 O.2   365  FMN365     -0.2057
      7  C4A      -12.5890   14.1230  -37.3210 C.2   365  FMN365      0.2703
      8  N5       -11.3960   13.5680  -37.7650 N.2   365  FMN365     -0.3882
      9  C5A      -10.6120   14.2770  -38.6660 C.2   365  FMN365      0.1277
     10  C6        -9.3890   13.7570  -39.1180 C.3   365  FMN365      0.0820
     11  C7        -8.5650   14.4760  -40.0010 C.2   365  FMN365     -0.0408
     12  C7M       -7.2500   13.9080  -40.5090 C.3   365  FMN365      0.0265
     13  C8        -8.9800   15.7230  -40.4060 C.2   365  FMN365     -0.0280
     14  C8M       -8.1580   16.5210  -41.3690 C.3   365  FMN365      0.0304
     15  C9       -10.1880   16.2390  -39.9630 C.2   365  FMN365      0.0123
     16  C9A      -11.0040   15.5340  -39.0920 C.2   365  FMN365      0.0793
     17  N10      -12.1930   16.0900  -38.6560 N.pl3 365  FMN365     -0.2545
     18  C10      -12.9840   15.3920  -37.7720 C.2   365  FMN365      0.2449
     19  C1'      -12.5960   17.4690  -39.0390 C.3   365  FMN365      0.1336
     20  C2'      -11.8270   18.2750  -37.9240 C.3   365  FMN365      0.2048
     21  O2'      -12.3500   18.1330  -36.5980 O.3   365  FMN365     -0.2185
     22  C3'      -11.7720   19.7930  -38.0710 C.3   365  FMN365      0.2165
     23  O3'      -13.0660   20.3200  -38.0850 O.3   365  FMN365     -0.2175
     24  C4'      -11.1330   20.2910  -39.3650 C.3   365  FMN365      0.2147
     25  O4'       -9.8950   19.6520  -39.5060 O.3   365  FMN365     -0.2176
     26  C5'      -10.9760   21.7990  -39.1930 C.3   365  FMN365      0.1892
     27  O5'      -10.3200   22.3580  -40.2700 O.3   365  FMN365     -0.2674
     28  P         -8.7700   22.7710  -40.0510 P.3   365  FMN365      0.5327
     29  O1P       -8.6500   23.4510  -38.7300 O.3   365  FMN365     -0.1145
     30  O2P       -8.3670   23.7750  -41.1250 O.2   365  FMN365     -0.2224
     31  O3P       -8.0250   21.4890  -40.1610 O.3   365  FMN365     -0.1145
@<TRIPOS>BOND
     1    14    13    1
     2    30    28    2
     3    12    11    1
     4    13    11    2
     5    13    15    1
     6    27    28    1
     7    27    26    1
     8    31    28    1
     9    28    29    1
    10    11    10    1
    11    15    16    2
    12    25    24    1
    13    24    26    1
    14    24    22    1
    15    10     9    1
    16    16     9    1
    17    16    17    1
    18    19    17    1
    19    19    20    1
    20     9     8    2
    21    17    18    1
    22    23    22    1
    23    22    20    1
    24    20    21    1
    25    18     1    2
    26    18     7    1
    27     8     7    2
    28     1     2    2
    29     7     5    1
    30     2     3    2
    31     2     4    2
    32     5     4    2
    33     5     6    2
