@<TRIPOS>MOLECULE
3kft_NAD_A_1.pdb
 44 48 0 0 0
SMALL
GASTEIGER

@<TRIPOS>ATOM
      1  PA       -11.7230   13.4370  -49.8130 P.3   366  NAD366      0.2189
      2  O1A      -10.8110   12.2650  -49.8270 O.3   366  NAD366     -0.4371
      3  O2A      -12.7690   13.4110  -50.8600 O.2   366  NAD366     -0.5170
      4  O5B      -10.8320   14.7610  -50.0630 O.3   366  NAD366     -0.3112
      5  C5B       -9.4300   14.7070  -50.0390 C.3   366  NAD366      0.1813
      6  C4B       -8.8000   15.7470  -50.9530 C.3   366  NAD366      0.1821
      7  O4B       -7.5090   15.9160  -50.4160 O.3   366  NAD366     -0.3135
      8  C3B       -8.6200   15.2400  -52.3900 C.3   366  NAD366      0.2184
      9  O3B       -9.4300   15.9550  -53.2860 O.3   366  NAD366     -0.2174
     10  C2B       -7.1390   15.3940  -52.7000 C.3   366  NAD366      0.2570
     11  O2B       -6.8680   16.5640  -53.4530 O.3   366  NAD366     -0.2130
     12  C1B       -6.4990   15.5270  -51.3090 C.3   366  NAD366      0.3186
     13  N9A       -6.0510   14.1740  -50.9450 N.pl3 366  NAD366     -0.1439
     14  C8A       -6.7370   13.2610  -50.1860 C.3   366  NAD366      0.3377
     15  N7A       -5.9930   12.1240  -50.1460 N.2   366  NAD366     -0.2095
     16  C5A       -4.8730   12.2980  -50.8900 C.2   366  NAD366      0.2526
     17  C6A       -3.7910   11.4810  -51.1740 C.2   366  NAD366      0.4393
     18  N6A       -3.7610   10.2200  -50.7370 N.pl3 366  NAD366      0.2180
     19  N1A       -2.7630   11.9690  -51.9530 N.2   366  NAD366      0.0021
     20  C2A       -2.8060   13.2470  -52.4620 C.3   366  NAD366      0.5254
     21  N3A       -3.8910   14.0510  -52.1630 N.2   366  NAD366     -0.0055
     22  C4A       -4.8970   13.5880  -51.3880 C.2   366  NAD366      0.3518
     23  O3       -12.4020   13.4600  -48.3450 O.3   366  NAD366     -0.2703
     24  PN       -11.4900   13.1450  -47.0380 P.3   366  NAD366      0.2189
     25  O1N      -10.0620   13.4550  -47.3720 O.2   366  NAD366     -0.5170
     26  O2N      -11.8270   11.8160  -46.4570 O.3   366  NAD366     -0.4371
     27  O5D      -12.0440   14.2700  -46.0210 O.3   366  NAD366     -0.3112
     28  C5D      -13.3540   14.7700  -46.1090 C.3   366  NAD366      0.1813
     29  C4D      -13.4970   15.6370  -44.8730 C.3   366  NAD366      0.1799
     30  O4D      -14.1150   14.8600  -43.8740 O.3   366  NAD366     -0.3327
     31  C3D      -12.1320   15.9910  -44.2860 C.3   366  NAD366      0.2158
     32  O3D      -11.6280   17.1820  -44.8430 O.3   366  NAD366     -0.2175
     33  C2D      -12.3890   16.1200  -42.7890 C.3   366  NAD366      0.2309
     34  O2D      -12.6710   17.4630  -42.4370 O.3   366  NAD366     -0.2158
     35  C1D      -13.6280   15.2570  -42.5980 C.3   366  NAD366      0.2263
     36  N1N      -13.3640   13.9840  -41.9100 N.pl3 366  NAD366     -0.2787
     37  C2N      -14.1610   13.6820  -40.8460 C.3   366  NAD366      0.1244
     38  C3N      -14.0280   12.4800  -40.1380 C.2   366  NAD366      0.0544
     39  C7N      -14.7770   12.3210  -38.8230 C.2   366  NAD366      0.2818
     40  O7N      -15.8510   13.1960  -38.5870 O.2   366  NAD366     -0.2670
     41  N7N      -14.4410   11.3930  -37.9140 N.am  366  NAD366     -0.0839
     42  C4N      -13.0330   11.5940  -40.5600 C.2   366  NAD366      0.0033
     43  C5N      -12.2430   11.9030  -41.6870 C.2   366  NAD366      0.0157
     44  C6N      -12.4050   13.1110  -42.3570 C.2   366  NAD366      0.0633
@<TRIPOS>BOND
     1    11    10    1
     2     9     8    1
     3    10     8    1
     4    10    12    1
     5    20    21    1
     6    20    19    1
     7     8     6    1
     8    21    22    2
     9    19    17    2
    10    22    13    1
    11    22    16    1
    12    12    13    1
    13    12     7    1
    14    17    16    1
    15    17    18    1
    16     6     7    1
    17     6     5    1
    18    13    14    1
    19    16    15    2
    20     3     1    2
    21    14    15    1
    22     4     5    1
    23     4     1    1
    24     2     1    1
    25     1    23    1
    26    23    24    1
    27    25    24    2
    28    24    26    1
    29    24    27    1
    30    28    27    1
    31    28    29    1
    32    29    31    1
    33    29    30    1
    34    32    31    1
    35    31    33    1
    36    30    35    1
    37    33    35    1
    38    33    34    1
    39    35    36    1
    40    44    36    1
    41    44    43    2
    42    36    37    1
    43    43    42    1
    44    37    38    1
    45    42    38    2
    46    38    39    1
    47    39    40    2
    48    39    41   am
