@<TRIPOS>MOLECULE
3kfx_MCY_A_1.pdb
 17 18 0 0 0
SMALL
GASTEIGER

@<TRIPOS>ATOM
      1  N1       -10.6330   26.9320  -15.6960 N.am  402  MCY402     -0.1806
      2  C2       -11.5370   26.1310  -15.1340 C.1   402  MCY402      0.2755
      3  N3       -11.1750   24.9310  -14.6290 N.2   402  MCY402     -0.3027
      4  C4        -9.8720   24.5210  -14.6540 C.2   402  MCY402      0.2305
      5  C5        -8.9260   25.3400  -15.2300 C.2   402  MCY402      0.0417
      6  C6        -9.3330   26.5650  -15.7610 C.2   402  MCY402      0.0791
      7  O2       -12.8310   26.5520  -15.0630 O.2   402  MCY402     -0.1925
      8  N4        -9.5140   23.3120  -14.1580 N.pl3 402  MCY402     -0.0924
      9  C1'      -11.0530   28.1950  -16.3160 C.3   402  MCY402      0.2089
     10  C2'      -10.5530   29.4850  -15.7160 C.3   402  MCY402      0.0874
     11  C3'      -10.3430   30.3840  -16.9450 C.3   402  MCY402      0.1858
     12  C4'      -10.0060   29.4470  -18.0900 C.3   402  MCY402      0.1802
     13  O4'      -10.5010   28.1670  -17.6680 O.3   402  MCY402     -0.3338
     14  O3'      -11.5700   30.9890  -17.3310 O.3   402  MCY402     -0.2203
     15  C5'       -8.5110   29.4820  -18.4410 C.3   402  MCY402      0.2141
     16  O5'       -7.7850   29.0840  -17.2800 O.3   402  MCY402     -0.2176
     17  C5A       -7.4790   24.9600  -15.3080 C.3   402  MCY402      0.0366
@<TRIPOS>BOND
     1    15    12    1
     2    15    16    1
     3    12    13    1
     4    12    11    1
     5    13     9    1
     6    14    11    1
     7    11    10    1
     8     9    10    1
     9     9     1    1
    10     6     1    1
    11     6     5    2
    12     1     2   am
    13    17     5    1
    14     5     4    1
    15     2     7    2
    16     2     3    2
    17     4     3    2
    18     4     8    1
