@<TRIPOS>MOLECULE
3kfx_ADP_A_1.pdb
 27 29 0 0 0
SMALL
GASTEIGER

@<TRIPOS>ATOM
      1  PB        -3.7960   34.7050  -16.2910 P.3   401  ADP401      0.5373
      2  O1B       -5.2520   34.3710  -16.5110 O.3   401  ADP401     -0.1143
      3  O2B       -2.8380   33.9930  -17.1830 O.2   401  ADP401     -0.2221
      4  O3B       -3.4790   34.7630  -14.8160 O.3   401  ADP401     -0.1143
      5  PA        -3.0360   37.0800  -17.9080 P.3   401  ADP401      0.2231
      6  O1A       -1.5060   37.0020  -17.7640 O.3   401  ADP401     -0.4370
      7  O2A       -3.6190   36.6850  -19.2300 O.2   401  ADP401     -0.5169
      8  O3A       -3.7550   36.2970  -16.6930 O.3   401  ADP401     -0.2261
      9  O5'       -3.4510   38.5780  -17.5590 O.3   401  ADP401     -0.3111
     10  C5'       -4.8090   39.0280  -17.6100 C.3   401  ADP401      0.1813
     11  C4'       -4.8830   40.4430  -18.2030 C.3   401  ADP401      0.1821
     12  O4'       -4.3380   41.3980  -17.2880 O.3   401  ADP401     -0.3135
     13  C3'       -4.1220   40.6010  -19.5080 C.3   401  ADP401      0.2184
     14  O3'       -4.8700   41.5080  -20.3350 O.3   401  ADP401     -0.2174
     15  C2'       -2.8010   41.2500  -19.0780 C.3   401  ADP401      0.2570
     16  O2'       -2.1840   42.0530  -20.1060 O.3   401  ADP401     -0.2130
     17  C1'       -3.1910   42.0610  -17.8510 C.3   401  ADP401      0.3186
     18  N9        -2.2110   42.0630  -16.7300 N.pl3 401  ADP401     -0.1439
     19  C8        -1.6610   40.9860  -16.1470 C.3   401  ADP401      0.3377
     20  N7        -0.8290   41.3400  -15.1350 N.2   401  ADP401     -0.2095
     21  C5        -0.9150   42.6710  -15.0350 C.2   401  ADP401      0.2526
     22  C6        -0.3060   43.7030  -14.1630 C.2   401  ADP401      0.4393
     23  N6         0.5370   43.3300  -13.1760 N.pl3 401  ADP401      0.2180
     24  N1        -0.6570   44.9940  -14.4020 N.2   401  ADP401      0.0021
     25  C2        -1.4870   45.3580  -15.3960 C.3   401  ADP401      0.5254
     26  N3        -2.0800   44.4860  -16.2280 N.2   401  ADP401     -0.0055
     27  C4        -1.8220   43.1450  -16.0910 C.2   401  ADP401      0.3518
@<TRIPOS>BOND
     1    14    13    1
     2    16    15    1
     3    13    15    1
     4    13    11    1
     5     7     5    2
     6    15    17    1
     7    11    10    1
     8    11    12    1
     9     5     6    1
    10     5     9    1
    11     5     8    1
    12    17    12    1
    13    17    18    1
    14    10     9    1
    15     3     1    2
    16    18    19    1
    17    18    27    1
    18     8     1    1
    19     2     1    1
    20     1     4    1
    21    26    27    2
    22    26    25    1
    23    19    20    1
    24    27    21    1
    25    25    24    1
    26    20    21    2
    27    21    22    1
    28    24    22    2
    29    22    23    1
