@<TRIPOS>MOLECULE
3kfy_JZM_A_1.pdb
 20 22 0 0 0
SMALL
GASTEIGER

@<TRIPOS>ATOM
      1  C1         1.4310   -4.4430  -10.2400 C.2   1162  JZM1162     0.1350
      2  C2         2.2440   -3.2590  -10.4660 C.3   1162  JZM1162     0.1523
      3  C3         3.3770   -3.4810  -11.3700 C.2   1162  JZM1162     0.2210
      4  N4         3.5620   -4.7130  -11.8630 N.2   1162  JZM1162    -0.3111
      5  C5         2.7440   -5.7730  -11.5810 C.1   1162  JZM1162     0.2422
      6  N6         1.6860   -5.6040  -10.7880 N.2   1162  JZM1162    -0.3294
      7  N7         4.3270   -2.5770  -11.7570 N.pl3 1162  JZM1162    -0.0962
      8  C8         0.3460   -4.4320   -9.4340 C.2   1162  JZM1162     0.0294
      9  C9        -0.0200   -3.2640   -8.7620 C.2   1162  JZM1162     0.0025
     10  C12        0.6940   -2.1070   -8.9320 C.2   1162  JZM1162     0.0031
     11  C13        1.8240   -2.0360   -9.7520 C.2   1162  JZM1162     0.0218
     12  N14        2.9490   -6.9770  -12.0620 N.pl3 1162  JZM1162    -0.0232
     13  S20        2.4320   -0.4590   -9.6580 S.3   1162  JZM1162    -0.0904
     14  C22        2.6340    0.0180  -11.3360 C.ar  1162  JZM1162     0.0292
     15  C23        1.6290   -0.0410  -12.3450 C.ar  1162  JZM1162     0.0073
     16  C24        1.8510    0.3370  -13.6950 C.ar  1162  JZM1162     0.0119
     17  C25        3.1490    0.7860  -14.0660 C.ar  1162  JZM1162     0.0577
     18 CL25        3.6900    1.3230  -15.6290 Cl    1162  JZM1162    -0.0822
     19  C26        4.1190    0.8200  -13.1230 C.ar  1162  JZM1162     0.0119
     20  C27        3.8980    0.4810  -11.7990 C.ar  1162  JZM1162     0.0073
@<TRIPOS>BOND
     1    18    17    1
     2    17    16   ar
     3    17    19   ar
     4    16    15   ar
     5    19    20   ar
     6    15    14   ar
     7    12     5    1
     8     4     5    2
     9     4     3    2
    10    20    14   ar
    11     7     3    1
    12     5     6    2
    13     3     2    1
    14    14    13    1
    15     6     1    2
    16     2     1    1
    17     2    11    1
    18     1     8    1
    19    11    13    1
    20    11    10    2
    21     8     9    2
    22    10     9    1
