@<TRIPOS>MOLECULE
3kfy_NDP_A_1.pdb
 31 33 0 0 0
SMALL
GASTEIGER

@<TRIPOS>ATOM
      1  PA         4.6360    8.4010  -15.0140 P.3   1160  NDP1160     0.2231
      2  O1A        4.1370    7.6910  -13.7750 O.3   1160  NDP1160    -0.4370
      3  O2A        5.7190    7.7880  -15.8820 O.2   1160  NDP1160    -0.5169
      4  O5B        5.1240    9.8640  -14.5210 O.3   1160  NDP1160    -0.3111
      5  C5B        5.8820   10.7300  -15.3660 C.3   1160  NDP1160     0.1813
      6  C4B        6.1840   11.9920  -14.5740 C.3   1160  NDP1160     0.1820
      7  O4B        7.2910   11.7720  -13.6990 O.3   1160  NDP1160    -0.3136
      8  C3B        6.5460   13.2090  -15.4140 C.3   1160  NDP1160     0.2157
      9  O3B        5.3820   13.9600  -15.7950 O.3   1160  NDP1160    -0.2175
     10  C2B        7.4870   13.9780  -14.4870 C.3   1160  NDP1160     0.2314
     11  O2B        6.7580   14.6850  -13.4660 O.3   1160  NDP1160    -0.2630
     12  C1B        8.2250   12.8470  -13.7930 C.3   1160  NDP1160     0.3158
     13  N9A        9.4270   12.4210  -14.5560 N.pl3 1160  NDP1160    -0.1439
     14  C8A        9.5320   11.3620  -15.3720 C.3   1160  NDP1160     0.3377
     15  N7A       10.7980   11.3070  -15.8380 N.2   1160  NDP1160    -0.2095
     16  C5A       11.4960   12.3270  -15.2820 C.2   1160  NDP1160     0.2526
     17  C6A       12.8210   12.7730  -15.3480 C.2   1160  NDP1160     0.4393
     18  N6A       13.7460   12.1420  -16.1080 N.pl3 1160  NDP1160     0.2180
     19  N1A       13.1890   13.8800  -14.6540 N.2   1160  NDP1160     0.0021
     20  C2A       12.3070   14.5510  -13.9030 C.3   1160  NDP1160     0.5254
     21  N3A       11.0450   14.1240  -13.7920 N.2   1160  NDP1160    -0.0055
     22  C4A       10.6060   13.0440  -14.5040 C.2   1160  NDP1160     0.3518
     23  O3         3.3940    8.8220  -15.9780 O.3   1160  NDP1160    -0.2261
     24  PN         2.8120    8.0100  -17.2560 P.3   1160  NDP1160     0.5373
     25  O1N        3.9010    7.7440  -18.2700 O.2   1160  NDP1160    -0.2221
     26  O2N        1.5730    8.7540  -17.6960 O.3   1160  NDP1160    -0.1143
     27  O5D        2.3510    6.6050  -16.6180 O.3   1160  NDP1160    -0.1143
     28  P2B        6.6170   16.2830  -13.6110 P.3   1160  NDP1160     0.5328
     29  O1X        7.9410   16.6930  -14.1950 O.3   1160  NDP1160    -0.1145
     30  O2X        6.3940   16.7460  -12.1950 O.3   1160  NDP1160    -0.1145
     31  O3X        5.4380   16.4420  -14.5510 O.2   1160  NDP1160    -0.2224
@<TRIPOS>BOND
     1    25    24    2
     2    26    24    1
     3    24    27    1
     4    24    23    1
     5    18    17    1
     6    23     1    1
     7     3     1    2
     8    15    14    1
     9    15    16    2
    10     9     8    1
    11     8     6    1
    12     8    10    1
    13    14    13    1
    14     5     6    1
    15     5     4    1
    16    17    16    1
    17    17    19    2
    18    16    22    1
    19     1     4    1
    20     1     2    1
    21    19    20    1
    22     6     7    1
    23    13    22    1
    24    13    12    1
    25    31    28    2
    26    22    21    2
    27    10    12    1
    28    10    11    1
    29    29    28    1
    30    20    21    1
    31    12     7    1
    32    28    11    1
    33    28    30    1
