@<TRIPOS>MOLECULE
3kg2_ZK1_A_1.pdb
 27 29 0 0 0
SMALL
GASTEIGER

@<TRIPOS>ATOM
      1  OAA      -21.6640   10.1350  -59.8980 O.2   833  ZK1833     -0.2046
      2  OAB      -22.7270   12.7790  -59.8020 O.2   833  ZK1833     -0.2557
      3  OAC      -20.3190   15.1510  -60.9310 O.3   833  ZK1833     -0.3560
      4  OAD      -21.4630   17.0240  -62.2050 O.2   833  ZK1833     -0.4584
      5  OAE      -22.3550   16.1840  -59.8010 O.3   833  ZK1833     -0.3560
      6  FAF      -18.5750   11.4940  -67.1980 F     833  ZK1833     -0.1658
      7  FAG      -19.8810    9.6990  -67.0470 F     833  ZK1833     -0.1658
      8  FAH      -20.6030   11.4890  -68.1390 F     833  ZK1833     -0.1658
      9  CAI      -21.5530   13.3900  -64.5080 C.2   833  ZK1833      0.0150
     10  CAJ      -20.4900   10.7640  -64.6040 C.2   833  ZK1833      0.0356
     11  CAK      -19.8730   15.3450  -68.4790 C.3   833  ZK1833      0.1636
     12  CAL      -22.1540   15.1370  -68.6860 C.3   833  ZK1833      0.1636
     13  CAM      -19.7120   14.4330  -67.3010 C.3   833  ZK1833      0.1231
     14  CAN      -22.2730   14.0390  -67.6030 C.3   833  ZK1833      0.1231
     15  CAO      -22.6860   14.4320  -62.0570 C.3   833  ZK1833      0.1538
     16  NAP      -21.0660   10.4460  -62.2720 N.2   833  ZK1833     -0.3318
     17  OAQ      -21.0860   16.0070  -68.4150 O.3   833  ZK1833     -0.3501
     18  CAR      -20.9980   12.9030  -65.7200 C.2   833  ZK1833      0.0496
     19  CAS      -20.4660   11.5980  -65.7790 C.2   833  ZK1833      0.0867
     20  CAT      -21.6310   10.9470  -61.0490 C.1   833  ZK1833      0.2599
     21  CAU      -22.1750   12.2920  -60.9970 C.2   833  ZK1833      0.3447
     22  CAV      -21.0410   11.2460  -63.4020 C.2   833  ZK1833      0.1443
     23  CAW      -21.5760   12.5630  -63.3480 C.3   833  ZK1833      0.1535
     24  NAX      -20.9890   13.7700  -66.8890 N.pl3 833  ZK1833     -0.3030
     25  NAY      -22.1530   13.0730  -62.1020 N.am  833  ZK1833     -0.2505
     26  CAZ      -19.8650   11.0590  -67.0750 C.3   833  ZK1833      0.4198
     27  PBA      -21.6360   15.7180  -61.2130 P.3   833  ZK1833      0.1372
@<TRIPOS>BOND
     1    12    17    1
     2    12    14    1
     3    11    17    1
     4    11    13    1
     5     8    26    1
     6    14    24    1
     7    13    24    1
     8     6    26    1
     9    26     7    1
    10    26    19    1
    11    24    18    1
    12    19    18    1
    13    19    10    2
    14    18     9    2
    15    10    22    1
    16     9    23    1
    17    22    23    1
    18    22    16    2
    19    23    25    1
    20    16    20    2
    21     4    27    2
    22    25    15    1
    23    25    21   am
    24    15    27    1
    25    27     3    1
    26    27     5    1
    27    20    21    1
    28    20     1    2
    29    21     2    2
