@<TRIPOS>MOLECULE
3kga_LX9_A_1.pdb
 32 37 0 0 0
SMALL
GASTEIGER

@<TRIPOS>ATOM
      1  N1        37.3020    5.2110   13.6380 N.ar  365  LX9365     -0.2269
      2  N2        38.3930    5.6610   12.9880 N.ar  365  LX9365     -0.1467
      3  C3        39.2390    6.1800   13.7920 C.ar  365  LX9365      0.1909
      4  C4        38.6350    6.0300   15.1240 C.ar  365  LX9365      0.0557
      5  C5        37.4420    5.4620   14.9130 C.ar  365  LX9365      0.1033
      6  C7        39.1090    6.4930   16.4850 C.ar  365  LX9365      0.0041
      7  C8        38.8350    5.7750   17.6370 C.ar  365  LX9365     -0.0034
      8  C10       39.2430    6.2550   18.8740 C.ar  365  LX9365     -0.0092
      9  C11       39.9260    7.4800   18.9690 C.ar  365  LX9365      0.0789
     10  C12       40.1840    8.2140   17.8200 C.ar  365  LX9365      0.0113
     11  C14       39.7700    7.7200   16.5860 C.ar  365  LX9365      0.0009
     12  C16       40.3390    8.0110   20.3300 C.1   365  LX9365      0.1497
     13  N17       39.7980    7.4320   21.4300 N.2   365  LX9365     -0.2022
     14  C19       38.8600    6.3110   21.3990 C.3   365  LX9365      0.1426
     15  C22       38.9490    5.4270   20.1340 C.3   365  LX9365      0.0543
     16  O25       41.0820    8.9890   20.4180 O.2   365  LX9365     -0.2223
     17  N26       40.3860    6.7030   13.4510 N.pl3 365  LX9365     -0.1053
     18  C29       36.2140    4.6480   13.0980 C.ar  365  LX9365      0.0829
     19  C30       35.7960    5.1160   11.8480 C.ar  365  LX9365      0.0188
     20  C32       34.6450    4.5980   11.2450 C.ar  365  LX9365     -0.0021
     21  C33       33.9030    3.6240   11.9160 C.ar  365  LX9365     -0.0002
     22  C35       34.3160    3.1550   13.1670 C.ar  365  LX9365      0.0015
     23  C37       35.4630    3.6740   13.7680 C.ar  365  LX9365      0.0191
     24  C39       34.1920    5.1060    9.9190 C.2   365  LX9365     -0.0162
     25  C40       34.5230    6.4170    9.5420 C.2   365  LX9365      0.0152
     26  C42       34.0570    6.8620    8.3050 C.2   365  LX9365      0.0807
     27  N43       34.2510    8.0570    7.7130 N.2   365  LX9365     -0.2439
     28  C45       33.6660    8.1000    6.5420 C.2   365  LX9365      0.0989
     29  C47       33.0380    6.9340    6.2740 C.2   365  LX9365      0.0218
     30  C49       33.2930    6.0500    7.4700 C.2   365  LX9365      0.0153
     31  C50       32.9380    4.7460    7.8200 C.2   365  LX9365     -0.0199
     32  C52       33.3980    4.2980    9.0710 C.3   365  LX9365      0.0524
@<TRIPOS>BOND
     1    29    28    2
     2    29    30    1
     3    28    27    1
     4    30    31    2
     5    30    26    1
     6    27    26    2
     7    31    32    1
     8    26    25    1
     9    32    24    1
    10    25    24    2
    11    24    20    1
    12    20    19   ar
    13    20    21   ar
    14    19    18   ar
    15    21    22   ar
    16     2     1   ar
    17     2     3   ar
    18    18     1    1
    19    18    23   ar
    20    22    23   ar
    21    17     3    1
    22     1     5   ar
    23     3     4   ar
    24     5     4   ar
    25     4     6    1
    26     6    11   ar
    27     6     7   ar
    28    11    10   ar
    29     7     8   ar
    30    10     9   ar
    31     8     9   ar
    32     8    15    1
    33     9    12    1
    34    15    14    1
    35    12    16    2
    36    12    13    2
    37    14    13    1
