@<TRIPOS>MOLECULE
3kgc_LY7_A_1.pdb
 24 25 0 0 0
SMALL
GASTEIGER

@<TRIPOS>ATOM
      1  CAA       12.3680   51.6710   -5.0390 C.3   264  LY7264      0.0270
      2  CAB       14.4290   53.0820   -4.7730 C.3   264  LY7264      0.0270
      3  CAC       12.2880   48.7820    0.2340 C.3   264  LY7264      0.0062
      4  NAD       21.8840   41.8100   -2.3740 N.1   264  LY7264     -0.1908
      5  OAE       14.9550   49.9480   -5.3520 O.2   264  LY7264     -0.1562
      6  OAF       15.7570   50.7680   -3.1150 O.2   264  LY7264     -0.1562
      7  CAG       21.0180   42.5110   -2.1610 C.1   264  LY7264      0.1004
      8  CAH       18.7020   43.0730   -2.5670 C.ar  264  LY7264      0.0103
      9  CAI       19.9870   44.4740   -1.0820 C.ar  264  LY7264      0.0103
     10  CAJ       17.5770   43.8710   -2.3690 C.ar  264  LY7264      0.0007
     11  CAK       18.8550   45.2840   -0.8940 C.ar  264  LY7264      0.0007
     12  CAL       16.6890   47.1340   -1.0100 C.ar  264  LY7264     -0.0003
     13  CAM       15.1530   45.3890   -1.5510 C.ar  264  LY7264     -0.0003
     14  CAN       15.6180   48.0000   -0.8690 C.ar  264  LY7264     -0.0042
     15  CAO       14.0540   46.2750   -1.4120 C.ar  264  LY7264     -0.0042
     16  CAP       12.9720   49.6640   -2.0690 C.3   264  LY7264      0.1194
     17  NAQ       13.6660   49.2860   -3.2980 N.3   264  LY7264     -0.0818
     18  CAR       19.8980   43.3670   -1.9240 C.ar  264  LY7264      0.0684
     19  CAS       17.6290   44.9780   -1.5090 C.ar  264  LY7264      0.0000
     20  CAT       16.4880   45.8030   -1.3490 C.ar  264  LY7264     -0.0000
     21  CAU       14.3080   47.6080   -1.0630 C.ar  264  LY7264     -0.0210
     22  CAV       13.5850   51.9520   -4.1710 C.3   264  LY7264      0.1473
     23  CAW       13.3800   48.8290   -0.8310 C.3   264  LY7264      0.0417
     24  SAX       14.5790   50.4380   -4.0000 S.O2  264  LY7264      0.0556
@<TRIPOS>BOND
     1     5    24    2
     2     1    22    1
     3     2    22    1
     4    22    24    1
     5    24    17    1
     6    24     6    2
     7    17    16    1
     8     8    10   ar
     9     8    18   ar
    10     4     7    3
    11    10    19   ar
    12     7    18    1
    13    16    23    1
    14    18     9   ar
    15    13    15   ar
    16    13    20   ar
    17    19    20    1
    18    19    11   ar
    19    15    21   ar
    20    20    12   ar
    21     9    11   ar
    22    21    14   ar
    23    21    23    1
    24    12    14   ar
    25    23     3    1
