@<TRIPOS>MOLECULE
3kgc_ZK1_B_1.pdb
 27 29 0 0 0
SMALL
GASTEIGER

@<TRIPOS>ATOM
      1  OAA        8.7130   34.4980   -5.4500 O.2   263  ZK1263     -0.2046
      2  OAB        9.3540   31.9580   -5.0410 O.2   263  ZK1263     -0.2557
      3  OAC       11.3540   31.4920   -2.2280 O.2   263  ZK1263     -0.4584
      4  OAD       10.0950   30.6710   -0.1780 O.3   263  ZK1263     -0.3560
      5  OAE       10.8990   28.9740   -1.9370 O.3   263  ZK1263     -0.3560
      6  FAF        6.4240   35.2010    2.0650 F     263  ZK1263     -0.1658
      7  FAG        5.3180   36.2190    0.4970 F     263  ZK1263     -0.1658
      8  FAH        4.4930   34.4630    1.4630 F     263  ZK1263     -0.1658
      9  CAI        7.3500   32.1330   -0.7670 C.2   263  ZK1263      0.0150
     10  CAJ        6.6740   34.7860   -1.2450 C.2   263  ZK1263      0.0356
     11  CAK        7.0110   31.4360    3.6730 C.3   263  ZK1263      0.1636
     12  CAL        4.7430   31.1350    2.9910 C.3   263  ZK1263      0.1636
     13  CAM        7.4710   31.7820    2.2510 C.3   263  ZK1263      0.1231
     14  CAN        4.9970   31.6050    1.5510 C.3   263  ZK1263      0.1231
     15  CAO        8.7990   30.5650   -2.7050 C.3   263  ZK1263      0.1538
     16  NAP        7.7370   34.6560   -3.4210 N.2   263  ZK1263     -0.3318
     17  OAQ        5.9190   30.5020    3.5360 O.3   263  ZK1263     -0.3501
     18  CAR        6.6600   32.8520    0.2000 C.2   263  ZK1263      0.0496
     19  CAS        6.3110   34.1920   -0.0270 C.2   263  ZK1263      0.0867
     20  CAT        8.4210   33.9440   -4.3910 C.1   263  ZK1263      0.2599
     21  CAU        8.7650   32.6040   -4.1710 C.2   263  ZK1263      0.3447
     22  CAV        7.3690   34.0550   -2.2110 C.2   263  ZK1263      0.1443
     23  CAW        7.7000   32.7250   -1.9830 C.3   263  ZK1263      0.1535
     24  NAX        6.3570   32.1470    1.3680 N.pl3 263  ZK1263     -0.3030
     25  NAY        8.4080   31.9820   -2.9620 N.am  263  ZK1263     -0.2505
     26  CAZ        5.5900   35.0360    1.0310 C.3   263  ZK1263      0.4198
     27  PBA       10.4120   30.4730   -1.7570 P.3   263  ZK1263      0.1372
@<TRIPOS>BOND
     1     1    20    2
     2     2    21    2
     3    20    21    1
     4    20    16    2
     5    21    25   am
     6    16    22    2
     7    25    15    1
     8    25    23    1
     9    15    27    1
    10     3    27    2
    11    22    23    1
    12    22    10    1
    13    23     9    1
    14     5    27    1
    15    27     4    1
    16    10    19    2
    17     9    18    2
    18    19    18    1
    19    19    26    1
    20    18    24    1
    21     7    26    1
    22    26     8    1
    23    26     6    1
    24    24    14    1
    25    24    13    1
    26    14    12    1
    27    13    11    1
    28    12    17    1
    29    17    11    1
