@<TRIPOS>MOLECULE
3kgc_GLU_A_1.pdb
 10 9 0 0 0
SMALL
GASTEIGER

@<TRIPOS>ATOM
      1  N         24.3570   57.8370   -1.9740 N.3   263  GLU263     -0.1208
      2  CA        23.9770   59.2660   -2.1190 C.3   263  GLU263      0.1949
      3  C         23.7010   59.5620   -3.5950 C.2   263  GLU263      0.3819
      4  O         23.7540   58.6530   -4.4370 O.co2 263  GLU263     -0.2441
      5  CB        25.0980   60.2050   -1.6030 C.3   263  GLU263      0.0424
      6  CG        25.0260   60.3620   -0.0630 C.3   263  GLU263      0.1161
      7  CD        23.8540   61.2380    0.4510 C.2   263  GLU263      0.3649
      8  OE1       23.6400   61.2080    1.6970 O.co2 263  GLU263     -0.2457
      9  OE2       23.1900   61.9260   -0.3700 O.co2 263  GLU263     -0.2457
     10  OXT       23.4020   60.7160   -3.9420 O.co2 263  GLU263     -0.2441
@<TRIPOS>BOND
     1     4     3   ar
     2    10     3   ar
     3     3     2    1
     4     2     1    1
     5     2     5    1
     6     5     6    1
     7     9     7   ar
     8     6     7    1
     9     7     8   ar
