@<TRIPOS>MOLECULE
3kgd_AMP_A_1.pdb
 22 24 0 0 0
SMALL
GASTEIGER

@<TRIPOS>ATOM
      1  P         -6.5340  -41.6490   -2.3400 P.3   501  AMP501      0.3942
      2  O1P       -7.2370  -42.9620   -2.6180 O.3   501  AMP501     -0.1425
      3  O2P       -6.0430  -41.3760   -0.9400 O.3   501  AMP501     -0.1425
      4  O5'       -7.4440  -40.3890   -2.7980 O.3   501  AMP501     -0.2926
      5  C5'       -8.1200  -40.4790   -4.0480 C.3   501  AMP501      0.1831
      6  C4'       -8.4180  -39.0980   -4.6090 C.3   501  AMP501      0.1822
      7  O4'       -9.1460  -38.4210   -3.6010 O.3   501  AMP501     -0.3135
      8  C3'       -7.1230  -38.3300   -4.8410 C.3   501  AMP501      0.2184
      9  O3'       -7.3530  -37.5000   -5.9920 O.3   501  AMP501     -0.2174
     10  C2'       -7.0280  -37.4610   -3.5980 C.3   501  AMP501      0.2570
     11  O2'       -6.2660  -36.2320   -3.7200 O.3   501  AMP501     -0.2130
     12  C1'       -8.5120  -37.1940   -3.2880 C.3   501  AMP501      0.3186
     13  N9        -8.6070  -36.9010   -1.8380 N.pl3 501  AMP501     -0.1439
     14  C8        -8.4600  -37.8010   -0.8210 C.3   501  AMP501      0.3377
     15  N7        -8.5640  -37.2010    0.3930 N.2   501  AMP501     -0.2095
     16  C5        -8.7510  -35.8990    0.1480 C.2   501  AMP501      0.2526
     17  C6        -8.9280  -34.7010    0.9710 C.2   501  AMP501      0.4393
     18  N6        -8.8920  -34.7830    2.3320 N.pl3 501  AMP501      0.2180
     19  N1        -9.0740  -33.5300    0.3220 N.2   501  AMP501      0.0021
     20  C2        -9.1070  -33.4190   -1.0120 C.3   501  AMP501      0.5254
     21  N3        -8.9580  -34.4620   -1.8210 N.2   501  AMP501     -0.0055
     22  C4        -8.7830  -35.7030   -1.3030 C.2   501  AMP501      0.3518
@<TRIPOS>BOND
     1     9     8    1
     2     8     6    1
     3     8    10    1
     4     6     5    1
     5     6     7    1
     6     5     4    1
     7    11    10    1
     8     7    12    1
     9    10    12    1
    10    12    13    1
    11     4     1    1
    12     2     1    1
    13     1     3    1
    14    13    22    1
    15    13    14    1
    16    21    22    2
    17    21    20    1
    18    22    16    1
    19    20    19    1
    20    14    15    1
    21    16    15    2
    22    16    17    1
    23    19    17    2
    24    17    18    1
