@<TRIPOS>MOLECULE
3kgf_PHE_A_1.pdb
 12 12 0 0 0
SMALL
GASTEIGER

@<TRIPOS>ATOM
      1  N         21.8440  115.9240    3.6160 N.3   9003  PHE9003    -0.1205
      2  CA        20.4170  116.0880    3.1770 C.3   9003  PHE9003     0.1986
      3  C         19.4850  116.4230    4.3240 C.2   9003  PHE9003     0.3822
      4  O         18.4550  117.0280    4.0540 O.co2 9003  PHE9003    -0.2440
      5  CB        19.8760  114.8250    2.4860 C.3   9003  PHE9003     0.0569
      6  CG        20.1000  113.5530    3.2610 C.ar  9003  PHE9003    -0.0202
      7  CD1       21.3280  112.8820    3.1800 C.ar  9003  PHE9003    -0.0042
      8  CD2       19.0900  113.0080    4.0300 C.ar  9003  PHE9003    -0.0042
      9  CE1       21.5510  111.7050    3.8910 C.ar  9003  PHE9003    -0.0003
     10  CE2       19.2990  111.8430    4.7420 C.ar  9003  PHE9003    -0.0003
     11  CZ        20.5400  111.1860    4.6730 C.ar  9003  PHE9003    -0.0000
     12  OXT       19.7070  116.0590    5.4890 O.co2 9003  PHE9003    -0.2440
@<TRIPOS>BOND
     1     5     2    1
     2     5     6    1
     3     2     1    1
     4     2     3    1
     5     7     6   ar
     6     7     9   ar
     7     6     8   ar
     8     9    11   ar
     9     8    10   ar
    10     4     3   ar
    11     3    12   ar
    12    11    10   ar
