@<TRIPOS>MOLECULE
3kgf_TRP_A_1.pdb
 15 16 0 0 0
SMALL
GASTEIGER

@<TRIPOS>ATOM
      1  N         47.8060  101.9800    3.6340 N.3   9004  TRP9004    -0.1205
      2  CA        49.0670  102.7080    4.0190 C.3   9004  TRP9004     0.1984
      3  C         48.7790  103.7450    5.0920 C.2   9004  TRP9004     0.3822
      4  O         49.7020  104.3070    5.6950 O.co2 9004  TRP9004    -0.2440
      5  CB        49.7190  103.4100    2.8250 C.3   9004  TRP9004     0.0549
      6  CG        48.8180  104.4230    2.1640 C.2   9004  TRP9004    -0.0138
      7  CD1       47.8910  104.1770    1.2010 C.2   9004  TRP9004     0.0907
      8  CD2       48.7250  105.8260    2.4570 C.3   9004  TRP9004     0.0819
      9  NE1       47.2260  105.3320    0.8670 N.2   9004  TRP9004    -0.2482
     10  CE2       47.7150  106.3610    1.6210 C.2   9004  TRP9004     0.0665
     11  CE3       49.3900  106.6790    3.3440 C.2   9004  TRP9004    -0.0164
     12  CZ2       47.3640  107.7060    1.6320 C.2   9004  TRP9004     0.0153
     13  CZ3       49.0370  108.0140    3.3620 C.2   9004  TRP9004    -0.0038
     14  CH2       48.0280  108.5160    2.5040 C.2   9004  TRP9004     0.0009
     15  OXT       47.6240  104.0620    5.3210 O.co2 9004  TRP9004    -0.2440
@<TRIPOS>BOND
     1     9     7    1
     2     9    10    2
     3     7     6    2
     4    10    12    1
     5    10     8    1
     6    12    14    2
     7     6     8    1
     8     6     5    1
     9     8    11    1
    10    14    13    1
    11     5     2    1
    12    11    13    2
    13     1     2    1
    14     2     3    1
    15     3    15   ar
    16     3     4   ar
