@<TRIPOS>MOLECULE
3kgp_4AZ_A_1.pdb
 11 11 0 0 0
SMALL
GASTEIGER

@<TRIPOS>ATOM
      1  C        -26.8620   86.4380  -12.0030 C.2   4069  4AZ4069     0.3878
      2  O        -26.0450   85.9370  -11.2960 O.co2 4069  4AZ4069    -0.2406
      3  C1       -27.9970   86.9950  -11.5950 C.ar  4069  4AZ4069     0.0798
      4  N1       -32.0180   89.9830  -10.9120 N.3   4069  4AZ4069    -0.1262
      5  C2       -28.2980   86.9990  -10.1870 C.ar  4069  4AZ4069     0.0063
      6  C3       -29.4900   87.5790   -9.7190 C.ar  4069  4AZ4069    -0.0026
      7  C4       -30.3970   88.1590  -10.6310 C.ar  4069  4AZ4069    -0.0032
      8  C5       -30.1070   88.1560  -12.0110 C.ar  4069  4AZ4069    -0.0026
      9  C6       -28.9210   87.5800  -12.4910 C.ar  4069  4AZ4069     0.0063
     10  C7       -31.6800   88.7790  -10.1280 C.3   4069  4AZ4069     0.1356
     11  OXT      -26.3340   86.3040  -13.1500 O.co2 4069  4AZ4069    -0.2406
@<TRIPOS>BOND
     1    11     1   ar
     2     9     8   ar
     3     9     3   ar
     4     8     7   ar
     5     1     3    1
     6     1     2   ar
     7     3     5   ar
     8     4    10    1
     9     7    10    1
    10     7     6   ar
    11     5     6   ar
