@<TRIPOS>MOLECULE
3kgq_CIT_A_1.pdb
 13 12 0 0 0
SMALL
GASTEIGER

@<TRIPOS>ATOM
      1  C1         3.8950    0.7110    6.0870 C.2   310  CIT310      0.3680
      2  O1         3.1130    0.9690    7.0150 O.co2 310  CIT310     -0.2455
      3  O2         3.8160    1.4190    5.0750 O.co2 310  CIT310     -0.2455
      4  C2         4.9030   -0.4100    6.1880 C.3   310  CIT310      0.1560
      5  C3         6.3020    0.1900    6.0690 C.3   310  CIT310      0.2402
      6  O7         6.3780    1.3480    6.9520 O.3   310  CIT310     -0.2129
      7  C4         7.3590   -0.8330    6.4800 C.3   310  CIT310      0.1560
      8  C5         8.7480   -0.2500    6.3540 C.2   310  CIT310      0.3680
      9  O3         9.2620   -0.0980    5.2240 O.co2 310  CIT310     -0.2455
     10  O4         9.3970    0.0820    7.3750 O.co2 310  CIT310     -0.2455
     11  C6         6.5130    0.6150    4.6180 C.2   310  CIT310      0.3927
     12  O5         6.1950   -0.1480    3.6760 O.co2 310  CIT310     -0.2429
     13  O6         6.9990    1.7400    4.3620 O.co2 310  CIT310     -0.2429
@<TRIPOS>BOND
     1    12    11   ar
     2    13    11   ar
     3    11     5    1
     4     3     1   ar
     5     9     8   ar
     6     5     4    1
     7     5     7    1
     8     5     6    1
     9     1     4    1
    10     1     2   ar
    11     8     7    1
    12     8    10   ar
