@<TRIPOS>MOLECULE
3kgt_GEN_A_1.pdb
 20 22 0 0 0
SMALL
GASTEIGER

@<TRIPOS>ATOM
      1  C1        22.4240   43.0910   34.7660 C.ar  3071  GEN3071     0.0798
      2  C2        21.5470   42.4820   33.9050 C.ar  3071  GEN3071     0.2020
      3  O2        21.7170   42.6070   32.5550 O.3   3071  GEN3071    -0.2864
      4  C3        20.4680   41.7390   34.3690 C.ar  3071  GEN3071     0.0843
      5  C4        20.2770   41.6050   35.7370 C.ar  3071  GEN3071     0.2049
      6  O4        19.2250   40.8720   36.1970 O.3   3071  GEN3071    -0.2862
      7  C5        21.1630   42.2170   36.6210 C.ar  3071  GEN3071     0.1126
      8  C6        20.9920   42.0920   37.9940 C.ar  3071  GEN3071     0.2047
      9  O6        20.0550   41.4500   38.4620 O.2   3071  GEN3071    -0.2862
     10  C7        21.9050   42.6970   38.8370 C.ar  3071  GEN3071     0.0767
     11  C8        22.9490   43.4200   38.2900 C.ar  3071  GEN3071     0.1826
     12  O9        23.1280   43.5710   36.9490 O.2   3071  GEN3071    -0.4500
     13  C10       22.2350   42.9560   36.1300 C.ar  3071  GEN3071     0.1548
     14  C11       21.7980   42.6130   40.2200 C.ar  3071  GEN3071     0.0064
     15  C12       21.8070   41.3820   40.8630 C.ar  3071  GEN3071     0.0035
     16  C13       21.7050   41.3300   42.2470 C.ar  3071  GEN3071     0.0420
     17  C14       21.6040   42.4930   42.9980 C.ar  3071  GEN3071     0.1957
     18  O14       21.5060   42.4340   44.3550 O.3   3071  GEN3071    -0.2866
     19  C15       21.6020   43.7180   42.3480 C.ar  3071  GEN3071     0.0420
     20  C16       21.6990   43.7810   40.9660 C.ar  3071  GEN3071     0.0035
@<TRIPOS>BOND
     1     3     2    1
     2     2     4   ar
     3     2     1   ar
     4     4     5   ar
     5     1    13   ar
     6     5     6    1
     7     5     7   ar
     8    13     7   ar
     9    13    12   ar
    10     7     8   ar
    11    12    11   ar
    12     8     9    2
    13     8    10   ar
    14    11    10   ar
    15    10    14    1
    16    14    15   ar
    17    14    20   ar
    18    15    16   ar
    19    20    19   ar
    20    16    17   ar
    21    19    17   ar
    22    17    18    1
