@<TRIPOS>MOLECULE
3kgu_GEN_A_1.pdb
 20 22 0 0 0
SMALL
GASTEIGER

@<TRIPOS>ATOM
      1  C1        -0.8920    0.4980   -2.5460 C.ar  3071  GEN3071     0.0798
      2  C2         0.0280   -0.0750   -1.6780 C.ar  3071  GEN3071     0.2020
      3  O2        -0.1520    0.0340   -0.3340 O.3   3071  GEN3071    -0.2864
      4  C3         1.1220   -0.7650   -2.1840 C.ar  3071  GEN3071     0.0843
      5  C4         1.3000   -0.8730   -3.5580 C.ar  3071  GEN3071     0.2049
      6  O4         2.3770   -1.5490   -4.0480 O.3   3071  GEN3071    -0.2862
      7  C5         0.3760   -0.2970   -4.4240 C.ar  3071  GEN3071     0.1126
      8  C6         0.5490   -0.4020   -5.7940 C.ar  3071  GEN3071     0.2047
      9  O6         1.5170   -0.9970   -6.2650 O.2   3071  GEN3071    -0.2862
     10  C7        -0.3770    0.1900   -6.6300 C.ar  3071  GEN3071     0.0767
     11  C8        -1.4620    0.8580   -6.0810 C.ar  3071  GEN3071     0.1826
     12  O9        -1.6540    0.9730   -4.7330 O.2   3071  GEN3071    -0.4500
     13  C10       -0.7230    0.3920   -3.9200 C.ar  3071  GEN3071     0.1548
     14  C11       -0.2280    0.1090   -8.0100 C.ar  3071  GEN3071     0.0064
     15  C12       -0.1090    1.2690   -8.7670 C.ar  3071  GEN3071     0.0035
     16  C13        0.0380    1.1870  -10.1450 C.ar  3071  GEN3071     0.0420
     17  C14        0.0710   -0.0560  -10.7680 C.ar  3071  GEN3071     0.1957
     18  O14        0.2180   -0.1400  -12.1220 O.3   3071  GEN3071    -0.2866
     19  C15       -0.0450   -1.2160  -10.0100 C.ar  3071  GEN3071     0.0420
     20  C16       -0.1970   -1.1330   -8.6320 C.ar  3071  GEN3071     0.0035
@<TRIPOS>BOND
     1    18    17    1
     2    17    16   ar
     3    17    19   ar
     4    16    15   ar
     5    19    20   ar
     6    15    14   ar
     7    20    14   ar
     8    14    10    1
     9    10    11   ar
    10    10     8   ar
    11     9     8    2
    12    11    12   ar
    13     8     7   ar
    14    12    13   ar
    15     7    13   ar
    16     7     5   ar
    17     6     5    1
    18    13     1   ar
    19     5     4   ar
    20     1     2   ar
    21     4     2   ar
    22     2     3    1
