@<TRIPOS>MOLECULE
3kgw_PLP_A_1.pdb
 16 16 0 0 0
SMALL
GASTEIGER

@<TRIPOS>ATOM
      1  N1        -1.3410   15.3390    4.3190 N.ar  500  PLP500     -0.2452
      2  C2        -1.8180   14.0750    4.0640 C.ar  500  PLP500      0.0982
      3  C2A       -1.8660   13.5420    2.6610 C.3   500  PLP500      0.0555
      4  C3        -2.2820   13.2810    5.1080 C.ar  500  PLP500      0.2120
      5  O3        -2.7170   12.0250    4.7920 O.3   500  PLP500     -0.2852
      6  C4        -2.2440   13.7550    6.4350 C.ar  500  PLP500      0.0822
      7  C4A       -2.7670   12.9610    7.5980 C.2   500  PLP500      0.2372
      8  O4A       -3.8710   12.4340    7.5060 O.2   500  PLP500     -0.2830
      9  C5        -1.7320   15.0340    6.6790 C.ar  500  PLP500      0.0333
     10  C6        -1.3080   15.8130    5.6180 C.ar  500  PLP500      0.0969
     11  C5A       -1.6620   15.6050    8.0750 C.3   500  PLP500      0.1819
     12  O4P       -2.5150   14.8170    8.8480 O.3   500  PLP500     -0.2653
     13  P         -2.1930   14.0810   10.2340 P.3   500  PLP500      0.5329
     14  O1P       -2.4680   15.2020   11.2530 O.3   500  PLP500     -0.1145
     15  O2P       -3.4090   13.1970   10.3970 O.3   500  PLP500     -0.1145
     16  O3P       -0.8660   13.1810   10.0940 O.2   500  PLP500     -0.2224
@<TRIPOS>BOND
     1     3     2    1
     2     2     1   ar
     3     2     4   ar
     4     1    10   ar
     5     5     4    1
     6     4     6   ar
     7    10     9   ar
     8     6     9   ar
     9     6     7    1
    10     9    11    1
    11     8     7    2
    12    11    12    1
    13    12    13    1
    14    16    13    2
    15    13    15    1
    16    13    14    1
