@<TRIPOS>MOLECULE
3kgy_NDP_A_1.pdb
 48 52 0 0 0
SMALL
GASTEIGER

@<TRIPOS>ATOM
      1  PA        55.1010    9.2060   23.9420 P.3   301  NDP301      0.2189
      2  O1A       55.0370   10.6280   23.5700 O.2   301  NDP301     -0.5170
      3  O2A       54.0150    8.7060   24.7950 O.3   301  NDP301     -0.4371
      4  O5B       56.5350    8.9000   24.6040 O.3   301  NDP301     -0.3112
      5  C5B       56.8590    7.6050   25.0740 C.3   301  NDP301      0.1813
      6  C4B       58.2650    7.6460   25.6180 C.3   301  NDP301      0.1820
      7  O4B       58.3500    8.5240   26.7470 O.3   301  NDP301     -0.3136
      8  C3B       58.7630    6.2840   26.0990 C.3   301  NDP301      0.2157
      9  O3B       59.2320    5.4940   25.0340 O.3   301  NDP301     -0.2175
     10  C2B       59.8640    6.7460   27.0330 C.3   301  NDP301      0.2314
     11  O2B       60.9630    7.2150   26.2670 O.3   301  NDP301     -0.2630
     12  C1B       59.2090    7.9330   27.7190 C.3   301  NDP301      0.3158
     13  N9A       58.3770    7.5160   28.8440 N.pl3 301  NDP301     -0.1439
     14  C8A       57.0090    7.3620   28.8860 C.3   301  NDP301      0.3377
     15  N7A       56.6360    6.9530   30.0960 N.2   301  NDP301     -0.2095
     16  C5A       57.7460    6.8450   30.8640 C.2   301  NDP301      0.2526
     17  C6A       57.9130    6.4070   32.1710 C.2   301  NDP301      0.4393
     18  N6A       56.9550    5.9730   32.9840 N.pl3 301  NDP301      0.2180
     19  N1A       59.1910    6.4280   32.6270 N.2   301  NDP301      0.0021
     20  C2A       60.2530    6.7460   31.8230 C.3   301  NDP301      0.5254
     21  N3A       60.1110    7.1440   30.5390 N.2   301  NDP301     -0.0055
     22  C4A       58.8430    7.1750   30.0760 C.2   301  NDP301      0.3518
     23  O3        55.2460    8.2910   22.5880 O.3   301  NDP301     -0.2703
     24  PN        54.2020    7.6880   21.5590 P.3   301  NDP301      0.2189
     25  O1N       55.0410    7.0220   20.5040 O.2   301  NDP301     -0.5170
     26  O2N       53.1650    6.8820   22.2230 O.3   301  NDP301     -0.4371
     27  O5D       53.4460    8.9830   21.0120 O.3   301  NDP301     -0.3112
     28  C5D       54.1800    9.9300   20.2390 C.3   301  NDP301      0.1813
     29  C4D       53.3690   10.3460   19.0320 C.3   301  NDP301      0.1799
     30  O4D       52.1360   10.9130   19.4720 O.3   301  NDP301     -0.3327
     31  C3D       54.0340   11.4220   18.1670 C.3   301  NDP301      0.2158
     32  O3D       53.9640   11.0420   16.8010 O.3   301  NDP301     -0.2175
     33  C2D       53.1870   12.6820   18.3920 C.3   301  NDP301      0.2309
     34  O2D       53.1750   13.4930   17.2330 O.3   301  NDP301     -0.2158
     35  C1D       51.8400   12.0220   18.6510 C.3   301  NDP301      0.2263
     36  N1N       50.8260   12.8570   19.2630 N.pl3 301  NDP301     -0.2787
     37  C2N       49.5680   12.8910   18.6930 C.3   301  NDP301      0.1244
     38  C3N       48.6250   13.7650   19.1770 C.2   301  NDP301      0.0544
     39  C7N       47.2540   13.6720   18.6590 C.2   301  NDP301      0.2818
     40  O7N       46.3180   14.4180   19.2480 O.2   301  NDP301     -0.2670
     41  N7N       46.9070   12.8550   17.6680 N.am  301  NDP301     -0.0839
     42  C4N       48.8140   14.4920   20.4480 C.2   301  NDP301      0.0033
     43  C5N       50.1700   14.3080   21.0010 C.2   301  NDP301      0.0157
     44  C6N       51.1030   13.5160   20.4350 C.2   301  NDP301      0.0633
     45  P2B       62.5020    7.2240   26.8220 P.3   301  NDP301      0.5328
     46  O1X       62.5730    8.2500   27.9120 O.3   301  NDP301     -0.1145
     47  O2X       63.3380    7.5490   25.6370 O.2   301  NDP301     -0.2224
     48  O3X       62.7990    5.8620   27.3970 O.3   301  NDP301     -0.1145
@<TRIPOS>BOND
     1    32    31    1
     2    34    33    1
     3    41    39   am
     4    31    33    1
     5    31    29    1
     6    33    35    1
     7    35    36    1
     8    35    30    1
     9    39    38    1
    10    39    40    2
    11    37    38    1
    12    37    36    1
    13    29    30    1
    14    29    28    1
    15    38    42    2
    16    36    44    1
    17    28    27    1
    18    44    43    2
    19    42    43    1
    20    25    24    2
    21    27    24    1
    22    24    26    1
    23    24    23    1
    24    23     1    1
    25     2     1    2
    26     1     4    1
    27     1     3    1
    28     4     5    1
    29     9     8    1
    30     5     6    1
    31     6     8    1
    32     6     7    1
    33    47    45    2
    34     8    10    1
    35    11    45    1
    36    11    10    1
    37     7    12    1
    38    45    48    1
    39    45    46    1
    40    10    12    1
    41    12    13    1
    42    13    14    1
    43    13    22    1
    44    14    15    1
    45    22    21    2
    46    22    16    1
    47    15    16    2
    48    21    20    1
    49    16    17    1
    50    20    19    1
    51    17    19    2
    52    17    18    1
