@<TRIPOS>MOLECULE
3kh5_ADP_A_1.pdb
 27 29 0 0 0
SMALL
GASTEIGER

@<TRIPOS>ATOM
      1  PB         9.6980   13.9230   29.8200 P.3   281  ADP281      0.5373
      2  O1B        9.0300   12.6120   29.6480 O.3   281  ADP281     -0.1143
      3  O2B        9.4280   14.9030   28.5540 O.2   281  ADP281     -0.2221
      4  O3B       11.2930   13.8090   29.8900 O.3   281  ADP281     -0.1143
      5  PA         7.8310   15.5410   31.0730 P.3   281  ADP281      0.2231
      6  O1A        6.8750   15.2110   29.9680 O.2   281  ADP281     -0.5169
      7  O2A        7.2570   16.0580   32.5220 O.3   281  ADP281     -0.4370
      8  O3A        9.2390   14.7090   31.1470 O.3   281  ADP281     -0.2261
      9  O5'        7.3730   14.1120   31.7610 O.3   281  ADP281     -0.3111
     10  C5'        6.1210   13.3970   31.5080 C.3   281  ADP281      0.1813
     11  C4'        5.3440   13.0620   32.8180 C.3   281  ADP281      0.1821
     12  O4'        5.5310   11.6900   33.2920 O.3   281  ADP281     -0.3135
     13  C3'        5.8330   13.9970   33.9270 C.3   281  ADP281      0.2184
     14  O3'        4.7100   14.5730   34.6250 O.3   281  ADP281     -0.2174
     15  C2'        6.6760   13.1330   34.8610 C.3   281  ADP281      0.2570
     16  O2'        6.1930   13.3470   36.1890 O.3   281  ADP281     -0.2130
     17  C1'        6.4310   11.6700   34.4470 C.3   281  ADP281      0.3186
     18  N9         7.6510   10.8500   34.0640 N.pl3 281  ADP281     -0.1439
     19  C8         8.6290   11.2160   33.2290 C.3   281  ADP281      0.3377
     20  N7         9.5250   10.2310   33.1250 N.2   281  ADP281     -0.2095
     21  C5         9.1190    9.2230   33.8920 C.2   281  ADP281      0.2526
     22  C6         9.6280    7.9560   34.1820 C.2   281  ADP281      0.4393
     23  N6        10.7690    7.5400   33.6360 N.pl3 281  ADP281      0.2180
     24  N1         8.9480    7.1570   35.0270 N.2   281  ADP281      0.0021
     25  C2         7.8110    7.5620   35.5820 C.3   281  ADP281      0.5254
     26  N3         7.3020    8.7620   35.3230 N.2   281  ADP281     -0.0055
     27  C4         7.9290    9.6150   34.4900 C.2   281  ADP281      0.3518
@<TRIPOS>BOND
     1     3     1    2
     2     2     1    1
     3     1     4    1
     4     1     8    1
     5     6     5    2
     6     5     8    1
     7     5     9    1
     8     5     7    1
     9    10     9    1
    10    10    11    1
    11    11    12    1
    12    11    13    1
    13    20    19    1
    14    20    21    2
    15    19    18    1
    16    12    17    1
    17    23    22    1
    18    21    22    1
    19    21    27    1
    20    13    14    1
    21    13    15    1
    22    18    17    1
    23    18    27    1
    24    22    24    2
    25    17    15    1
    26    27    26    2
    27    15    16    1
    28    24    25    1
    29    26    25    1
