@<TRIPOS>MOLECULE
3kh5_AMP_A_1.pdb
 23 25 0 0 0
SMALL
GASTEIGER

@<TRIPOS>ATOM
      1  P          6.2980   16.1690   23.1400 P.3   282  AMP282      0.5327
      2  O1P        6.2400   15.1510   24.2200 O.3   282  AMP282     -0.1145
      3  O2P        7.7720   16.2370   22.4830 O.2   282  AMP282     -0.2224
      4  O3P        6.0140   17.6680   23.6890 O.3   282  AMP282     -0.1145
      5  O5'        5.2820   15.8970   21.9290 O.3   282  AMP282     -0.2675
      6  C5'        4.3020   14.8310   21.9330 C.3   282  AMP282      0.1860
      7  C4'        3.3200   15.0300   20.7760 C.3   282  AMP282      0.1823
      8  O4'        2.6820   16.3150   21.0280 O.3   282  AMP282     -0.3135
      9  C3'        4.1460   15.1670   19.4830 C.3   282  AMP282      0.2184
     10  O3'        3.4860   14.5030   18.3850 O.3   282  AMP282     -0.2174
     11  C2'        4.1690   16.6750   19.2430 C.3   282  AMP282      0.2570
     12  O2'        4.2100   16.9540   17.8390 O.3   282  AMP282     -0.2130
     13  C1'        2.8380   17.1260   19.8530 C.3   282  AMP282      0.3186
     14  N9         2.8550   18.5580   20.2730 N.pl3 282  AMP282     -0.1439
     15  C8         3.7740   19.1600   21.0350 C.3   282  AMP282      0.3377
     16  N7         3.4550   20.4440   21.1960 N.2   282  AMP282     -0.2095
     17  C5         2.3260   20.6580   20.5300 C.2   282  AMP282      0.2526
     18  C6         1.5290   21.7760   20.3380 C.2   282  AMP282      0.4393
     19  N6         1.8680   22.9420   20.8850 N.pl3 282  AMP282      0.2180
     20  N1         0.4140   21.6580   19.5930 N.2   282  AMP282      0.0021
     21  C2         0.0680   20.4960   19.0440 C.3   282  AMP282      0.5254
     22  N3         0.8090   19.4090   19.2100 N.2   282  AMP282     -0.0055
     23  C4         1.9370   19.4620   19.9450 C.2   282  AMP282      0.3518
@<TRIPOS>BOND
     1    12    11    1
     2    10     9    1
     3    21    22    1
     4    21    20    1
     5    22    23    2
     6    11     9    1
     7    11    13    1
     8     9     7    1
     9    20    18    2
    10    13    14    1
    11    13     8    1
    12    23    14    1
    13    23    17    1
    14    14    15    1
    15    18    17    1
    16    18    19    1
    17    17    16    2
    18     7     8    1
    19     7     6    1
    20    15    16    1
    21     5     6    1
    22     5     1    1
    23     3     1    2
    24     1     4    1
    25     1     2    1
