@<TRIPOS>MOLECULE
3khb_AKG_A_1.pdb
 10 9 0 0 0
SMALL
GASTEIGER

@<TRIPOS>ATOM
      1  C1        53.0500    4.0130   18.2120 C.2   400  AKG400      0.4219
      2  O1        53.3960    3.1210   19.0170 O.co2 400  AKG400     -0.2373
      3  O2        53.7870    4.3680   17.2620 O.co2 400  AKG400     -0.2373
      4  C2        51.7510    4.6660   18.3750 C.2   400  AKG400      0.2526
      5  O5        51.3830    5.4650   17.5260 O.2   400  AKG400     -0.2843
      6  C3        50.8870    4.3500   19.5820 C.3   400  AKG400      0.0881
      7  C4        49.9180    5.4840   19.9190 C.3   400  AKG400      0.1224
      8  C5        49.0060    5.0910   21.0640 C.2   400  AKG400      0.3653
      9  O3        49.4960    4.9640   22.2100 O.co2 400  AKG400     -0.2456
     10  O4        47.7890    4.9170   20.8260 O.co2 400  AKG400     -0.2456
@<TRIPOS>BOND
     1     3     1   ar
     2     5     4    2
     3     1     4    1
     4     1     2   ar
     5     4     6    1
     6     6     7    1
     7     7     8    1
     8    10     8   ar
     9     8     9   ar
