@<TRIPOS>MOLECULE
3khc_AKG_A_1.pdb
 10 9 0 0 0
SMALL
GASTEIGER

@<TRIPOS>ATOM
      1  C1       -20.7200   18.8590   18.2190 C.2   400  AKG400      0.4219
      2  O1       -20.2340   17.9470   18.9520 O.co2 400  AKG400     -0.2373
      3  O2       -20.1190   19.2330   17.1880 O.co2 400  AKG400     -0.2373
      4  C2       -21.9940   19.5150   18.5710 C.2   400  AKG400      0.2526
      5  O5       -22.4180   20.4670   17.9210 O.2   400  AKG400     -0.2843
      6  C3       -22.7980   19.0210   19.7500 C.3   400  AKG400      0.0881
      7  C4       -24.0380   19.8910   19.9220 C.3   400  AKG400      0.1224
      8  C5       -24.8660   19.3850   21.0770 C.2   400  AKG400      0.3653
      9  O3       -24.3300   19.2750   22.2040 O.co2 400  AKG400     -0.2456
     10  O4       -26.0620   19.1040   20.8590 O.co2 400  AKG400     -0.2456
@<TRIPOS>BOND
     1     3     1   ar
     2     5     4    2
     3     1     4    1
     4     1     2   ar
     5     4     6    1
     6     6     7    1
     7     7     8    1
     8    10     8   ar
     9     8     9   ar
