@<TRIPOS>MOLECULE
3khg_DGT_A_1.pdb
 31 33 0 0 0
SMALL
GASTEIGER

@<TRIPOS>ATOM
      1  PG         2.4110    5.5830   -0.9400 P.3   414  DGT414      0.5373
      2  O1G        3.3280    5.9850    0.1960 O.3   414  DGT414     -0.1143
      3  O2G        1.0210    6.2430   -1.1020 O.2   414  DGT414     -0.2221
      4  O3G        1.9570    4.6480    0.1740 O.3   414  DGT414     -0.1143
      5  O3B        2.6610    4.2300   -1.8000 O.3   414  DGT414     -0.2258
      6  PB         4.2370    3.9550   -1.7890 P.3   414  DGT414      0.2277
      7  O1B        4.9730    5.1430   -2.3320 O.3   414  DGT414     -0.4368
      8  O2B        4.4990    2.8600   -2.7670 O.2   414  DGT414     -0.5168
      9  O3A        4.6590    3.7100   -0.2460 O.3   414  DGT414     -0.2700
     10  PA         6.2200    3.9290   -0.0410 P.3   414  DGT414      0.2189
     11  O1A        6.7310    3.2630    1.2150 O.3   414  DGT414     -0.4371
     12  O2A        6.6200    5.3800   -0.0180 O.2   414  DGT414     -0.5170
     13  O5'        6.8750    3.1650   -1.2610 O.3   414  DGT414     -0.3112
     14  C5'        7.7030    3.8190   -2.2040 C.3   414  DGT414      0.1812
     15  C4'        8.3620    2.7430   -3.0240 C.3   414  DGT414      0.1772
     16  O4'        9.2450    2.0000   -2.1820 O.3   414  DGT414     -0.3347
     17  C3'        7.3030    1.7980   -3.5340 C.3   414  DGT414      0.1857
     18  O3'        6.6420    2.2720   -4.7130 O.3   414  DGT414     -0.2203
     19  C2'        8.1380    0.5670   -3.7040 C.3   414  DGT414      0.0865
     20  C1'        9.1270    0.6190   -2.5280 C.3   414  DGT414      0.1981
     21  N9         8.5870   -0.2630   -1.4570 N.pl3 414  DGT414     -0.2374
     22  C8         7.9380    0.0650   -0.2850 C.3   414  DGT414      0.2245
     23  N7         7.5770   -0.9790    0.4220 N.2   414  DGT414     -0.2322
     24  C5         7.9940   -2.0720   -0.3360 C.2   414  DGT414      0.2182
     25  C6         7.8920   -3.4690   -0.1130 C.1   414  DGT414      0.2372
     26  O6         7.3870   -4.0790    0.8310 O.2   414  DGT414     -0.2069
     27  N1         8.4680   -4.2010   -1.1380 N.2   414  DGT414     -0.2485
     28  C2         9.0700   -3.6870   -2.2740 C.1   414  DGT414      0.2531
     29  N2         9.5770   -4.5350   -3.1850 N.pl3 414  DGT414     -0.0226
     30  N3         9.1570   -2.3770   -2.4700 N.2   414  DGT414     -0.3074
     31  C4         8.6110   -1.6410   -1.4820 C.2   414  DGT414      0.2299
@<TRIPOS>BOND
     1    18    17    1
     2    19    17    1
     3    19    20    1
     4    17    15    1
     5    29    28    1
     6    15    14    1
     7    15    16    1
     8     8     6    2
     9    20    16    1
    10    20    21    1
    11    30    28    2
    12    30    31    2
    13     7     6    1
    14    28    27    2
    15    14    13    1
    16     5     6    1
    17     5     1    1
    18     6     9    1
    19    31    21    1
    20    31    24    1
    21    21    22    1
    22    13    10    1
    23    27    25    2
    24     3     1    2
    25     1     4    1
    26     1     2    1
    27    24    25    1
    28    24    23    2
    29    22    23    1
    30     9    10    1
    31    25    26    2
    32    10    12    2
    33    10    11    1
