@<TRIPOS>MOLECULE
3khh_AF_E_1.pdb
 14 16 0 0 0
SMALL
GASTEIGER

@<TRIPOS>ATOM
      1  N          7.9130   -0.0950   10.3020 N.pl3 926  AF926      -0.1281
      2  C2         6.6770   -0.7450   10.4090 C.ar  926  AF926       0.0891
      3  C3         5.5940   -0.0920   11.0220 C.ar  926  AF926       0.0181
      4  C4         4.3690   -0.7290   11.1280 C.ar  926  AF926       0.0014
      5  C4A        4.2270   -2.0350   10.6240 C.ar  926  AF926      -0.0002
      6  C4B        3.0650   -2.9440   10.6090 C.2   926  AF926      -0.0037
      7  C5         1.7580   -2.7730   11.0790 C.2   926  AF926      -0.0006
      8  C6         0.8280   -3.7990   10.9410 C.2   926  AF926      -0.0042
      9  C7         1.1900   -4.9890   10.3210 C.2   926  AF926      -0.0214
     10  C8         2.4890   -5.1610    9.8460 C.3   926  AF926       0.0523
     11  C8A        3.4230   -4.1470    9.9940 C.2   926  AF926      -0.0178
     12  C9         4.8680   -4.0440    9.5840 C.2   926  AF926      -0.0039
     13  C9A        5.3150   -2.6740   10.0130 C.ar  926  AF926       0.0010
     14  C1         6.5320   -2.0390    9.9060 C.ar  926  AF926       0.0180
@<TRIPOS>BOND
     1    12    11    2
     2    12    13    1
     3    10    11    1
     4    10     9    1
     5    14    13   ar
     6    14     2   ar
     7    11     6    1
     8    13     5   ar
     9     1     2    1
    10     9     8    2
    11     2     3   ar
    12     6     5    1
    13     6     7    2
    14     5     4   ar
    15     8     7    1
    16     3     4   ar
