@<TRIPOS>MOLECULE
3khh_DGT_A_1.pdb
 31 33 0 0 0
SMALL
GASTEIGER

@<TRIPOS>ATOM
      1  PG        21.9200    6.5620    1.8500 P.3   414  DGT414      0.5373
      2  O1G       21.9750    7.9980    2.3260 O.3   414  DGT414     -0.1143
      3  O2G       22.0910    5.3820    2.8430 O.3   414  DGT414     -0.1143
      4  O3G       23.4250    6.6950    1.8600 O.2   414  DGT414     -0.2221
      5  O3B       22.1620    6.1290    0.3020 O.3   414  DGT414     -0.2258
      6  PB        21.4380    4.7170   -0.0910 P.3   414  DGT414      0.2277
      7  O1B       22.5340    3.7310   -0.4230 O.3   414  DGT414     -0.4368
      8  O2B       20.5540    4.8940   -1.3060 O.2   414  DGT414     -0.5168
      9  O3A       20.5250    4.1520    1.1250 O.3   414  DGT414     -0.2700
     10  PA        19.7260    2.7450    0.9330 P.3   414  DGT414      0.2189
     11  O1A       20.6220    1.6910    0.3230 O.3   414  DGT414     -0.4371
     12  O2A       18.5050    2.8760    0.0540 O.2   414  DGT414     -0.5170
     13  O5'       19.2190    2.2600    2.3890 O.3   414  DGT414     -0.3112
     14  C5'       19.0980    3.1600    3.4950 C.3   414  DGT414      0.1812
     15  C4'       18.1470    4.3140    3.1620 C.3   414  DGT414      0.1772
     16  O4'       16.9500    4.2350    3.9360 O.3   414  DGT414     -0.3347
     17  C3'       18.7800    5.6630    3.4690 C.3   414  DGT414      0.1857
     18  O3'       18.5690    6.5900    2.3920 O.3   414  DGT414     -0.2203
     19  C2'       18.1040    6.1650    4.7290 C.3   414  DGT414      0.0865
     20  C1'       16.9630    5.1980    4.9940 C.3   414  DGT414      0.1981
     21  N9        17.1590    4.4710    6.2550 N.pl3 414  DGT414     -0.2374
     22  C8        18.1530    3.5640    6.5550 C.3   414  DGT414      0.2245
     23  N7        18.0590    3.0650    7.7530 N.2   414  DGT414     -0.2322
     24  C5        16.9290    3.6790    8.2790 C.2   414  DGT414      0.2182
     25  C6        16.3220    3.5420    9.5460 C.1   414  DGT414      0.2372
     26  O6        16.6870    2.8150   10.4820 O.2   414  DGT414     -0.2069
     27  N1        15.1850    4.3520    9.6730 N.2   414  DGT414     -0.2485
     28  C2        14.6600    5.2050    8.7160 C.1   414  DGT414      0.2531
     29  N2        13.5520    5.9030    9.0220 N.pl3 414  DGT414     -0.0226
     30  N3        15.2500    5.3210    7.5230 N.2   414  DGT414     -0.3074
     31  C4        16.3590    4.5450    7.3730 C.2   414  DGT414      0.2299
@<TRIPOS>BOND
     1     8     6    2
     2     7     6    1
     3     6     5    1
     4     6     9    1
     5    12    10    2
     6     5     1    1
     7    11    10    1
     8    10     9    1
     9    10    13    1
    10     1     4    2
    11     1     2    1
    12     1     3    1
    13    13    14    1
    14    18    17    1
    15    15    17    1
    16    15    14    1
    17    15    16    1
    18    17    19    1
    19    16    20    1
    20    19    20    1
    21    20    21    1
    22    21    22    1
    23    21    31    1
    24    22    23    1
    25    31    30    2
    26    31    24    1
    27    30    28    2
    28    23    24    2
    29    24    25    1
    30    28    29    1
    31    28    27    2
    32    25    27    2
    33    25    26    2
