@<TRIPOS>MOLECULE
3khj_IMP_A_1.pdb
 23 25 0 0 0
SMALL
GASTEIGER

@<TRIPOS>ATOM
      1  P         -5.3900   14.6220   11.5340 P.3   801  IMP801      0.5327
      2  O1P       -4.4690   13.6150   10.8880 O.2   801  IMP801     -0.2224
      3  O2P       -4.6930   15.9530   11.6660 O.3   801  IMP801     -0.1145
      4  O3P       -5.8140   14.1390   12.8990 O.3   801  IMP801     -0.1145
      5  O5'       -6.6780   14.7820   10.5850 O.3   801  IMP801     -0.2675
      6  C5'       -7.7920   15.5630   10.9560 C.3   801  IMP801      0.1860
      7  C4'       -8.7970   15.4950    9.8150 C.3   801  IMP801      0.1823
      8  O4'       -9.1150   14.1450    9.5320 O.3   801  IMP801     -0.3135
      9  C3'      -10.1110   16.1890   10.1290 C.3   801  IMP801      0.2184
     10  O3'      -10.1050   17.5340    9.7120 O.3   801  IMP801     -0.2174
     11  C2'      -11.1350   15.3600    9.3760 C.3   801  IMP801      0.2570
     12  O2'      -11.3600   15.8660    8.0820 O.3   801  IMP801     -0.2130
     13  C1'      -10.4940   13.9880    9.2570 C.3   801  IMP801      0.3186
     14  N9       -11.1140   13.0720   10.2360 N.pl3 801  IMP801     -0.1435
     15  C8       -11.0120   13.1500   11.6040 C.3   801  IMP801      0.3382
     16  N7       -11.7240   12.1410   12.1520 N.2   801  IMP801     -0.2054
     17  C5       -12.2790   11.4140   11.1580 C.2   801  IMP801      0.2446
     18  C6       -13.0930   10.2840   11.1650 C.1   801  IMP801      0.1792
     19  O6       -13.4110    9.7620   12.2320 O.2   801  IMP801     -0.2203
     20  N1       -13.5240    9.7430    9.9650 N.2   801  IMP801     -0.1458
     21  C2       -13.1470   10.3250    8.7650 C.3   801  IMP801      0.4017
     22  N3       -12.3360   11.4480    8.7680 N.2   801  IMP801     -0.0334
     23  C4       -11.9070   11.9870    9.9430 C.2   801  IMP801      0.3528
@<TRIPOS>BOND
     1    12    11    1
     2    21    22    1
     3    21    20    1
     4    22    23    2
     5    13    11    1
     6    13     8    1
     7    13    14    1
     8    11     9    1
     9     8     7    1
    10    10     9    1
    11     7     9    1
    12     7     6    1
    13    23    14    1
    14    23    17    1
    15    20    18    2
    16    14    15    1
    17     5     6    1
    18     5     1    1
    19     2     1    2
    20    17    18    1
    21    17    16    2
    22    18    19    2
    23     1     3    1
    24     1     4    1
    25    15    16    1
