@<TRIPOS>MOLECULE
3khj_C64_B_1.pdb
 25 28 0 0 0
SMALL
GASTEIGER

@<TRIPOS>ATOM
      1  O         20.8530   26.4870   10.0030 O.2   901  C64901     -0.2711
      2  S         23.3100   21.8680    9.9980 S.2   901  C64901     -0.0621
      3 BR         17.9080   28.3200    4.0630 Br    901  C64901     -0.0490
      4  C1        21.3100   26.5700   13.6660 C.2   901  C64901     -0.0039
      5  N1        21.1950   24.6940   11.9940 N.pl3 901  C64901     -0.2501
      6  C2        19.6120   27.1520    7.6640 C.ar  901  C64901      0.0171
      7  N2        20.7360   22.3090   10.2210 N.ar  901  C64901     -0.2328
      8  C3        22.1510   27.1500   14.6180 C.3   901  C64901      0.0535
      9  N3        23.2780   23.8540   12.3960 N.2   901  C64901     -0.3833
     10  C4        18.7100   26.2030    8.1530 C.ar  901  C64901      0.0734
     11  N4        18.8940   25.5550    9.3360 N.am  901  C64901     -0.1778
     12  C5        19.3750   27.7840    6.4450 C.ar  901  C64901      0.0080
     13  C6        22.1230   23.7680   11.7040 C.2   901  C64901      0.2114
     14  C7        22.1850   20.9460    9.0370 C.ar  901  C64901      0.0576
     15  C8        21.9440   22.6930   10.6760 C.ar  901  C64901      0.1549
     16  C9        23.9110   25.5280   14.1740 C.2   901  C64901      0.0292
     17  C10       21.7460   25.4580   12.9470 C.2   901  C64901      0.0798
     18  C11       23.1080   24.9140   13.2150 C.2   901  C64901      0.1461
     19  C12       17.5720   25.8930    7.4120 C.ar  901  C64901      0.0171
     20  C13       19.9190   25.7190   10.1770 C.2   901  C64901      0.2662
     21  C14       23.4270   26.6380   14.8690 C.2   901  C64901     -0.0187
     22  C15       20.8710   21.3220    9.2950 C.ar  901  C64901      0.1066
     23  C16       17.3310   26.5220    6.1940 C.ar  901  C64901      0.0080
     24  C17       19.8580   24.8650   11.4210 C.3   901  C64901      0.1852
     25  C18       18.2340   27.4660    5.7140 C.ar  901  C64901      0.0347
@<TRIPOS>BOND
     1     3    25    1
     2    25    23   ar
     3    25    12   ar
     4    23    19   ar
     5    12     6   ar
     6    19    10   ar
     7     6    10   ar
     8    10    11    1
     9    14    22   ar
    10    14     2   ar
    11    22     7   ar
    12    11    20   am
    13     2    15   ar
    14     1    20    2
    15    20    24    1
    16     7    15   ar
    17    15    13    1
    18    24     5    1
    19    13     5    1
    20    13     9    2
    21     5    17    1
    22     9    18    2
    23    17    18    1
    24    17     4    2
    25    18    16    1
    26     4     8    1
    27    16    21    2
    28     8    21    1
