@<TRIPOS>MOLECULE
3khl_AF_E_1.pdb
 14 16 0 0 0
SMALL
GASTEIGER

@<TRIPOS>ATOM
      1  N          5.1500   -5.2670    5.2780 N.pl3 926  AF926      -0.1281
      2  C2         5.3620   -6.5910    4.8300 C.ar  926  AF926       0.0891
      3  C3         5.1830   -7.6710    5.7100 C.ar  926  AF926       0.0181
      4  C4         5.3970   -8.9830    5.2890 C.ar  926  AF926       0.0014
      5  C4A        5.8000   -9.2230    3.9610 C.ar  926  AF926      -0.0002
      6  C4B        6.1000  -10.4760    3.2370 C.2   926  AF926      -0.0037
      7  C5         6.0760  -11.8150    3.6640 C.2   926  AF926      -0.0006
      8  C6         6.4070  -12.8190    2.7660 C.2   926  AF926      -0.0042
      9  C7         6.7620  -12.5130    1.4560 C.2   926  AF926      -0.0214
     10  C8         6.7980  -11.1900    1.0330 C.3   926  AF926       0.0523
     11  C8A        6.4730  -10.1770    1.9190 C.2   926  AF926      -0.0178
     12  C9         6.4220   -8.6810    1.7520 C.2   926  AF926      -0.0039
     13  C9A        5.9870   -8.1430    3.0930 C.ar  926  AF926       0.0010
     14  C1         5.7640   -6.8490    3.5210 C.ar  926  AF926       0.0180
@<TRIPOS>BOND
     1    10     9    1
     2    10    11    1
     3     9     8    2
     4    12    11    2
     5    12    13    1
     6    11     6    1
     7     8     7    1
     8    13    14   ar
     9    13     5   ar
    10     6     7    2
    11     6     5    1
    12    14     2   ar
    13     5     4   ar
    14     2     1    1
    15     2     3   ar
    16     4     3   ar
