@<TRIPOS>MOLECULE
3khl_TTP_A_1.pdb
 29 30 0 0 0
SMALL
GASTEIGER

@<TRIPOS>ATOM
      1  PA        -1.2780    9.0270    3.7590 P.3   414  TTP414      0.2189
      2  O1A       -2.7240    9.3970    3.5140 O.3   414  TTP414     -0.4371
      3  O2A       -0.4300    8.8580    2.5330 O.2   414  TTP414     -0.5170
      4  O3A       -0.4740   10.1480    4.6140 O.3   414  TTP414     -0.2700
      5  PB        -1.0510   11.0980    5.7860 P.3   414  TTP414      0.2277
      6  O1B       -2.5060   10.9030    6.1160 O.2   414  TTP414     -0.5168
      7  O2B       -0.1340   10.9050    6.9820 O.3   414  TTP414     -0.4368
      8  O3B       -0.7910   12.5840    5.2580 O.3   414  TTP414     -0.2258
      9  PG        -1.6770   13.4120    4.2000 P.3   414  TTP414      0.5373
     10  O1G       -2.2880   14.6040    4.9030 O.3   414  TTP414     -0.1143
     11  O2G       -0.7820   13.9960    3.1520 O.2   414  TTP414     -0.2221
     12  O3G       -2.8320   12.6380    3.5980 O.3   414  TTP414     -0.1143
     13  O5'       -1.1700    7.7060    4.6780 O.3   414  TTP414     -0.3112
     14  C5'       -1.9880    7.5240    5.8290 C.3   414  TTP414      0.1812
     15  C4'       -1.2130    6.8850    6.9770 C.3   414  TTP414      0.1773
     16  O4'       -0.5580    5.6670    6.6090 O.3   414  TTP414     -0.3339
     17  C3'       -0.1080    7.7770    7.5070 C.3   414  TTP414      0.1857
     18  O3'       -0.6200    8.7070    8.4680 O.3   414  TTP414     -0.2203
     19  C2'        0.8730    6.7870    8.1160 C.3   414  TTP414      0.0874
     20  C1'        0.7330    5.5440    7.2200 C.3   414  TTP414      0.2090
     21  N1         1.8620    5.5780    6.2590 N.am  414  TTP414     -0.1794
     22  C2         3.0640    4.9260    6.6110 C.1   414  TTP414      0.2844
     23  O2         3.1460    4.3140    7.7110 O.2   414  TTP414     -0.1918
     24  N3         4.1320    4.9390    5.7980 N.2   414  TTP414     -0.2455
     25  C4         4.1090    5.5940    4.6220 C.1   414  TTP414      0.2134
     26  O4         5.1190    5.5800    3.8740 O.2   414  TTP414     -0.2088
     27  C5         2.8630    6.3100    4.2220 C.2   414  TTP414      0.0891
     28  C5M        2.7920    7.0330    2.9010 C.3   414  TTP414      0.0462
     29  C6         1.7670    6.2610    5.0880 C.2   414  TTP414      0.0877
@<TRIPOS>BOND
     1     3     1    2
     2    28    27    1
     3    11     9    2
     4     2     1    1
     5    12     9    1
     6     1     4    1
     7     1    13    1
     8    26    25    2
     9     9    10    1
    10     9     8    1
    11    27    25    1
    12    27    29    2
    13     4     5    1
    14    25    24    2
    15    13    14    1
    16    29    21    1
    17     8     5    1
    18     5     6    2
    19     5     7    1
    20    24    22    2
    21    14    15    1
    22    21    22   am
    23    21    20    1
    24    16    15    1
    25    16    20    1
    26    22    23    2
    27    15    17    1
    28    20    19    1
    29    17    19    1
    30    17    18    1
