@<TRIPOS>MOLECULE
3khm_HEM_A_1.pdb
 43 50 0 0 0
SMALL
GASTEIGER

@<TRIPOS>ATOM
      1  CHA        3.7900  -24.6480   23.5450 C.2   500  HEM500      0.0000
      2  CHB        8.2070  -23.5570   21.8560 C.2   500  HEM500      0.0000
      3  CHC        8.9330  -28.2500   20.8480 C.2   500  HEM500      0.0000
      4  CHD        4.2530  -29.1840   21.7670 C.2   500  HEM500      0.0000
      5  C1A        4.9050  -23.9430   23.1540 C.2   500  HEM500      0.0000
      6  C2A        5.0700  -22.5070   23.2250 C.2   500  HEM500      0.0000
      7  C3A        6.2840  -22.2070   22.7600 C.2   500  HEM500      0.0000
      8  C4A        6.9390  -23.4400   22.3770 C.2   500  HEM500      0.0000
      9  CMA        6.8870  -20.7900   22.6500 C.3   500  HEM500      0.0000
     10  CAA        4.0230  -21.5020   23.7450 C.3   500  HEM500      0.0000
     11  CBA        2.7810  -21.5590   22.8630 C.3   500  HEM500      0.0000
     12  CGA        1.8250  -20.4710   23.2770 C.2   500  HEM500      0.0000
     13  O1A        2.1190  -19.7610   24.2720 O.co2 500  HEM500      0.0000
     14  O2A        0.7700  -20.3150   22.6100 O.co2 500  HEM500      0.0000
     15  C1B        8.8080  -24.7340   21.4690 C.ar  500  HEM500      0.0000
     16  C2B       10.1700  -24.8860   20.9950 C.ar  500  HEM500      0.0000
     17  C3B       10.3690  -26.1780   20.7180 C.ar  500  HEM500      0.0000
     18  C4B        9.1420  -26.8970   21.0040 C.ar  500  HEM500      0.0000
     19  CMB       11.2080  -23.7520   20.8390 C.3   500  HEM500      0.0000
     20  CAB       11.6780  -26.7970   20.1840 C.2   500  HEM500      0.0000
     21  CBB       12.8590  -26.3720   20.6450 C.2   500  HEM500      0.0000
     22  C1C        7.7220  -28.9020   20.9600 C.2   500  HEM500      0.0000
     23  C2C        7.4550  -30.2860   20.6090 C.2   500  HEM500      0.0000
     24  C3C        6.1680  -30.5370   20.8640 C.2   500  HEM500      0.0000
     25  C4C        5.5680  -29.3270   21.3850 C.2   500  HEM500      0.0000
     26  CMC        8.4800  -31.2930   20.0410 C.3   500  HEM500      0.0000
     27  CAC        5.4370  -31.8790   20.6440 C.2   500  HEM500      0.0000
     28  CBC        6.1360  -33.0060   20.4810 C.2   500  HEM500      0.0000
     29  C1D        3.6770  -28.0580   22.3130 C.ar  500  HEM500      0.0000
     30  C2D        2.2850  -27.9250   22.6720 C.ar  500  HEM500      0.0000
     31  C3D        2.1370  -26.5080   23.2290 C.ar  500  HEM500      0.0000
     32  C4D        3.4570  -25.9250   23.1500 C.ar  500  HEM500      0.0000
     33  CMD        1.1800  -28.9920   22.5230 C.3   500  HEM500      0.0000
     34  CAD        0.8490  -25.8380   23.7610 C.3   500  HEM500      0.0000
     35  CBD        0.3240  -26.6150   24.9630 C.3   500  HEM500      0.0000
     36  CGD       -0.2090  -25.6540   25.9940 C.2   500  HEM500      0.0000
     37  O1D        0.0070  -25.8960   27.2100 O.co2 500  HEM500      0.0000
     38  O2D       -0.8500  -24.6480   25.5990 O.co2 500  HEM500      0.0000
     39  NA         6.0630  -24.4800   22.6280 N.2   500  HEM500      0.0000
     40  NB         8.2110  -25.9830   21.4590 N.ar  500  HEM500      0.0000
     41  NC         6.5430  -28.3490   21.4270 N.2   500  HEM500      0.0000
     42  ND         4.3320  -26.8620   22.6060 N.ar  500  HEM500      0.0000
     43 FE          6.3060  -26.4310   22.0760 Fe    500  HEM500      0.0000
@<TRIPOS>BOND
     1    26    23    1
     2    20    21    2
     3    20    17    1
     4    28    27    2
     5    23    24    2
     6    23    22    1
     7    27    24    1
     8    17    16   ar
     9    17    18   ar
    10    19    16    1
    11     3    22    2
    12     3    18    1
    13    24    25    1
    14    22    41    1
    15    16    15   ar
    16    18    40   ar
    17    25    41    2
    18    25     4    1
    19    41    43    1
    20    40    15   ar
    21    40    43    1
    22    15     2    1
    23     4    29    2
    24     2     8    2
    25    43    42    1
    26    43    39    1
    27    29    42   ar
    28    29    30   ar
    29     8    39    1
    30     8     7    1
    31    33    30    1
    32    42    32   ar
    33    14    12   ar
    34    39     5    2
    35     9     7    1
    36    30    31   ar
    37     7     6    2
    38    11    12    1
    39    11    10    1
    40    32    31   ar
    41    32     1    2
    42     5     6    1
    43     5     1    1
    44     6    10    1
    45    31    34    1
    46    12    13   ar
    47    34    35    1
    48    35    36    1
    49    38    36   ar
    50    36    37   ar
