@<TRIPOS>MOLECULE
3khm_TPF_A_1.pdb
 22 24 0 0 0
SMALL
GASTEIGER

@<TRIPOS>ATOM
      1  O          1.5950  -22.6060   19.0560 O.3   501  TPF501     -0.2169
      2  C1         2.2770  -23.7030   18.4410 C.3   501  TPF501      0.1922
      3  C2         2.2700  -23.5370   16.9240 C.3   501  TPF501      0.1658
      4  C5         3.7080  -23.7570   18.9630 C.3   501  TPF501      0.1658
      5  C8         1.5770  -24.9800   18.7970 C.ar  501  TPF501      0.0365
      6  N1         1.6160  -22.2780   16.5390 N.ar  501  TPF501     -0.2271
      7  C3         1.6580  -21.3300   17.6320 C.ar  501  TPF501      0.1973
      8  N3         2.3280  -21.6880   15.4810 N.ar  501  TPF501     -0.1451
      9  N2         2.3590  -20.2610   17.1900 N.ar  501  TPF501     -0.2007
     10  C4         2.7600  -20.4770   15.9090 C.ar  501  TPF501      0.2210
     11  N4         4.2500  -25.1010   18.7320 N.ar  501  TPF501     -0.2271
     12  C6         4.5320  -25.7430   19.9970 C.ar  501  TPF501      0.1973
     13  N6         5.4730  -25.0180   18.0470 N.ar  501  TPF501     -0.1451
     14  N5         5.8550  -26.0140   20.0010 N.ar  501  TPF501     -0.2007
     15  C7         6.4140  -25.5830   18.8400 C.ar  501  TPF501      0.2210
     16  C9         0.8230  -25.0620   19.9620 C.ar  501  TPF501      0.0027
     17  C13        1.6860  -26.0800   17.9640 C.ar  501  TPF501      0.1408
     18  C10        0.1750  -26.2480   20.2880 C.ar  501  TPF501      0.0295
     19  C11        0.2850  -27.3520   19.4500 C.ar  501  TPF501      0.1424
     20  F1        -0.3390  -28.5020   19.7640 F     501  TPF501     -0.2041
     21  C12        1.0410  -27.2680   18.2880 C.ar  501  TPF501      0.0590
     22  F2         2.4170  -25.9960   16.8400 F     501  TPF501     -0.2043
@<TRIPOS>BOND
     1     8    10   ar
     2     8     6   ar
     3    10     9   ar
     4     6     3    1
     5     6     7   ar
     6    22    17    1
     7     3     2    1
     8     9     7   ar
     9    17    21   ar
    10    17     5   ar
    11    13    11   ar
    12    13    15   ar
    13    21    19   ar
    14     2     5    1
    15     2     4    1
    16     2     1    1
    17    11     4    1
    18    11    12   ar
    19     5    16   ar
    20    15    14   ar
    21    19    20    1
    22    19    18   ar
    23    16    18   ar
    24    12    14   ar
