@<TRIPOS>MOLECULE
3khr_AF_E_1.pdb
 14 16 0 0 0
SMALL
GASTEIGER

@<TRIPOS>ATOM
      1  N          4.9030   -4.9560    5.5490 N.pl3 926  AF926      -0.1281
      2  C2         5.2250   -6.2240    5.0710 C.ar  926  AF926       0.0891
      3  C3         5.1300   -7.2990    5.9640 C.ar  926  AF926       0.0181
      4  C4         5.4300   -8.5650    5.5540 C.ar  926  AF926       0.0014
      5  C4A        5.8130   -8.7800    4.2230 C.ar  926  AF926      -0.0002
      6  C4B        6.1900  -10.0290    3.5360 C.2   926  AF926      -0.0037
      7  C5         6.2530  -11.3450    4.0180 C.2   926  AF926      -0.0006
      8  C6         6.6310  -12.3590    3.1530 C.2   926  AF926      -0.0042
      9  C7         6.9250  -12.0810    1.8300 C.2   926  AF926      -0.0214
     10  C8         6.8780  -10.7730    1.3550 C.3   926  AF926       0.0523
     11  C8A        6.5080   -9.7560    2.2050 C.2   926  AF926      -0.0178
     12  C9         6.3460   -8.2700    1.9900 C.2   926  AF926      -0.0039
     13  C9A        5.9070   -7.7180    3.3280 C.ar  926  AF926       0.0010
     14  C1         5.5940   -6.4380    3.7490 C.ar  926  AF926       0.0180
@<TRIPOS>BOND
     1    10     9    1
     2    10    11    1
     3     9     8    2
     4    12    11    2
     5    12    13    1
     6    11     6    1
     7     8     7    1
     8    13    14   ar
     9    13     5   ar
    10     6     7    2
    11     6     5    1
    12    14     2   ar
    13     5     4   ar
    14     2     1    1
    15     2     3   ar
    16     4     3   ar
