@<TRIPOS>MOLECULE
3khr_TTP_A_1.pdb
 29 30 0 0 0
SMALL
GASTEIGER

@<TRIPOS>ATOM
      1  PA        -1.2590    9.2200    3.8360 P.3   414  TTP414      0.2189
      2  O1A       -2.7240    9.4720    3.5510 O.3   414  TTP414     -0.4371
      3  O2A       -0.3740    9.0370    2.6460 O.2   414  TTP414     -0.5170
      4  O3A       -0.5060   10.3680    4.6830 O.3   414  TTP414     -0.2700
      5  PB        -1.1170   11.2630    5.8680 P.3   414  TTP414      0.2277
      6  O1B       -2.5700   11.0200    6.1980 O.2   414  TTP414     -0.5168
      7  O2B       -0.1890   11.1660    7.0470 O.3   414  TTP414     -0.4368
      8  O3B       -0.8630   12.7280    5.2690 O.3   414  TTP414     -0.2258
      9  PG        -1.7850   13.5270    4.2260 P.3   414  TTP414      0.5373
     10  O1G       -2.4100   14.7260    4.8870 O.3   414  TTP414     -0.1143
     11  O2G       -0.8420   14.1210    3.2290 O.2   414  TTP414     -0.2221
     12  O3G       -2.8580   12.6790    3.6140 O.3   414  TTP414     -0.1143
     13  O5'       -1.0330    7.9400    4.7680 O.3   414  TTP414     -0.3112
     14  C5'       -1.9520    7.6370    5.8260 C.3   414  TTP414      0.1812
     15  C4'       -1.1850    7.0440    6.9830 C.3   414  TTP414      0.1773
     16  O4'       -0.5070    5.8440    6.5890 O.3   414  TTP414     -0.3339
     17  C3'       -0.1110    7.9890    7.5120 C.3   414  TTP414      0.1857
     18  O3'       -0.6390    8.9390    8.4520 O.3   414  TTP414     -0.2203
     19  C2'        0.8920    7.0150    8.1390 C.3   414  TTP414      0.0874
     20  C1'        0.7430    5.7470    7.2750 C.3   414  TTP414      0.2090
     21  N1         1.8600    5.7200    6.3130 N.am  414  TTP414     -0.1794
     22  C2         3.0020    4.9330    6.5980 C.1   414  TTP414      0.2844
     23  O2         3.0570    4.2750    7.6680 O.2   414  TTP414     -0.1918
     24  N3         4.0330    4.9030    5.7400 N.2   414  TTP414     -0.2455
     25  C4         4.0260    5.6140    4.5950 C.1   414  TTP414      0.2134
     26  O4         4.9970    5.5680    3.8200 O.2   414  TTP414     -0.2088
     27  C5         2.8400    6.4390    4.2650 C.2   414  TTP414      0.0891
     28  C5M        2.7490    7.2530    3.0010 C.3   414  TTP414      0.0462
     29  C6         1.7910    6.4360    5.1760 C.2   414  TTP414      0.0877
@<TRIPOS>BOND
     1     3     1    2
     2    28    27    1
     3    11     9    2
     4     2     1    1
     5    12     9    1
     6    26    25    2
     7     1     4    1
     8     1    13    1
     9     9    10    1
    10     9     8    1
    11    27    25    1
    12    27    29    2
    13    25    24    2
    14     4     5    1
    15    13    14    1
    16    29    21    1
    17     8     5    1
    18    24    22    2
    19    14    15    1
    20     5     6    2
    21     5     7    1
    22    21    22   am
    23    21    20    1
    24    16    15    1
    25    16    20    1
    26    22    23    2
    27    15    17    1
    28    20    19    1
    29    17    19    1
    30    17    18    1
