@<TRIPOS>MOLECULE
3khu_UPG_A_1.pdb
 36 38 0 0 0
SMALL
GASTEIGER

@<TRIPOS>ATOM
      1  N1       -39.6770  -32.4530   10.0300 N.am  501  UPG501     -0.1766
      2  C2       -38.3460  -32.3760    9.6420 C.1   501  UPG501      0.2845
      3  N3       -37.8200  -31.2070    9.0850 N.2   501  UPG501     -0.2452
      4  C4       -38.6250  -30.0990    8.8890 C.1   501  UPG501      0.2182
      5  C5       -39.9680  -30.1920    9.2850 C.2   501  UPG501      0.1242
      6  C6       -40.4770  -31.3360    9.8470 C.2   501  UPG501      0.0929
      7  O2       -37.6200  -33.3440    9.8070 O.2   501  UPG501     -0.1918
      8  O4       -38.1480  -29.0780    8.3510 O.2   501  UPG501     -0.2085
      9  C1C      -40.2020  -33.7110   10.6370 C.3   501  UPG501      0.2401
     10  C2C      -40.6510  -33.5200   12.0670 C.3   501  UPG501      0.2319
     11  O2C      -39.4930  -33.4710   12.9050 O.3   501  UPG501     -0.2157
     12  C3C      -41.5680  -34.7430   12.2350 C.3   501  UPG501      0.2158
     13  C4C      -42.3070  -34.7430   10.9040 C.3   501  UPG501      0.1799
     14  O4C      -41.4230  -34.0790    9.9380 O.3   501  UPG501     -0.3320
     15  O3C      -40.8440  -35.9660   12.3170 O.3   501  UPG501     -0.2175
     16  C5C      -43.6410  -34.0280   10.9110 C.3   501  UPG501      0.1813
     17  O5C      -43.6940  -32.8430   11.7590 O.3   501  UPG501     -0.3112
     18  PA       -44.9690  -31.8880   11.5990 P.3   501  UPG501      0.2189
     19  O1A      -44.6660  -30.6330   12.3190 O.3   501  UPG501     -0.4371
     20  O2A      -45.3630  -31.8930   10.1480 O.2   501  UPG501     -0.5170
     21  O3A      -46.0790  -32.5700   12.4430 O.3   501  UPG501     -0.2703
     22  PB       -47.2810  -33.6060   12.2160 P.3   501  UPG501      0.2208
     23  O1B      -47.6790  -33.5960   13.5910 O.3   501  UPG501     -0.4371
     24  O2B      -46.8940  -34.8960   11.5690 O.2   501  UPG501     -0.5170
     25  O3B      -48.3330  -32.8620   11.3070 O.3   501  UPG501     -0.2857
     26  C1'      -48.3960  -33.1990    9.9050 C.3   501  UPG501      0.2742
     27  C2'      -48.7090  -31.9160    9.1670 C.3   501  UPG501      0.2409
     28  C3'      -50.1420  -31.4320    9.4700 C.3   501  UPG501      0.2198
     29  C4'      -51.1380  -32.5690    9.1970 C.3   501  UPG501      0.2144
     30  C5'      -50.7060  -33.7900   10.0250 C.3   501  UPG501      0.1835
     31  C6'      -51.7400  -34.9640    9.9030 C.3   501  UPG501      0.2142
     32  O2'      -47.7650  -30.9460    9.5920 O.3   501  UPG501     -0.2149
     33  O3'      -50.4070  -30.3290    8.5840 O.3   501  UPG501     -0.2174
     34  O4'      -52.4730  -32.1420    9.5500 O.3   501  UPG501     -0.2176
     35  O5'      -49.3520  -34.2080    9.5970 O.3   501  UPG501     -0.3254
     36  O6'      -52.0260  -35.2730    8.5420 O.3   501  UPG501     -0.2176
@<TRIPOS>BOND
     1     8     4    2
     2    36    31    1
     3    33    28    1
     4     4     3    2
     5     4     5    1
     6     3     2    2
     7    27    28    1
     8    27    32    1
     9    27    26    1
    10    29    28    1
    11    29    34    1
    12    29    30    1
    13     5     6    2
    14    35    26    1
    15    35    30    1
    16     2     7    2
    17     2     1   am
    18     6     1    1
    19    31    30    1
    20    26    25    1
    21    14     9    1
    22    14    13    1
    23     1     9    1
    24    20    18    2
    25     9    10    1
    26    13    16    1
    27    13    12    1
    28    16    17    1
    29    25    22    1
    30    24    22    2
    31    18    17    1
    32    18    19    1
    33    18    21    1
    34    10    12    1
    35    10    11    1
    36    22    21    1
    37    22    23    1
    38    12    15    1
