@<TRIPOS>MOLECULE
3khv_4AL_A_1.pdb
 10 10 0 0 0
SMALL
GASTEIGER

@<TRIPOS>ATOM
      1  C        -31.8330   89.8330  -10.8480 C.3   4069  4AL4069     0.2086
      2  N        -27.0910   85.9170  -12.6690 N.3   4069  4AL4069    -0.1262
      3  O        -31.8060   90.4570  -11.9290 O.3   4069  4AL4069    -0.2152
      4  C1       -30.7840   88.9910  -11.1730 C.ar  4069  4AL4069     0.0106
      5  C2       -30.0510   88.5180  -10.1830 C.ar  4069  4AL4069    -0.0020
      6  C3       -29.0160   87.7450  -10.2350 C.ar  4069  4AL4069    -0.0031
      7  C4       -28.6230   87.4110  -11.4140 C.ar  4069  4AL4069    -0.0032
      8  C5       -29.3270   87.8610  -12.4710 C.ar  4069  4AL4069    -0.0031
      9  C6       -30.3950   88.6880  -12.4000 C.ar  4069  4AL4069    -0.0020
     10  C7       -27.4590   86.4960  -11.4890 C.3   4069  4AL4069     0.1356
@<TRIPOS>BOND
     1     2    10    1
     2     8     9   ar
     3     8     7   ar
     4     9     4   ar
     5     3     1    1
     6    10     7    1
     7     7     6   ar
     8     4     1    1
     9     4     5   ar
    10     6     5   ar
