@<TRIPOS>MOLECULE
3kia_5GP_A_1.pdb
 24 26 0 0 0
SMALL
GASTEIGER

@<TRIPOS>ATOM
      1  P         42.0990  -22.9870   -4.8140 P.3   336  5GP336      0.5327
      2  O1P       40.9940  -23.2020   -5.8830 O.2   336  5GP336     -0.2224
      3  O2P       42.7360  -24.3330   -4.4230 O.3   336  5GP336     -0.1145
      4  O3P       41.5210  -22.3010   -3.5660 O.3   336  5GP336     -0.1145
      5  O5'       43.2690  -22.0310   -5.3290 O.3   336  5GP336     -0.2675
      6  C5'       44.6390  -22.3710   -5.1440 C.3   336  5GP336      0.1859
      7  C4'       45.5120  -21.7770   -6.2280 C.3   336  5GP336      0.1801
      8  O4'       45.6820  -22.7520   -7.2980 O.3   336  5GP336     -0.3326
      9  C3'       44.9550  -20.5260   -6.9010 C.3   336  5GP336      0.2158
     10  O3'       46.0390  -19.6940   -7.3080 O.3   336  5GP336     -0.2175
     11  C2'       44.2910  -21.0970   -8.1100 C.3   336  5GP336      0.2310
     12  O2'       43.9340  -20.2730   -9.1460 O.3   336  5GP336     -0.2158
     13  C1'       45.0770  -22.2730   -8.4450 C.3   336  5GP336      0.2293
     14  N9        44.4600  -23.3140   -9.2090 N.pl3 336  5GP336     -0.2354
     15  C8        43.3240  -23.8880   -8.9170 C.3   336  5GP336      0.2246
     16  N7        43.0010  -24.8420   -9.7930 N.2   336  5GP336     -0.2322
     17  C5        44.0310  -24.8340  -10.6680 C.2   336  5GP336      0.2182
     18  C6        44.2600  -25.6380  -11.8510 C.1   336  5GP336      0.2372
     19  O6        43.4680  -26.4890  -12.2010 O.2   336  5GP336     -0.2069
     20  N1        45.4700  -25.4110  -12.6140 N.2   336  5GP336     -0.2485
     21  C2        46.4190  -24.3590  -12.1630 C.1   336  5GP336      0.2531
     22  N2        47.6320  -24.1250  -12.9220 N.pl3 336  5GP336     -0.0226
     23  N3        46.1410  -23.6520  -11.0540 N.2   336  5GP336     -0.3074
     24  C4        44.9480  -23.9370  -10.3620 C.2   336  5GP336      0.2300
@<TRIPOS>BOND
     1    22    21    1
     2    20    21    2
     3    20    18    2
     4    19    18    2
     5    21    23    2
     6    18    17    1
     7    23    24    2
     8    17    24    1
     9    17    16    2
    10    24    14    1
    11    16    15    1
    12    14    15    1
    13    14    13    1
    14    12    11    1
    15    13    11    1
    16    13     8    1
    17    11     9    1
    18    10     9    1
    19     8     7    1
    20     9     7    1
    21     7     6    1
    22     2     1    2
    23     5     6    1
    24     5     1    1
    25     1     3    1
    26     1     4    1
