@<TRIPOS>MOLECULE
3kic_D5M_A_1.pdb
 22 24 0 0 0
SMALL
GASTEIGER

@<TRIPOS>ATOM
      1  O5'       -7.3170  -91.9940   28.6610 O.3   999  D5M999     -0.2675
      2  C5'       -6.4110  -90.9260   28.9580 C.3   999  D5M999      0.1859
      3  C4'       -5.5380  -91.2320   30.1550 C.3   999  D5M999      0.1796
      4  O4'       -4.6770  -92.3610   29.9300 O.3   999  D5M999     -0.3155
      5  C3'       -4.6580  -90.0350   30.4860 C.3   999  D5M999      0.1883
      6  O3'       -4.9250  -89.5080   31.7930 O.3   999  D5M999     -0.2202
      7  C2'       -3.2330  -90.5510   30.3940 C.3   999  D5M999      0.1151
      8  C1'       -3.3580  -92.0660   30.4350 C.3   999  D5M999      0.2873
      9  N9        -2.2850  -92.7230   29.6350 N.pl3 999  D5M999     -0.1460
     10  C8        -1.3250  -93.5000   30.1600 C.3   999  D5M999      0.3377
     11  N7        -0.4630  -93.9440   29.2180 N.2   999  D5M999     -0.2095
     12  C5        -0.8640  -93.4300   28.0400 C.2   999  D5M999      0.2526
     13  C6        -0.3960  -93.5020   26.6360 C.2   999  D5M999      0.4393
     14  N6         0.6990  -94.2320   26.3060 N.pl3 999  D5M999      0.2180
     15  N1        -1.1010  -92.8150   25.7110 N.2   999  D5M999      0.0021
     16  C2        -2.1860  -92.0900   26.0310 C.3   999  D5M999      0.5254
     17  N3        -2.6660  -91.9820   27.2850 N.2   999  D5M999     -0.0055
     18  C4        -2.0560  -92.6090   28.3220 C.2   999  D5M999      0.3518
     19  P         -8.4010  -91.8390   27.4800 P.3   999  D5M999      0.5327
     20  O1P       -7.6280  -91.2260   26.3240 O.2   999  D5M999     -0.2224
     21  O3P       -9.4630  -90.9160   28.0560 O.3   999  D5M999     -0.1145
     22  O2P       -8.8780  -93.2550   27.2340 O.3   999  D5M999     -0.1145
@<TRIPOS>BOND
     1    15    16    1
     2    15    13    2
     3    16    17    1
     4    14    13    1
     5    20    19    2
     6    13    12    1
     7    22    19    1
     8    17    18    2
     9    19    21    1
    10    19     1    1
    11    12    18    1
    12    12    11    2
    13    18     9    1
    14     1     2    1
    15     2     3    1
    16    11    10    1
    17     9    10    1
    18     9     8    1
    19     4     3    1
    20     4     8    1
    21     3     5    1
    22     7     8    1
    23     7     5    1
    24     5     6    1
