@<TRIPOS>MOLECULE
3kid_2BS_U_1.pdb
 15 16 0 0 0
SMALL
GASTEIGER

@<TRIPOS>ATOM
      1  C1        -0.6840  -30.6190  -12.3300 C.2     1  2BS1        0.3409
      2  S1        -0.8810  -34.3990   -8.7520 S.3     1  2BS1       -0.0348
      3  C2        -0.1700  -28.9330  -10.5130 C.3     1  2BS1        0.2089
      4  N2        -0.9760  -36.1120  -10.7520 N.2     1  2BS1       -0.3810
      5  O2        -1.1110  -29.6180  -11.3350 O.3     1  2BS1       -0.4454
      6  C3        -0.7250  -28.8460   -9.1220 C.3     1  2BS1        0.0513
      7  C4        -0.7650  -32.0800  -11.9900 C.2     1  2BS1        0.0724
      8  C5        -0.7800  -32.4530  -10.6270 C.2     1  2BS1        0.0150
      9  C6        -0.8550  -33.8050  -10.3000 C.2     1  2BS1        0.0591
     10  C7        -0.9620  -36.0120   -9.3870 C.2     1  2BS1        0.2498
     11  C8        -0.9150  -34.8820  -11.3580 C.2     1  2BS1        0.1217
     12  C9        -0.9000  -34.4690  -12.7180 C.3     1  2BS1        0.0857
     13  O01       -0.2760  -30.2490  -13.4280 O.2     1  2BS1       -0.2449
     14  N02       -1.0030  -37.1030   -8.5830 N.pl3   1  2BS1       -0.0864
     15  C10       -0.8260  -33.0750  -13.0260 C.2     1  2BS1       -0.0122
@<TRIPOS>BOND
     1    13     1    2
     2    15    12    1
     3    15     7    2
     4    12    11    1
     5     1     7    1
     6     1     5    1
     7     7     8    1
     8    11     4    2
     9    11     9    1
    10     5     3    1
    11     4    10    2
    12     8     9    2
    13     3     6    1
    14     9     2    1
    15    10     2    1
    16    10    14    1
