@<TRIPOS>MOLECULE
3kie_D5M_A_1.pdb
 22 24 0 0 0
SMALL
GASTEIGER

@<TRIPOS>ATOM
      1  O5'       -7.3480  -92.3150   29.3160 O.3   999  D5M999     -0.2675
      2  C5'       -6.5180  -91.1910   29.6280 C.3   999  D5M999      0.1859
      3  C4'       -5.5730  -91.5170   30.7750 C.3   999  D5M999      0.1796
      4  O4'       -4.6900  -92.5820   30.3880 O.3   999  D5M999     -0.3155
      5  C3'       -4.6940  -90.3210   31.1400 C.3   999  D5M999      0.1883
      6  O3'       -4.9920  -89.8870   32.4680 O.3   999  D5M999     -0.2202
      7  C2'       -3.2700  -90.8350   31.0620 C.3   999  D5M999      0.1151
      8  C1'       -3.4050  -92.3430   30.9650 C.3   999  D5M999      0.2873
      9  N9        -2.3250  -92.9540   30.1450 N.pl3 999  D5M999     -0.1460
     10  C8        -1.3640  -93.7520   30.6490 C.3   999  D5M999      0.3377
     11  N7        -0.4880  -94.1500   29.6920 N.2   999  D5M999     -0.2095
     12  C5        -0.8770  -93.5880   28.5370 C.2   999  D5M999      0.2526
     13  C6        -0.3830  -93.6030   27.1400 C.2   999  D5M999      0.4393
     14  N6         0.7210  -94.3160   26.8030 N.pl3 999  D5M999      0.2180
     15  N1        -1.0710  -92.8830   26.2240 N.2   999  D5M999      0.0021
     16  C2        -2.1670  -92.1790   26.5710 C.3   999  D5M999      0.5254
     17  N3        -2.6710  -92.1230   27.8210 N.2   999  D5M999     -0.0055
     18  C4        -2.0770  -92.7870   28.8390 C.2   999  D5M999      0.3518
     19  P         -8.4880  -92.1820   28.1950 P.3   999  D5M999      0.5327
     20  O1P       -7.7550  -91.6040   26.9910 O.2   999  D5M999     -0.2224
     21  O3P       -9.5050  -91.2340   28.8070 O.3   999  D5M999     -0.1145
     22  O2P       -8.9860  -93.5950   28.0080 O.3   999  D5M999     -0.1145
@<TRIPOS>BOND
     1    15    16    1
     2    15    13    2
     3    16    17    1
     4    14    13    1
     5    20    19    2
     6    13    12    1
     7    17    18    2
     8    22    19    1
     9    19    21    1
    10    19     1    1
    11    12    18    1
    12    12    11    2
    13    18     9    1
    14     1     2    1
    15     2     3    1
    16    11    10    1
    17     9    10    1
    18     9     8    1
    19     4     3    1
    20     4     8    1
    21     3     5    1
    22     8     7    1
    23     7     5    1
    24     5     6    1
