@<TRIPOS>MOLECULE
3kif_GDL_A_1.pdb
 15 15 0 0 0
SMALL
GASTEIGER

@<TRIPOS>ATOM
      1  C1       -76.1380  -13.2960  -21.1450 C.2   110  GDL110      0.3397
      2  C2       -75.2460  -12.1540  -20.7380 C.3   110  GDL110      0.2261
      3  C3       -75.1020  -11.3610  -22.0190 C.3   110  GDL110      0.2164
      4  C4       -74.6130  -12.2360  -23.1780 C.3   110  GDL110      0.2267
      5  C5       -75.6440  -13.3070  -23.5060 C.3   110  GDL110      0.2343
      6  C6       -75.2320  -14.3500  -24.5340 C.3   110  GDL110      0.2281
      7  C7       -75.7950  -11.1830  -18.5470 C.2   110  GDL110      0.2424
      8  C8       -76.7260  -10.1890  -17.9210 C.3   110  GDL110      0.0964
      9  N1       -75.9710  -11.2720  -19.8520 N.am  110  GDL110     -0.1930
     10  O1       -77.1550  -13.5980  -20.5520 O.2   110  GDL110     -0.2481
     11  O3       -74.2500  -10.2350  -21.8150 O.3   110  GDL110     -0.2178
     12  O4       -74.4520  -11.3560  -24.2590 O.3   110  GDL110     -0.2163
     13  O5       -75.7990  -14.0790  -22.3050 O.3   110  GDL110     -0.4455
     14  O6       -74.9060  -15.5150  -23.7180 O.3   110  GDL110     -0.2163
     15  O7       -74.9770  -11.8120  -17.9030 O.2   110  GDL110     -0.2733
@<TRIPOS>BOND
     1     6    14    1
     2     6     5    1
     3    12     4    1
     4     5     4    1
     5     5    13    1
     6     4     3    1
     7    13     1    1
     8     3    11    1
     9     3     2    1
    10     1     2    1
    11     1    10    2
    12     2     9    1
    13     9     7   am
    14     7     8    1
    15     7    15    2
