@<TRIPOS>MOLECULE
3kig_DA9_A_1.pdb
 10 9 0 0 0
SMALL
GASTEIGER

@<TRIPOS>ATOM
      1  N1        26.3950   -3.1070    2.6630 N.3   503  DA9503     -0.0186
      2  N2        26.8190   -3.7060    3.7980 N.3   503  DA9503     -0.1026
      3  C3        27.8560   -3.0970    4.5940 C.3   503  DA9503      0.1971
      4  C4        27.2550   -2.6910    5.9210 C.2   503  DA9503      0.2609
      5  O5        27.5690   -3.4350    6.9030 O.2   503  DA9503     -0.2717
      6  N6        26.1180   -1.9680    5.8470 N.am  503  DA9503     -0.2032
      7  C7        25.5200   -1.3710    7.0250 C.3   503  DA9503      0.1277
      8  C8        24.2500   -2.1520    7.4800 C.3   503  DA9503      0.0920
      9  S9        23.5910   -1.2960    8.9460 S.3   503  DA9503     -0.0802
     10  N10       26.8910   -3.6000    1.3860 N.3   503  DA9503     -0.0014
@<TRIPOS>BOND
     1    10     1    1
     2     1     2    1
     3     2     3    1
     4     3     4    1
     5     6     4   am
     6     6     7    1
     7     4     5    2
     8     7     8    1
     9     8     9    1
