@<TRIPOS>MOLECULE
3kig_DA4_A_1.pdb
 12 12 0 0 0
SMALL
GASTEIGER

@<TRIPOS>ATOM
      1  N1        15.8080    1.4990   16.2230 N.3   504  DA4504      0.0392
      2  S2        15.2820    2.9280   16.8670 S.O2  504  DA4504      0.0935
      3  O3        15.8590    3.0520   18.1970 O.2   504  DA4504     -0.1503
      4  O4        13.8550    3.0030   16.7950 O.2   504  DA4504     -0.1503
      5  C5        15.9590    4.2240   15.8500 C.ar  504  DA4504      0.1257
      6  C6        15.1460    5.1790   15.2430 C.ar  504  DA4504      0.0283
      7  C7        15.7450    6.1760   14.4620 C.ar  504  DA4504      0.0439
      8  C8        17.1350    6.1760   14.3050 C.ar  504  DA4504      0.0083
      9  C9        17.9370    5.2070   14.9250 C.ar  504  DA4504      0.0020
     10  C10       17.3450    4.2040   15.6990 C.ar  504  DA4504      0.0200
     11  C11       14.9940    7.2200   13.7900 C.1   504  DA4504     -0.0512
     12  C12       14.7920    8.1910   13.0770 C.1   504  DA4504     -0.0092
@<TRIPOS>BOND
     1    12    11    3
     2    11     7    1
     3     8     7   ar
     4     8     9   ar
     5     7     6   ar
     6     9    10   ar
     7     6     5   ar
     8    10     5   ar
     9     5     2    1
    10     1     2    1
    11     4     2    2
    12     2     3    2
