@<TRIPOS>MOLECULE
3kih_GDL_A_1.pdb
 15 15 0 0 0
SMALL
GASTEIGER

@<TRIPOS>ATOM
      1  C1        -6.8830  -47.3610   30.7250 C.2    98  GDL98       0.3397
      2  C2        -5.7600  -46.4190   30.3970 C.3    98  GDL98       0.2261
      3  C3        -5.0670  -47.1140   29.2240 C.3    98  GDL98       0.2164
      4  C4        -4.6130  -48.5180   29.6670 C.3    98  GDL98       0.2267
      5  C5        -5.7160  -49.3670   30.3010 C.3    98  GDL98       0.2343
      6  C6        -5.1470  -50.6300   30.9470 C.3    98  GDL98       0.2281
      7  C7        -6.2880  -44.0860   31.0040 C.2    98  GDL98       0.2424
      8  C8        -6.8540  -42.7870   30.5070 C.3    98  GDL98       0.0964
      9  N1        -6.2510  -45.0760   30.0870 N.am   98  GDL98      -0.1930
     10  O1        -8.0560  -47.1030   30.5110 O.2    98  GDL98      -0.2481
     11  O3        -3.9360  -46.3880   28.7340 O.3    98  GDL98      -0.2178
     12  O4        -4.1450  -49.2500   28.5320 O.3    98  GDL98      -0.2163
     13  O5        -6.5020  -48.6500   31.2650 O.3    98  GDL98      -0.4455
     14  O6        -6.2440  -51.3260   31.5710 O.3    98  GDL98      -0.2163
     15  O7        -5.8970  -44.1970   32.1670 O.2    98  GDL98      -0.2733
@<TRIPOS>BOND
     1    12     4    1
     2    11     3    1
     3     3     4    1
     4     3     2    1
     5     4     5    1
     6     9     2    1
     7     9     7   am
     8     5     6    1
     9     5    13    1
    10     2     1    1
    11     8     7    1
    12    10     1    2
    13     1    13    1
    14     6    14    1
    15     7    15    2
