@<TRIPOS>MOLECULE
3kin_ADP_A_1.pdb
 27 29 0 0 0
SMALL
GASTEIGER

@<TRIPOS>ATOM
      1  PB         1.2040   39.3450   81.3450 P.3   401  ADP401      0.5373
      2  O1B       -0.1330   38.7850   81.7010 O.3   401  ADP401     -0.1143
      3  O2B        2.2050   38.5420   82.0330 O.3   401  ADP401     -0.1143
      4  O3B        1.4250   40.8520   81.3690 O.2   401  ADP401     -0.2221
      5  PA         2.5300   38.9910   78.7740 P.3   401  ADP401      0.2231
      6  O1A        3.4100   37.8550   79.1670 O.3   401  ADP401     -0.4370
      7  O2A        3.4370   40.2110   78.7550 O.2   401  ADP401     -0.5169
      8  O3A        1.2250   39.0160   79.6890 O.3   401  ADP401     -0.2261
      9  O5'        2.0600   38.6030   77.3110 O.3   401  ADP401     -0.3111
     10  C5'        3.0760   38.6060   76.2600 C.3   401  ADP401      0.1813
     11  C4'        3.7840   37.2330   76.4800 C.3   401  ADP401      0.1821
     12  O4'        4.6610   36.9280   75.3980 O.3   401  ADP401     -0.3135
     13  C3'        2.6570   36.1710   76.5290 C.3   401  ADP401      0.2184
     14  O3'        2.6260   35.6750   77.9050 O.3   401  ADP401     -0.2174
     15  C2'        3.2070   35.0170   75.5570 C.3   401  ADP401      0.2570
     16  O2'        3.6000   33.7140   76.0530 O.3   401  ADP401     -0.2130
     17  C1'        4.3130   35.6870   74.7520 C.3   401  ADP401      0.3186
     18  N9         4.3750   35.9920   73.3040 N.pl3 401  ADP401     -0.1439
     19  C8         4.7350   37.2130   72.7910 C.3   401  ADP401      0.3377
     20  N7         4.9260   37.2470   71.4850 N.2   401  ADP401     -0.2095
     21  C5         4.6730   35.9250   71.1280 C.2   401  ADP401      0.2526
     22  C6         4.7150   35.2870   69.8340 C.2   401  ADP401      0.4393
     23  N6         5.0200   35.9770   68.7320 N.pl3 401  ADP401      0.2180
     24  N1         4.4280   33.9820   69.8610 N.2   401  ADP401      0.0021
     25  C2         4.1200   33.3010   70.9800 C.3   401  ADP401      0.5254
     26  N3         4.0590   33.8200   72.2110 N.2   401  ADP401     -0.0055
     27  C4         4.3510   35.1600   72.2130 C.2   401  ADP401      0.3518
@<TRIPOS>BOND
     1    23    22    1
     2    22    24    2
     3    22    21    1
     4    24    25    1
     5    25    26    1
     6    21    20    2
     7    21    27    1
     8    20    19    1
     9    26    27    2
    10    27    18    1
    11    19    18    1
    12    18    17    1
    13    17    12    1
    14    17    15    1
    15    12    11    1
    16    15    16    1
    17    15    13    1
    18    10    11    1
    19    10     9    1
    20    11    13    1
    21    13    14    1
    22     9     5    1
    23     7     5    2
    24     5     6    1
    25     5     8    1
    26     8     1    1
    27     1     4    2
    28     1     2    1
    29     1     3    1
