@<TRIPOS>MOLECULE
3kj7_NAG_A_1.pdb
 14 14 0 0 0
SMALL
GASTEIGER

@<TRIPOS>ATOM
      1  C1        12.1760   10.0710   20.6840 C.3   687  NAG687      0.1665
      2  C2        12.4710   10.3650   19.2060 C.3   687  NAG687      0.1576
      3  C3        13.5300   11.4690   19.0740 C.3   687  NAG687      0.2069
      4  C4        13.2390   12.6850   19.9580 C.3   687  NAG687      0.2134
      5  C5        12.8220   12.2570   21.3710 C.3   687  NAG687      0.1809
      6  C6        12.3580   13.4250   22.2460 C.3   687  NAG687      0.2141
      7  C7        12.0340    8.3980   17.7690 C.2   687  NAG687      0.2420
      8  C8        12.6770    7.4530   16.8020 C.3   687  NAG687      0.0964
      9  N2        12.8730    9.1520   18.5000 N.am  687  NAG687     -0.2019
     10  O3        13.6270   11.9090   17.7350 O.3   687  NAG687     -0.2184
     11  O4        14.3860   13.5210   19.9930 O.3   687  NAG687     -0.2176
     12  O5        11.7880   11.2880   21.2950 O.3   687  NAG687     -0.3489
     13  O6        11.3160   14.1540   21.6290 O.3   687  NAG687     -0.2176
     14  O7        10.7950    8.4340   17.8510 O.2   687  NAG687     -0.2733
@<TRIPOS>BOND
     1     8     7    1
     2    10     3    1
     3     7    14    2
     4     7     9   am
     5     9     2    1
     6     3     2    1
     7     3     4    1
     8     2     1    1
     9     4    11    1
    10     4     5    1
    11     1    12    1
    12    12     5    1
    13     5     6    1
    14    13     6    1
