@<TRIPOS>MOLECULE
3kj7_CTR_A_1.pdb
 34 36 0 0 0
SMALL
GASTEIGER

@<TRIPOS>ATOM
      1  C1A      -21.2610   19.5660   19.1460 C.3     1  CTR1        0.2695
      2  C2A      -21.9110   19.4400   20.5230 C.3     1  CTR1        0.2406
      3  C3A      -22.0420   20.8030   21.2030 C.3     1  CTR1        0.2198
      4  C4A      -20.7260   21.5790   21.1440 C.3     1  CTR1        0.2144
      5  C5A      -20.1670   21.5920   19.7200 C.3     1  CTR1        0.1835
      6  C6A      -18.7970   22.2600   19.6580 C.3     1  CTR1        0.2142
      7  O2A      -23.2080   18.8690   20.3540 O.3     1  CTR1       -0.2149
      8  O3A      -22.3850   20.6190   22.5770 O.3     1  CTR1       -0.2174
      9  O4A      -20.9500   22.9180   21.5760 O.3     1  CTR1       -0.2176
     10  O5A      -20.0170   20.2550   19.2420 O.3     1  CTR1       -0.3256
     11  O6A      -18.3390   22.2270   18.3180 O.3     1  CTR1       -0.2176
     12  C1B      -20.2780   16.1090   15.1640 C.3     1  CTR1        0.2695
     13  C2B      -19.0920   16.8930   15.7260 C.3     1  CTR1        0.2404
     14  C3B      -19.3640   17.3630   17.1550 C.3     1  CTR1        0.2167
     15  C4B      -20.7330   18.0350   17.2660 C.3     1  CTR1        0.1804
     16  C5B      -21.8190   17.1620   16.6310 C.3     1  CTR1        0.1803
     17  C6B      -23.1730   17.8630   16.6250 C.3     1  CTR1        0.2141
     18  O2B      -17.9480   16.0400   15.7180 O.3     1  CTR1       -0.2149
     19  O3B      -18.3720   18.3170   17.5390 O.3     1  CTR1       -0.2175
     20  O4B      -21.0440   18.2480   18.6400 O.3     1  CTR1       -0.3257
     21  O5B      -21.4780   16.8700   15.2750 O.3     1  CTR1       -0.3257
     22  O6B      -24.1220   17.0040   16.0160 O.3     1  CTR1       -0.2176
     23  C1C      -22.9690   13.3170   12.9300 C.3     1  CTR1        0.3023
     24  C2C      -21.8820   12.9220   13.9310 C.3     1  CTR1        0.2433
     25  C3C      -20.4930   13.3240   13.4300 C.3     1  CTR1        0.2168
     26  C4C      -20.4610   14.7760   12.9340 C.3     1  CTR1        0.1804
     27  C5C      -21.6700   15.1520   12.0590 C.3     1  CTR1        0.1804
     28  C6C      -21.5500   14.6840   10.6100 C.3     1  CTR1        0.2141
     29  O1C      -24.2390   12.9850   13.4880 O.3     1  CTR1       -0.1869
     30  O2C      -22.1350   13.5540   15.1880 O.3     1  CTR1       -0.2148
     31  O3C      -20.1210   12.4390   12.3770 O.3     1  CTR1       -0.2175
     32  O4C      -20.0080   15.8300   13.7910 O.3     1  CTR1       -0.3257
     33  O5C      -22.9030   14.7140   12.6440 O.3     1  CTR1       -0.3237
     34  O6C      -20.4050   15.2870   10.0360 O.3     1  CTR1       -0.2176
@<TRIPOS>BOND
     1    34    28    1
     2    28    27    1
     3    27    33    1
     4    27    26    1
     5    31    25    1
     6    33    23    1
     7    23    29    1
     8    23    24    1
     9    26    25    1
    10    26    32    1
    11    25    24    1
    12    32    12    1
    13    24    30    1
    14    12    21    1
    15    12    13    1
    16    21    16    1
    17    18    13    1
    18    13    14    1
    19    22    17    1
    20    17    16    1
    21    16    15    1
    22    14    15    1
    23    14    19    1
    24    15    20    1
    25    11     6    1
    26    20     1    1
    27     1    10    1
    28     1     2    1
    29    10     5    1
    30     6     5    1
    31     5     4    1
    32     7     2    1
    33     2     3    1
    34     4     3    1
    35     4     9    1
    36     3     8    1
