@<TRIPOS>MOLECULE
3kjd_78P_A_1.pdb
 18 20 0 0 0
SMALL
GASTEIGER

@<TRIPOS>ATOM
      1  C4        -4.5300   34.2590   39.6100 C.ar    1  78P1        0.1782
      2  C5        -4.6280   33.8220   40.9280 C.ar    1  78P1        0.0897
      3  C6        -5.8530   33.3540   41.4120 C.ar    1  78P1        0.0074
      4  C8        -4.0360   34.9800   37.6590 C.1     1  78P1        0.1264
      5  C10       -3.4220   33.8050   41.8730 C.2     1  78P1        0.2868
      6  C13       -3.2780   35.6020   36.4930 C.3     1  78P1        0.1535
      7  C15       -1.8020   37.1720   37.5010 C.3     1  78P1        0.0899
      8  C17       -3.8660   36.9730   36.2380 C.3     1  78P1        0.0338
      9  C1        -6.9920   33.3350   40.6080 C.ar    1  78P1        0.0030
     10  C2        -6.8770   33.7760   39.3110 C.ar    1  78P1        0.0357
     11  C3        -5.6620   34.2220   38.8080 C.ar    1  78P1        0.1740
     12  N7        -5.3070   34.6570   37.6020 N.2     1  78P1       -0.3398
     13  N9        -3.5280   34.7750   38.8550 N.2     1  78P1       -0.3396
     14  N11       -2.2780   34.2350   41.3790 N.am    1  78P1       -0.0836
     15  O12       -3.5000   33.3150   42.9960 O.2     1  78P1       -0.2666
     16  N14       -1.8660   35.8350   36.8740 N.3     1  78P1       -0.2048
     17  C16       -3.1210   37.8940   37.1790 C.3     1  78P1        0.0214
     18  C18       -3.4370   34.7970   35.2110 C.3     1  78P1        0.0348
@<TRIPOS>BOND
     1    18     6    1
     2     8     6    1
     3     8    17    1
     4     6    16    1
     5     6     4    1
     6    16     7    1
     7    17     7    1
     8    12     4    2
     9    12    11    2
    10     4    13    2
    11    11    10   ar
    12    11     1   ar
    13    13     1    2
    14    10     9   ar
    15     1     2   ar
    16     9     3   ar
    17     2     3   ar
    18     2     5    1
    19    14     5   am
    20     5    15    2
