@<TRIPOS>MOLECULE
3kjf_B92_B_1.pdb
 43 46 0 0 0
SMALL
GASTEIGER

@<TRIPOS>ATOM
      1  C1        16.3620   -2.2790   13.8230 C.3   285  B92285      0.0741
      2  C2        16.7590   -1.1030   12.9950 C.2   285  B92285      0.1713
      3  O3        16.1610   -0.0430   13.1380 O.2   285  B92285     -0.2942
      4  C4        17.8880   -1.2770   12.0160 C.3   285  B92285      0.1636
      5  C5        17.5010   -0.5610   10.7350 C.3   285  B92285      0.1432
      6  C6        18.7050   -0.1190    9.9500 C.2   285  B92285      0.3671
      7  O7        18.7170    0.1340    8.7520 O.co2 285  B92285     -0.2456
      8  O8        19.8100    0.0230   10.7200 O.co2 285  B92285     -0.2456
      9  N9        18.0240   -2.7010   11.7840 N.am  285  B92285     -0.1971
     10  C10       19.1030   -3.4090   12.2490 C.2   285  B92285      0.2684
     11  O11       19.9330   -2.8350   12.9420 O.2   285  B92285     -0.2709
     12  C12       19.1830   -4.8870   11.8260 C.3   285  B92285      0.2067
     13  C13       18.6450   -5.7200   12.9280 C.2   285  B92285      0.0005
     14  C14       19.3910   -6.2080   13.9250 C.2   285  B92285     -0.0241
     15  C15       18.8070   -7.0660   14.9980 C.3   285  B92285      0.0236
     16  C16       19.3220   -6.6300   16.3600 C.3   285  B92285      0.0045
     17  C17       20.8220   -6.3920   16.3680 C.3   285  B92285      0.0027
     18  C18       21.1810   -5.3010   15.3730 C.3   285  B92285      0.0287
     19  C19       20.8570   -5.9440   14.0480 C.3   285  B92285      0.1260
     20  N20       21.4000   -5.3880   12.8290 N.ar  285  B92285     -0.2158
     21  N21       20.6200   -5.0000   11.7650 N.ar  285  B92285     -0.2068
     22  C22       21.4240   -4.6010   10.7360 C.ar  285  B92285      0.3500
     23  O23       21.0550   -4.1660    9.6580 O.2   285  B92285     -0.2447
     24  N24       22.7080   -4.8060   11.1980 N.ar  285  B92285     -0.2304
     25  C25       23.9070   -4.5290   10.4410 C.3   285  B92285      0.1367
     26  C26       24.6330   -5.8140   10.0780 C.3   285  B92285      0.1187
     27  C27       25.7930   -5.5130    9.1430 C.3   285  B92285      0.0355
     28  C28       26.8320   -6.6180    9.1690 C.3   285  B92285      0.1159
     29  C29       27.5120   -6.7480    7.8340 C.2   285  B92285      0.3649
     30  O30       27.3430   -6.0480    6.8470 O.co2 285  B92285     -0.2457
     31  O31       28.3790   -7.7910    7.8360 O.co2 285  B92285     -0.2457
     32  N32       23.6940   -6.7530    9.4930 N.am  285  B92285     -0.2049
     33  C33       23.3290   -7.9120   10.1440 C.2   285  B92285      0.2458
     34  O34       23.4890   -8.1170   11.3400 O.2   285  B92285     -0.2730
     35  C35       22.6820   -8.9560    9.2730 C.3   285  B92285      0.1131
     36  C36       22.9760   -8.7860    7.8220 C.ar  285  B92285     -0.0130
     37  C37       22.0360   -8.2080    7.0020 C.ar  285  B92285     -0.0038
     38  C38       22.3050   -8.0360    5.6610 C.ar  285  B92285     -0.0003
     39  C39       23.5090   -8.4460    5.1360 C.ar  285  B92285     -0.0000
     40  C40       24.4510   -9.0350    5.9540 C.ar  285  B92285     -0.0003
     41  C41       24.1800   -9.2010    7.2960 C.ar  285  B92285     -0.0038
     42  C42       22.7190   -5.3070   12.4810 C.ar  285  B92285      0.3495
     43  O43       23.6870   -5.6030   13.1710 O.2   285  B92285     -0.2447
@<TRIPOS>BOND
     1    39    38   ar
     2    39    40   ar
     3    38    37   ar
     4    40    41   ar
     5    30    29   ar
     6    37    36   ar
     7    41    36   ar
     8    36    35    1
     9    29    31   ar
    10    29    28    1
    11     7     6   ar
    12    27    28    1
    13    27    26    1
    14    35    33    1
    15    32    26    1
    16    32    33   am
    17    23    22    2
    18     6     8   ar
    19     6     5    1
    20    26    25    1
    21    33    34    2
    22    25    24    1
    23     5     4    1
    24    22    24   ar
    25    22    21   ar
    26    24    42   ar
    27    21    12    1
    28    21    20   ar
    29     9     4    1
    30     9    10   am
    31    12    10    1
    32    12    13    1
    33     4     2    1
    34    10    11    2
    35    42    20   ar
    36    42    43    2
    37    20    19    1
    38    13    14    2
    39     2     3    2
    40     2     1    1
    41    14    19    1
    42    14    15    1
    43    19    18    1
    44    15    16    1
    45    18    17    1
    46    16    17    1
