@<TRIPOS>MOLECULE
3kjg_ADP_A_1.pdb
 27 29 0 0 0
SMALL
GASTEIGER

@<TRIPOS>ATOM
      1  PB        37.6740  -42.2930   -0.0440 P.3   500  ADP500      0.5373
      2  O1B       36.3370  -41.8930    0.4410 O.3   500  ADP500     -0.1143
      3  O2B       38.8610  -42.6930    0.9630 O.3   500  ADP500     -0.1143
      4  O3B       37.9600  -42.6780   -1.5780 O.2   500  ADP500     -0.2221
      5  PA        37.4910  -39.5160    0.2050 P.3   500  ADP500      0.2231
      6  O1A       37.7590  -39.0480    1.5830 O.3   500  ADP500     -0.4370
      7  O2A       36.3390  -39.1140   -0.6330 O.2   500  ADP500     -0.5169
      8  O3A       38.2860  -40.8260   -0.2880 O.3   500  ADP500     -0.2261
      9  O5'       38.5250  -38.5400   -0.5480 O.3   500  ADP500     -0.3111
     10  C5'       39.9290  -38.8090   -0.6050 C.3   500  ADP500      0.1813
     11  C4'       40.6250  -37.5540   -1.1340 C.3   500  ADP500      0.1821
     12  O4'       40.2440  -37.3380   -2.5040 O.3   500  ADP500     -0.3135
     13  C3'       40.0720  -36.3700   -0.3370 C.3   500  ADP500      0.2184
     14  O3'       41.1350  -35.6040    0.2350 O.3   500  ADP500     -0.2174
     15  C2'       39.3010  -35.5550   -1.3770 C.3   500  ADP500      0.2570
     16  O2'       39.5060  -34.1640   -1.1220 O.3   500  ADP500     -0.2130
     17  C1'       40.0120  -35.9310   -2.6780 C.3   500  ADP500      0.3186
     18  N9        39.0920  -35.7670   -3.8300 N.pl3 500  ADP500     -0.1439
     19  C8        37.9420  -36.4310   -3.9270 C.3   500  ADP500      0.3377
     20  N7        37.3560  -36.1750   -5.0910 N.2   500  ADP500     -0.2095
     21  C5        38.1420  -35.3260   -5.7550 C.2   500  ADP500      0.2526
     22  C6        38.0500  -34.7380   -7.0030 C.2   500  ADP500      0.4393
     23  N6        37.0290  -35.0110   -7.8140 N.pl3 500  ADP500      0.2180
     24  N1        39.0330  -33.9110   -7.4030 N.2   500  ADP500      0.0021
     25  C2        40.0650  -33.6730   -6.6170 C.3   500  ADP500      0.5254
     26  N3        40.1830  -34.2270   -5.4200 N.2   500  ADP500     -0.0055
     27  C4        39.2460  -35.0610   -4.9470 C.2   500  ADP500      0.3518
@<TRIPOS>BOND
     1    23    22    1
     2    24    22    2
     3    24    25    1
     4    22    21    1
     5    25    26    1
     6    21    20    2
     7    21    27    1
     8    26    27    2
     9    20    19    1
    10    27    18    1
    11    19    18    1
    12    18    17    1
    13    17    12    1
    14    17    15    1
    15    12    11    1
    16     4     1    2
    17    15    16    1
    18    15    13    1
    19    11    10    1
    20    11    13    1
    21     7     5    2
    22    10     9    1
    23     9     5    1
    24    13    14    1
    25     8     1    1
    26     8     5    1
    27     1     2    1
    28     1     3    1
    29     5     6    1
