@<TRIPOS>MOLECULE
3kji_ADP_A_1.pdb
 27 29 0 0 0
SMALL
GASTEIGER

@<TRIPOS>ATOM
      1  PB        33.3480    2.2770   10.2510 P.3   256  ADP256      0.5373
      2  O1B       32.5420    3.5080   10.1000 O.2   256  ADP256     -0.2221
      3  O2B       32.5430    1.1320   11.0440 O.3   256  ADP256     -0.1143
      4  O3B       34.6990    2.5320   11.0860 O.3   256  ADP256     -0.1143
      5  PA        33.9850    2.4160    7.4970 P.3   256  ADP256      0.2231
      6  O1A       32.6540    2.7040    6.9170 O.2   256  ADP256     -0.5169
      7  O2A       34.9060    3.5480    7.7640 O.3   256  ADP256     -0.4370
      8  O3A       33.7730    1.5860    8.8610 O.3   256  ADP256     -0.2261
      9  O5'       34.7470    1.3270    6.5850 O.3   256  ADP256     -0.3111
     10  C5'       36.0270    0.8460    7.0110 C.3   256  ADP256      0.1813
     11  C4'       36.7400    0.0590    5.9070 C.3   256  ADP256      0.1821
     12  O4'       35.9320   -1.0760    5.5470 O.3   256  ADP256     -0.3135
     13  C3'       36.8510    0.9280    4.6510 C.3   256  ADP256      0.2184
     14  O3'       38.0000    0.5390    3.8940 O.3   256  ADP256     -0.2174
     15  C2'       35.5840    0.5160    3.9060 C.3   256  ADP256      0.2570
     16  O2'       35.7410    0.7850    2.5120 O.3   256  ADP256     -0.2130
     17  C1'       35.7080   -0.9880    4.1320 C.3   256  ADP256      0.3186
     18  N9        34.4740   -1.6970    3.7430 N.pl3 256  ADP256     -0.1439
     19  C8        33.2350   -1.3830    4.1190 C.3   256  ADP256      0.3377
     20  N7        32.3800   -2.2830    3.6420 N.2   256  ADP256     -0.2095
     21  C5        33.0760   -3.1840    2.9560 C.2   256  ADP256      0.2526
     22  C6        32.7450   -4.3480    2.2670 C.2   256  ADP256      0.4393
     23  N6        31.4900   -4.7820    2.2330 N.pl3 256  ADP256      0.2180
     24  N1        33.7290   -5.0510    1.6760 N.2   256  ADP256      0.0021
     25  C2        34.9840   -4.6570    1.7460 C.3   256  ADP256      0.5254
     26  N3        35.3370   -3.5560    2.3980 N.2   256  ADP256     -0.0055
     27  C4        34.4150   -2.8080    3.0090 C.2   256  ADP256      0.3518
@<TRIPOS>BOND
     1    24    25    1
     2    24    22    2
     3    25    26    1
     4    23    22    1
     5    22    21    1
     6    26    27    2
     7    16    15    1
     8    21    27    1
     9    21    20    2
    10    27    18    1
    11    20    19    1
    12    18    19    1
    13    18    17    1
    14    14    13    1
    15    15    17    1
    16    15    13    1
    17    17    12    1
    18    13    11    1
    19    12    11    1
    20    11    10    1
    21     9    10    1
    22     9     5    1
    23     6     5    2
    24     5     7    1
    25     5     8    1
    26     8     1    1
    27     2     1    2
    28     1     3    1
    29     1     4    1
