@<TRIPOS>MOLECULE
3kjm_245_A_1.pdb
 17 18 0 0 0
SMALL
GASTEIGER

@<TRIPOS>ATOM
      1 CL7        34.8220  -23.4090    0.8140 Cl    601  245601     -0.0613
      2  C1        37.0500  -19.0470    3.4170 C.2   601  245601      0.3477
      3  O1        36.0970  -18.9490    2.6440 O.2   601  245601     -0.2484
      4  N2        37.6200  -20.2120    3.7350 N.am  601  245601     -0.1606
      5  C3        37.2720  -21.4370    3.3140 C.ar  601  245601      0.0789
      6  C4        37.9420  -22.5180    3.8730 C.ar  601  245601      0.0374
      7  C5        37.6310  -23.8130    3.4870 C.ar  601  245601      0.1012
      8  N6        36.7000  -24.0250    2.5710 N.ar  601  245601     -0.2323
      9  C7        36.0250  -23.0140    1.9980 C.ar  601  245601      0.1397
     10  C8        36.2930  -21.6880    2.3470 C.ar  601  245601      0.0474
     11  N9        37.6080  -17.9990    4.0280 N.am  601  245601     -0.1607
     12  C10       37.3360  -16.7030    3.8520 C.ar  601  245601      0.0750
     13  C11       38.1070  -15.7790    4.5450 C.ar  601  245601      0.0167
     14  C12       37.9100  -14.4100    4.3850 C.ar  601  245601      0.0013
     15  C13       36.9290  -13.9720    3.5030 C.ar  601  245601      0.0001
     16  C14       36.1590  -14.8880    2.7960 C.ar  601  245601      0.0013
     17  C15       36.3600  -16.2570    2.9620 C.ar  601  245601      0.0167
@<TRIPOS>BOND
     1     1     9    1
     2     9    10   ar
     3     9     8   ar
     4    10     5   ar
     5     8     7   ar
     6     3     2    2
     7    16    17   ar
     8    16    15   ar
     9    17    12   ar
    10     5     4    1
    11     5     6   ar
    12     2     4   am
    13     2    11   am
    14     7     6   ar
    15    15    14   ar
    16    12    11    1
    17    12    13   ar
    18    14    13   ar
