@<TRIPOS>MOLECULE
3kjn_B93_A_1.pdb
 43 47 0 0 0
SMALL
GASTEIGER

@<TRIPOS>ATOM
      1  C1       -11.9170   36.5420   37.4590 C.3   950  B93950      0.0741
      2  C2       -10.5460   36.4140   36.8770 C.2   950  B93950      0.1713
      3  O3       -10.3370   36.7860   35.7320 O.2   950  B93950     -0.2942
      4  C4        -9.4430   35.8270   37.7260 C.3   950  B93950      0.1636
      5  C5        -8.5360   34.9850   36.8460 C.3   950  B93950      0.1432
      6  C6        -7.1950   34.9010   37.5170 C.2   950  B93950      0.3671
      7  O7        -6.7570   35.6990   38.3290 O.co2 950  B93950     -0.2456
      8  O8        -6.5030   33.8220   37.1070 O.co2 950  B93950     -0.2456
      9  N9       -10.0810   34.9930   38.7270 N.am  950  B93950     -0.1971
     10  C10      -10.0830   35.3600   40.0540 C.2   950  B93950      0.2684
     11  O11       -9.5280   36.3510   40.5110 O.2   950  B93950     -0.2709
     12  C12      -10.8620   34.3830   40.8940 C.3   950  B93950      0.2067
     13  C13      -12.3080   34.7500   40.8120 C.2   950  B93950      0.0005
     14  C14      -12.9880   35.3620   41.7890 C.2   950  B93950     -0.0219
     15  C15      -14.4440   35.6580   41.6070 C.3   950  B93950      0.0237
     16  C16      -14.8610   37.1110   41.5230 C.3   950  B93950      0.0041
     17  C17      -14.0590   37.9030   40.5070 C.3   950  B93950      0.0003
     18  C18      -14.5270   39.3440   40.4890 C.3   950  B93950      0.0000
     19  C19      -16.0020   39.4070   40.1270 C.3   950  B93950      0.0000
     20  C20      -16.8270   38.5960   41.1060 C.3   950  B93950      0.0000
     21  C21      -16.3360   37.1650   41.1610 C.3   950  B93950      0.0003
     22  C22      -12.3340   35.7270   43.0830 C.3   950  B93950      0.1523
     23  N23      -10.8930   35.6480   42.9430 N.ar  950  B93950     -0.2135
     24  N24      -10.4320   34.5240   42.2740 N.ar  950  B93950     -0.2068
     25  C25       -9.1620   34.2400   42.7120 C.ar  950  B93950      0.3500
     26  O26       -8.3420   33.5020   42.1870 O.2   950  B93950     -0.2447
     27  N27       -8.9740   35.0420   43.8090 N.ar  950  B93950     -0.2303
     28  C28       -7.6680   35.2530   44.3960 C.3   950  B93950      0.1385
     29  C29       -7.5530   34.5310   45.7230 C.3   950  B93950      0.1402
     30  N30       -7.5990   33.0930   45.5650 N.am  950  B93950     -0.1996
     31  C31       -7.6910   32.2690   46.6720 C.2   950  B93950      0.2649
     32  O32       -7.8640   32.6460   47.8250 O.2   950  B93950     -0.2684
     33  C33       -7.5460   30.8320   46.3790 C.ar  950  B93950      0.0566
     34  C34       -7.9750   30.3540   45.1600 C.ar  950  B93950      0.0062
     35  C35       -7.8690   29.0240   44.8090 C.ar  950  B93950      0.0204
     36  C36       -7.3030   28.2230   45.7740 C.ar  950  B93950      0.0955
     37  N37       -7.0420   26.8830   45.7820 N.2   950  B93950     -0.2428
     38  C38       -6.4700   26.5700   46.9790 C.3   950  B93950      0.2508
     39  N39       -6.3540   27.6400   47.7360 N.2   950  B93950     -0.2428
     40  C40       -6.8680   28.6770   47.0020 C.ar  950  B93950      0.0956
     41  C41       -6.9790   30.0190   47.3390 C.ar  950  B93950      0.0248
     42  C42      -10.0330   35.8960   43.9900 C.ar  950  B93950      0.3496
     43  O43      -10.1840   36.7070   44.8950 O.2   950  B93950     -0.2447
@<TRIPOS>BOND
     1     3     2    2
     2     5     6    1
     3     5     4    1
     4     2     1    1
     5     2     4    1
     6     8     6   ar
     7     6     7   ar
     8     4     9    1
     9     9    10   am
    10    10    11    2
    11    10    12    1
    12    19    18    1
    13    19    20    1
    14    18    17    1
    15    17    16    1
    16    13    12    1
    17    13    14    2
    18    12    24    1
    19    20    21    1
    20    21    16    1
    21    16    15    1
    22    15    14    1
    23    14    22    1
    24    26    25    2
    25    24    25   ar
    26    24    23   ar
    27    25    27   ar
    28    23    22    1
    29    23    42   ar
    30    27    42   ar
    31    27    28    1
    32    42    43    2
    33    28    29    1
    34    35    34   ar
    35    35    36   ar
    36    34    33   ar
    37    30    29    1
    38    30    31   am
    39    36    37    2
    40    36    40   ar
    41    37    38    1
    42    33    31    1
    43    33    41   ar
    44    31    32    2
    45    38    39    1
    46    40    41   ar
    47    40    39    2
