@<TRIPOS>MOLECULE
3kjq_B94_A_1.pdb
 29 30 0 0 0
SMALL
GASTEIGER

@<TRIPOS>ATOM
      1  C1       -12.8510   37.4490   38.2830 C.3   480  B94480      0.0741
      2  C2       -11.4490   37.3170   37.7640 C.2   480  B94480      0.1713
      3  O3       -11.2020   37.7610   36.6490 O.2   480  B94480     -0.2942
      4  C4       -10.4220   36.6220   38.6450 C.3   480  B94480      0.1636
      5  C5        -9.5080   35.7430   37.8030 C.3   480  B94480      0.1432
      6  C6        -8.1710   35.6880   38.4920 C.2   480  B94480      0.3671
      7  O7        -7.7840   36.4950   39.3250 O.co2 480  B94480     -0.2456
      8  O8        -7.4340   34.6420   38.0710 O.co2 480  B94480     -0.2456
      9  N9       -11.1950   35.8210   39.5810 N.am  480  B94480     -0.1971
     10  C10      -11.3330   36.1030   40.9230 C.2   480  B94480      0.2685
     11  O11      -10.8090   37.0340   41.5210 O.2   480  B94480     -0.2709
     12  C12      -12.2370   35.1050   41.5920 C.3   480  B94480      0.2070
     13  C13      -13.6460   35.6000   41.4790 C.2   480  B94480      0.0044
     14  C14      -14.3820   36.0460   42.5040 C.2   480  B94480     -0.0044
     15  C15      -13.9220   36.1300   43.9190 C.3   480  B94480      0.1298
     16  C16      -14.6000   35.0490   44.7320 C.3   480  B94480      0.0313
     17  N29      -12.4730   36.0000   43.9450 N.ar  480  B94480     -0.2154
     18  N30      -11.8920   35.0850   42.9920 N.ar  480  B94480     -0.2068
     19  C31      -10.7200   34.5620   43.5400 C.ar  480  B94480      0.3499
     20  O32       -9.9350   33.8240   42.9690 O.2   480  B94480     -0.2447
     21  N33      -10.6490   35.0530   44.8140 N.ar  480  B94480     -0.2321
     22  C34       -9.4740   34.8880   45.6420 C.3   480  B94480      0.1157
     23  C35       -8.5830   36.1120   45.5790 C.3   480  B94480      0.0366
     24  C36       -7.4940   35.9260   46.6100 C.3   480  B94480      0.1161
     25  C37       -6.6700   37.1630   46.7550 C.2   480  B94480      0.3649
     26  O38       -6.3470   37.9320   45.8630 O.co2 480  B94480     -0.2457
     27  O39       -6.3060   37.3100   48.0550 O.co2 480  B94480     -0.2457
     28  C40      -11.6880   35.9140   45.0900 C.ar  480  B94480      0.3495
     29  O41      -11.9070   36.4890   46.1510 O.2   480  B94480     -0.2447
@<TRIPOS>BOND
     1     3     2    2
     2     2     1    1
     3     2     4    1
     4     5     6    1
     5     5     4    1
     6     8     6   ar
     7     6     7   ar
     8     4     9    1
     9     9    10   am
    10    10    11    2
    11    10    12    1
    12    13    12    1
    13    13    14    2
    14    12    18    1
    15    14    15    1
    16    20    19    2
    17    18    19   ar
    18    18    17   ar
    19    19    21   ar
    20    15    17    1
    21    15    16    1
    22    17    28   ar
    23    21    28   ar
    24    21    22    1
    25    28    29    2
    26    23    22    1
    27    23    24    1
    28    26    25   ar
    29    24    25    1
    30    25    27   ar
