@<TRIPOS>MOLECULE
3kjr_NAP_A_1.pdb
 48 52 0 0 0
SMALL
GASTEIGER

@<TRIPOS>ATOM
      1  PA       -10.0700    7.6310   -2.6250 P.3   512  NAP512      0.2189
      2  O1A       -9.5680    6.2590   -3.0480 O.2   512  NAP512     -0.5170
      3  O2A       -9.3380    8.4580   -1.6010 O.3   512  NAP512     -0.4371
      4  O5B      -10.0260    8.5470   -3.9410 O.3   512  NAP512     -0.3112
      5  C5B      -10.7820    8.1680   -5.0810 C.3   512  NAP512      0.1813
      6  C4B      -10.1400    8.9410   -6.2040 C.3   512  NAP512      0.1820
      7  O4B       -8.7420    8.6460   -6.1670 O.3   512  NAP512     -0.3136
      8  C3B      -10.6590    8.5220   -7.5660 C.3   512  NAP512      0.2157
      9  O3B      -11.7370    9.3640   -7.9670 O.3   512  NAP512     -0.2175
     10  C2B       -9.4270    8.5740   -8.4620 C.3   512  NAP512      0.2314
     11  O2B       -9.1020    9.7820   -9.1640 O.3   512  NAP512     -0.2630
     12  C1B       -8.2490    8.4530   -7.4910 C.3   512  NAP512      0.3158
     13  N9A       -7.5010    7.1730   -7.6250 N.pl3 512  NAP512     -0.1439
     14  C8A       -7.2920    6.2300   -6.6810 C.3   512  NAP512      0.3377
     15  N7A       -6.5470    5.2300   -7.2200 N.2   512  NAP512     -0.2095
     16  C5A       -6.2810    5.5660   -8.5080 C.2   512  NAP512      0.2526
     17  C6A       -5.5780    4.9630   -9.5530 C.2   512  NAP512      0.4393
     18  N6A       -4.9570    3.7600   -9.4110 N.pl3 512  NAP512      0.2180
     19  N1A       -5.5320    5.6040  -10.7530 N.2   512  NAP512      0.0021
     20  C2A       -6.1250    6.7950  -10.9610 C.3   512  NAP512      0.5254
     21  N3A       -6.7950    7.3940   -9.9740 N.2   512  NAP512     -0.0055
     22  C4A       -6.8870    6.7940   -8.7500 C.2   512  NAP512      0.3518
     23  O3       -11.6860    7.7290   -2.3550 O.3   512  NAP512     -0.2703
     24  PN       -12.6890    7.0770   -1.2470 P.3   512  NAP512      0.2189
     25  O1N      -12.7670    5.5880   -1.4980 O.2   512  NAP512     -0.5170
     26  O2N      -13.9890    7.8480   -1.2490 O.3   512  NAP512     -0.4371
     27  O5D      -12.0120    7.3330    0.1920 O.3   512  NAP512     -0.3112
     28  C5D      -12.1220    8.6080    0.8200 C.3   512  NAP512      0.1813
     29  C4D      -12.9660    8.4590    2.0830 C.3   512  NAP512      0.1799
     30  O4D      -12.3780    7.4890    2.9580 O.3   512  NAP512     -0.3327
     31  C3D      -13.0120    9.7590    2.8700 C.3   512  NAP512      0.2158
     32  O3D      -14.2890    9.8190    3.5240 O.3   512  NAP512     -0.2175
     33  C2D      -11.8920    9.6080    3.8760 C.3   512  NAP512      0.2309
     34  O2D      -12.1540   10.3910    5.0340 O.3   512  NAP512     -0.2158
     35  C1D      -11.9390    8.1130    4.1730 C.3   512  NAP512      0.2263
     36  N1N      -10.6520    7.5460    4.5770 N.pl3 512  NAP512     -0.2787
     37  C2N      -10.5610    7.0240    5.8040 C.3   512  NAP512      0.1244
     38  C3N       -9.3820    6.4390    6.2630 C.2   512  NAP512      0.0544
     39  C7N       -9.3370    5.8710    7.6570 C.2   512  NAP512      0.2818
     40  O7N       -8.2290    5.4770    8.0460 O.2   512  NAP512     -0.2670
     41  N7N      -10.4990    5.8300    8.3810 N.am  512  NAP512     -0.0839
     42  C4N       -8.2690    6.4020    5.4280 C.2   512  NAP512      0.0033
     43  C5N       -8.3880    6.9530    4.1530 C.2   512  NAP512      0.0157
     44  C6N       -9.5980    7.5140    3.7390 C.2   512  NAP512      0.0633
     45  P2B       -9.8820   10.7580  -10.1980 P.3   512  NAP512      0.5328
     46  O1X       -9.1710   10.4310  -11.4930 O.2   512  NAP512     -0.2224
     47  O2X      -11.3490   10.3840  -10.2440 O.3   512  NAP512     -0.1145
     48  O3X       -9.6000   12.1580   -9.6980 O.3   512  NAP512     -0.1145
@<TRIPOS>BOND
     1    46    45    2
     2    20    19    1
     3    20    21    1
     4    19    17    2
     5    47    45    1
     6    45    48    1
     7    45    11    1
     8    21    22    2
     9    17    18    1
    10    17    16    1
    11    11    10    1
    12    22    16    1
    13    22    13    1
    14    16    15    2
    15    10     8    1
    16    10    12    1
    17     9     8    1
    18    13    12    1
    19    13    14    1
    20     8     6    1
    21    12     7    1
    22    15    14    1
    23     6     7    1
    24     6     5    1
    25     5     4    1
    26     4     1    1
    27     2     1    2
    28     1    23    1
    29     1     3    1
    30    23    24    1
    31    25    24    2
    32    26    24    1
    33    24    27    1
    34    27    28    1
    35    28    29    1
    36    29    31    1
    37    29    30    1
    38    31    32    1
    39    31    33    1
    40    30    35    1
    41    44    43    2
    42    44    36    1
    43    33    35    1
    44    33    34    1
    45    43    42    1
    46    35    36    1
    47    36    37    1
    48    42    38    2
    49    37    38    1
    50    38    39    1
    51    39    40    2
    52    39    41   am
