@<TRIPOS>MOLECULE
3kjs_DQ1_A_1.pdb
 31 33 0 0 0
SMALL
GASTEIGER

@<TRIPOS>ATOM
      1  C1        23.8680   34.8440   26.4350 C.2   602  DQ1602      0.2349
      2  N1        23.5870   33.5720   26.1010 N.2   602  DQ1602     -0.3072
      3  O1        16.8920   41.8690   25.5180 O.3   602  DQ1602     -0.4684
      4  C2        23.1980   35.8850   25.7830 C.2   602  DQ1602      0.0744
      5  N2        24.7700   35.0850   27.3810 N.pl3 602  DQ1602     -0.0920
      6  O2        18.2230   42.6200   23.2720 O.3   602  DQ1602     -0.4723
      7  C3        22.7490   38.2410   25.4110 C.2   602  DQ1602     -0.0043
      8  N3        22.4270   32.0130   24.8360 N.pl3 602  DQ1602     -0.0232
      9  O3        20.8110   40.2980   20.5920 O.2   602  DQ1602     -0.2501
     10  C4        23.0330   39.7120   25.7680 C.3   602  DQ1602      0.1382
     11  N4        22.2420   40.6600   24.9510 N.pl3 602  DQ1602     -0.2327
     12  O4        19.4420   39.3610   19.0560 O.3   602  DQ1602     -0.4485
     13  C5        16.0600   40.8550   26.1160 C.3   602  DQ1602      0.2526
     14  N5        22.0280   34.2680   24.5090 N.2   602  DQ1602     -0.3298
     15  C6        18.9760   42.9330   22.0650 C.3   602  DQ1602      0.2061
     16  C7        18.4060   42.2360   20.8210 C.3   602  DQ1602      0.0590
     17  C8        18.4630   40.7050   20.9340 C.3   602  DQ1602      0.1134
     18  C9        19.6620   40.1090   20.1850 C.2   602  DQ1602      0.3171
     19  C10       18.8090   37.0140   18.9960 C.3   602  DQ1602      0.0513
     20  C11       19.9460   38.0100   19.1900 C.3   602  DQ1602      0.2086
     21  C12       22.6810   33.2830   25.1490 C.1   602  DQ1602      0.2424
     22  C13       20.9430   40.9320   25.1370 C.ar  602  DQ1602      0.0689
     23  C14       20.2640   41.6240   24.1320 C.ar  602  DQ1602      0.0561
     24  C15       18.9060   41.9390   24.2540 C.ar  602  DQ1602      0.1735
     25  C16       18.2190   41.5480   25.4060 C.ar  602  DQ1602      0.1725
     26  C17       18.8960   40.8540   26.4180 C.ar  602  DQ1602      0.0414
     27  C18       20.2520   40.5440   26.2850 C.ar  602  DQ1602      0.0194
     28  C19       21.8140   37.9010   24.4300 C.2   602  DQ1602     -0.0212
     29  C20       22.2620   35.5570   24.8010 C.2   602  DQ1602      0.1308
     30  C21       21.5720   36.5630   24.1260 C.3   602  DQ1602      0.0858
     31  C22       23.4380   37.2300   26.0870 C.2   602  DQ1602      0.0034
@<TRIPOS>BOND
     1    19    20    1
     2    12    20    1
     3    12    18    1
     4    18     9    2
     5    18    17    1
     6    16    17    1
     7    16    15    1
     8    15     6    1
     9     6    24    1
    10    30    28    1
    11    30    29    1
    12    23    24   ar
    13    23    22   ar
    14    24    25   ar
    15    28     7    2
    16    14    29    2
    17    14    21    2
    18    29     4    1
    19     8    21    1
    20    11    22    1
    21    11    10    1
    22    22    27   ar
    23    21     2    2
    24    25     3    1
    25    25    26   ar
    26     7    10    1
    27     7    31    1
    28     3    13    1
    29     4    31    2
    30     4     1    1
    31     2     1    2
    32    27    26   ar
    33     1     5    1
