@<TRIPOS>MOLECULE
3kjs_NAP_A_1.pdb
 48 52 0 0 0
SMALL
GASTEIGER

@<TRIPOS>ATOM
      1  PA        32.3010   42.9490   27.2370 P.3   702  NAP702      0.2189
      2  O1A       32.8680   41.6980   27.8220 O.3   702  NAP702     -0.4371
      3  O2A       30.6730   42.9560   27.1550 O.2   702  NAP702     -0.5170
      4  O5B       32.5740   44.2660   28.1440 O.3   702  NAP702     -0.3112
      5  C5B       33.8980   44.7820   28.3040 C.3   702  NAP702      0.1813
      6  C4B       33.8450   45.8790   29.3590 C.3   702  NAP702      0.1820
      7  O4B       33.4680   45.2770   30.6480 O.3   702  NAP702     -0.3136
      8  C3B       35.2120   46.5240   29.5810 C.3   702  NAP702      0.2157
      9  O3B       35.4110   47.6160   28.6620 O.3   702  NAP702     -0.2175
     10  C2B       35.0350   47.0320   31.0050 C.3   702  NAP702      0.2314
     11  O2B       34.1510   48.1580   31.0430 O.3   702  NAP702     -0.2630
     12  C1B       34.3190   45.8600   31.6850 C.3   702  NAP702      0.3158
     13  N9A       35.3640   44.9340   32.2120 N.pl3 702  NAP702     -0.1439
     14  C8A       35.6630   43.7210   31.7380 C.3   702  NAP702      0.3377
     15  N7A       36.6600   43.2070   32.4610 N.2   702  NAP702     -0.2095
     16  C5A       36.9990   44.0960   33.3920 C.2   702  NAP702      0.2526
     17  C6A       37.9500   44.1180   34.4090 C.2   702  NAP702      0.4393
     18  N6A       38.7590   43.0760   34.5900 N.pl3 702  NAP702      0.2180
     19  N1A       38.0360   45.2070   35.2010 N.2   702  NAP702      0.0021
     20  C2A       37.2290   46.2500   35.0240 C.3   702  NAP702      0.5254
     21  N3A       36.3140   46.2560   34.0600 N.2   702  NAP702     -0.0055
     22  C4A       36.1770   45.1980   33.2350 C.2   702  NAP702      0.3518
     23  O3        32.8970   43.3410   25.7420 O.3   702  NAP702     -0.2703
     24  PN        33.5960   42.3480   24.6340 P.3   702  NAP702      0.2189
     25  O1N       34.0980   43.5950   23.9690 O.2   702  NAP702     -0.5170
     26  O2N       34.3640   41.6690   25.7230 O.3   702  NAP702     -0.4371
     27  O5D       32.0080   41.9640   24.4150 O.3   702  NAP702     -0.3112
     28  C5D       31.1810   42.6760   23.4990 C.3   702  NAP702      0.1813
     29  C4D       30.5360   41.7300   22.4560 C.3   702  NAP702      0.1799
     30  O4D       30.0290   40.4980   23.0660 O.3   702  NAP702     -0.3327
     31  C3D       29.3150   42.4180   21.8330 C.3   702  NAP702      0.2158
     32  O3D       29.3250   42.0970   20.4430 O.3   702  NAP702     -0.2175
     33  C2D       28.1520   41.7160   22.5230 C.3   702  NAP702      0.2309
     34  O2D       26.9570   41.7750   21.7350 O.3   702  NAP702     -0.2158
     35  C1D       28.7030   40.2970   22.5350 C.3   702  NAP702      0.2263
     36  N1N       27.9880   39.3410   23.4100 N.pl3 702  NAP702     -0.2787
     37  C2N       27.6500   38.0810   22.8900 C.3   702  NAP702      0.1244
     38  C3N       26.9840   37.1510   23.6870 C.2   702  NAP702      0.0544
     39  C7N       26.6080   35.7740   23.1140 C.2   702  NAP702      0.2818
     40  O7N       26.3550   34.8280   23.8620 O.2   702  NAP702     -0.2670
     41  N7N       26.5740   35.6940   21.7790 N.am  702  NAP702     -0.0839
     42  C4N       26.6640   37.4770   25.0070 C.2   702  NAP702      0.0033
     43  C5N       27.0050   38.7240   25.5350 C.2   702  NAP702      0.0157
     44  C6N       27.6660   39.6590   24.7400 C.2   702  NAP702      0.0633
     45  P2B       34.7660   49.6510   31.0480 P.3   702  NAP702      0.5328
     46  O1X       35.3950   49.9960   29.7470 O.2   702  NAP702     -0.2224
     47  O2X       33.5230   50.5820   31.4980 O.3   702  NAP702     -0.1145
     48  O3X       35.8220   49.6780   32.2870 O.3   702  NAP702     -0.1145
@<TRIPOS>BOND
     1    32    31    1
     2    34    33    1
     3    41    39   am
     4    31    29    1
     5    31    33    1
     6    29    30    1
     7    29    28    1
     8    33    35    1
     9    35    30    1
    10    35    36    1
    11    37    36    1
    12    37    38    1
    13    39    38    1
    14    39    40    2
    15    36    44    1
    16    28    27    1
    17    38    42    2
    18    25    24    2
    19    27    24    1
    20    24    26    1
    21    24    23    1
    22    44    43    2
    23    42    43    1
    24    23     1    1
    25     3     1    2
    26     1     2    1
    27     1     4    1
    28     4     5    1
    29     5     6    1
    30     9     8    1
    31     6     8    1
    32     6     7    1
    33     8    10    1
    34    46    45    2
    35     7    12    1
    36    10    11    1
    37    10    12    1
    38    11    45    1
    39    45    47    1
    40    45    48    1
    41    12    13    1
    42    14    13    1
    43    14    15    1
    44    13    22    1
    45    15    16    2
    46    22    16    1
    47    22    21    2
    48    16    17    1
    49    21    20    1
    50    17    18    1
    51    17    19    2
    52    20    19    1
