@<TRIPOS>MOLECULE
3kk1_914_A_1.pdb
 30 32 0 0 0
SMALL
GASTEIGER

@<TRIPOS>ATOM
      1  C1        40.7100   82.5220   26.7970 C.3   825  914825      0.2656
      2  F1        43.5610   83.8040   25.1490 F     825  914825     -0.2021
      3  N1        41.8940   81.4680   23.9230 N.pl3 825  914825     -0.1403
      4  O1        41.1530   81.4250   26.1220 O.3   825  914825     -0.2842
      5  P1        36.9610   83.5630   26.3960 P.3   825  914825      0.4036
      6  C2        41.6690   83.6030   26.4510 C.2   825  914825      0.0663
      7  N2        40.5530   81.0650   22.1190 N.2   825  914825     -0.2095
      8  O2        39.4680   82.7450   26.3020 O.3   825  914825     -0.3141
      9  P2        37.6780   86.4910   27.0060 P.3   825  914825      0.2296
     10  C3        42.5580   83.1030   25.6390 C.2   825  914825      0.1908
     11  N3        44.0590   81.8450   22.7240 N.2   825  914825     -0.0055
     12  O3        35.8830   83.1160   27.3250 O.3   825  914825     -0.1374
     13  P3        34.8380   87.5450   27.1800 P.3   825  914825      0.5373
     14  C4        42.2890   81.6460   25.3450 C.3   825  914825      0.3390
     15  N4        43.7700   81.6190   20.3040 N.2   825  914825      0.0021
     16  O4        37.1070   85.1850   26.1380 O.3   825  914825     -0.2466
     17  C5        42.6880   81.5670   22.8020 C.2   825  914825      0.3521
     18  N5        41.7240   81.1290   19.2610 N.pl3 825  914825      0.2180
     19  O5        38.6670   87.2290   26.1710 O.2   825  914825     -0.5167
     20  C6        41.7960   81.2970   21.6940 C.2   825  914825      0.2526
     21  O6        36.3860   87.4110   27.3510 O.3   825  914825     -0.2258
     22  C7        40.6360   81.1670   23.4070 C.3   825  914825      0.3380
     23  O7        34.6020   87.6250   25.6760 O.2   825  914825     -0.2221
     24  C8        44.5060   81.8510   21.4370 C.3   825  914825      0.5254
     25  O8        36.9960   83.0310   25.0310 O.2   825  914825     -0.2526
     26  C9        42.4130   81.3460   20.3980 C.2   825  914825      0.4393
     27  O9        38.1460   86.0090   28.3210 O.3   825  914825     -0.4368
     28  C10       38.6090   83.3230   27.1920 C.3   825  914825      0.2626
     29  O10       34.2370   86.3200   27.8180 O.3   825  914825     -0.1143
     30  O11       34.5100   88.8290   27.9280 O.3   825  914825     -0.1143
@<TRIPOS>BOND
     1    18    26    1
     2    15    26    2
     3    15    24    1
     4    26    20    1
     5    24    11    1
     6    20     7    2
     7    20    17    1
     8     7    22    1
     9    11    17    2
    10    17     3    1
    11    22     3    1
    12     3    14    1
    13    25     5    2
    14     2    10    1
    15    14    10    1
    16    14     4    1
    17    10     6    2
    18    23    13    2
    19     4     1    1
    20    16     5    1
    21    16     9    1
    22    19     9    2
    23     8     1    1
    24     8    28    1
    25     5    28    1
    26     5    12    1
    27     6     1    1
    28     9    21    1
    29     9    27    1
    30    13    21    1
    31    13    29    1
    32    13    30    1
