@<TRIPOS>MOLECULE
3kk2_DTP_A_1.pdb
 30 32 0 0 0
SMALL
GASTEIGER

@<TRIPOS>ATOM
      1  PG        35.8290   86.9820   26.4930 P.3   563  DTP563      0.5373
      2  O1G       35.5220   85.5810   26.8500 O.3   563  DTP563     -0.1143
      3  O2G       35.2220   87.9660   27.6080 O.3   563  DTP563     -0.1143
      4  O3G       35.1790   87.2950   25.0620 O.2   563  DTP563     -0.2221
      5  PB        38.3970   85.9560   26.6710 P.3   563  DTP563      0.2277
      6  O1B       38.1940   85.4600   28.0430 O.3   563  DTP563     -0.4368
      7  O2B       39.9360   86.3800   26.5290 O.2   563  DTP563     -0.5168
      8  O3B       37.4550   87.2660   26.3820 O.3   563  DTP563     -0.2258
      9  PA        37.7300   83.2890   26.0550 P.3   563  DTP563      0.2189
     10  O1A       36.9110   83.2590   27.2880 O.3   563  DTP563     -0.4371
     11  O2A       36.8770   82.5670   24.9040 O.2   563  DTP563     -0.5170
     12  O3A       38.0790   84.8220   25.5300 O.3   563  DTP563     -0.2700
     13  O5'       39.0970   82.4300   26.2570 O.3   563  DTP563     -0.3112
     14  C5'       39.7100   82.7870   27.5040 C.3   563  DTP563      0.1813
     15  C4'       41.2230   82.6880   27.3540 C.3   563  DTP563      0.1795
     16  O4'       41.5130   81.5860   26.4840 O.3   563  DTP563     -0.3155
     17  C3'       41.8060   83.9200   26.6550 C.3   563  DTP563      0.1883
     18  O3'       42.1460   84.9580   27.5510 O.3   563  DTP563     -0.2202
     19  C2'       43.0030   83.3720   25.8720 C.3   563  DTP563      0.1151
     20  C1'       42.7300   81.8540   25.7330 C.3   563  DTP563      0.2873
     21  N9        42.4590   81.6190   24.2960 N.pl3 563  DTP563     -0.1460
     22  C8        41.2520   81.2450   23.7500 C.3   563  DTP563      0.3377
     23  N7        41.3510   81.1270   22.4590 N.2   563  DTP563     -0.2095
     24  C5        42.6170   81.4070   22.0730 C.2   563  DTP563      0.2526
     25  C6        43.3090   81.4440   20.8220 C.2   563  DTP563      0.4393
     26  N6        42.6600   81.1440   19.6350 N.pl3 563  DTP563      0.2180
     27  N1        44.6180   81.7750   20.8230 N.2   563  DTP563      0.0021
     28  C2        45.2740   82.0710   21.9600 C.3   563  DTP563      0.5254
     29  N3        44.6620   82.0510   23.1450 N.2   563  DTP563     -0.0055
     30  C4        43.3540   81.7290   23.2500 C.2   563  DTP563      0.3518
@<TRIPOS>BOND
     1    26    25    1
     2    25    27    2
     3    25    24    1
     4    27    28    1
     5    28    29    1
     6    24    23    2
     7    24    30    1
     8    23    22    1
     9    29    30    2
    10    30    21    1
    11    22    21    1
    12    21    20    1
    13    11     9    2
    14     4     1    2
    15    12     9    1
    16    12     5    1
    17    20    19    1
    18    20    16    1
    19    19    17    1
    20     9    13    1
    21     9    10    1
    22    13    14    1
    23     8     1    1
    24     8     5    1
    25    16    15    1
    26     1     2    1
    27     1     3    1
    28     7     5    2
    29    17    15    1
    30    17    18    1
    31     5     6    1
    32    15    14    1
