@<TRIPOS>MOLECULE
3kk6_CEL_A_1.pdb
 40 42 0 0 0
SMALL
GASTEIGER

@<TRIPOS>ATOM
      1  S1       -32.3930   42.0950  -10.6380 S.O2  701  CEL701      0.0559
      2  C15      -32.2740   42.1500   -8.8570 C.ar  701  CEL701      0.1051
      3  C14      -33.2030   42.7870   -8.1280 C.ar  701  CEL701     -0.0334
      4  C13      -33.0810   42.8110   -6.7440 C.ar  701  CEL701     -0.0344
      5  C12      -32.0330   42.1170   -6.1140 C.ar  701  CEL701      0.0661
      6  C17      -31.1810   41.3350   -6.8490 C.ar  701  CEL701     -0.0344
      7  C16      -31.2210   41.3910   -8.1900 C.ar  701  CEL701     -0.0334
      8  N2       -31.9940   41.9580   -4.7100 N.ar  701  CEL701     -0.2316
      9  C3       -32.1180   42.8540   -3.7880 C.ar  701  CEL701      0.0752
     10  C5       -32.3290   44.3210   -3.9500 C.ar  701  CEL701      0.0005
     11  C10      -33.3770   44.8620   -3.3430 C.ar  701  CEL701     -0.0523
     12  C9       -33.6310   46.2140   -3.4510 C.ar  701  CEL701     -0.0582
     13  C8       -32.7670   47.0200   -4.1940 C.ar  701  CEL701     -0.0504
     14  C11      -33.0600   48.4890   -4.2850 C.3   701  CEL701     -0.0397
     15  C7       -31.6680   46.4570   -4.8230 C.ar  701  CEL701     -0.0582
     16  C6       -31.4260   45.1440   -4.7240 C.ar  701  CEL701     -0.0523
     17  C2       -32.0280   42.1980   -2.5380 C.ar  701  CEL701     -0.0039
     18  C1       -31.8540   40.9250   -2.7710 C.ar  701  CEL701      0.1662
     19  C4       -31.7000   39.8570   -1.7520 C.3   701  CEL701      0.4360
     20  F3       -32.5930   39.9530   -0.7850 F     701  CEL701     -0.1644
     21  F2       -30.4870   39.9270   -1.2450 F     701  CEL701     -0.1644
     22  F1       -31.8660   38.6780   -2.3110 F     701  CEL701     -0.1644
     23  N1       -31.8210   40.7400   -4.1100 N.ar  701  CEL701     -0.1618
     24  N3       -33.9980   42.3520  -11.0370 N.3   701  CEL701     -0.2035
     25  O2       -31.3540   43.1670  -11.2450 O.2   701  CEL701     -0.1533
     26  O1       -32.0290   40.6090  -11.1630 O.2   701  CEL701     -0.1533
     27 H14C      -33.9720   43.3670   -8.6160 H     701  CEL701      0.0638
     28 H13C      -33.8080   43.3410   -6.1470 H     701  CEL701      0.0639
     29 H17C      -30.3900   40.7980   -6.3490 H     701  CEL701      0.0639
     30 H16C      -30.5180   40.8180   -8.7780 H     701  CEL701      0.0638
     31 H10C      -34.0410   44.2340   -2.7710 H     701  CEL701      0.0624
     32  HC9      -34.4860   46.6490   -2.9570 H     701  CEL701      0.0620
     33 H111      -32.1990   49.0020   -4.6880 H     701  CEL701      0.0278
     34 H112      -33.2770   48.8660   -3.2950 H     701  CEL701      0.0278
     35 H113      -33.9150   48.6440   -4.9270 H     701  CEL701      0.0278
     36  HC7      -31.0020   47.0810   -5.4000 H     701  CEL701      0.0620
     37  HC6      -30.5710   44.7080   -5.2140 H     701  CEL701      0.0624
     38  HC2      -32.0890   42.6660   -1.5690 H     701  CEL701      0.0660
     39 HN31      -34.5750   41.9500  -10.3220 H     701  CEL701      0.1442
     40 HN32      -34.1900   41.8930  -11.9050 H     701  CEL701      0.1442
@<TRIPOS>BOND
     1    40    24    1
     2    25     1    2
     3    26     1    2
     4    24     1    1
     5    24    39    1
     6     1     2    1
     7     2     7   ar
     8     2     3   ar
     9    30     7    1
    10    27     3    1
    11     7     6   ar
    12     3     4   ar
    13     6    29    1
    14     6     5   ar
    15     4    28    1
    16     4     5   ar
    17     5     8    1
    18    36    15    1
    19    37    16    1
    20    35    14    1
    21    15    16   ar
    22    15    13   ar
    23    16    10   ar
    24     8    23   ar
    25     8     9   ar
    26    33    14    1
    27    14    13    1
    28    14    34    1
    29    13    12   ar
    30    23    18   ar
    31    10     9    1
    32    10    11   ar
    33     9    17   ar
    34    12    11   ar
    35    12    32    1
    36    11    31    1
    37    18    17   ar
    38    18    19    1
    39    17    38    1
    40    22    19    1
    41    19    21    1
    42    19    20    1
