@<TRIPOS>MOLECULE
3kki_PLP_A_1.pdb
 16 16 0 0 0
SMALL
GASTEIGER

@<TRIPOS>ATOM
      1  N1        45.9460   27.5460   50.6380 N.2   390  PLP390     -0.2505
      2  C2        44.8770   27.6400   49.7680 C.2   390  PLP390      0.0679
      3  C2A       45.1290   28.1000   48.3590 C.3   390  PLP390      0.0499
      4  C3        43.5910   27.3080   50.2090 C.3   390  PLP390      0.1987
      5  O3        42.5180   27.3990   49.3590 O.3   390  PLP390     -0.2162
      6  C4        43.3710   26.8970   51.5280 C.3   390  PLP390      0.1228
      7  C4A       42.0380   27.2890   52.1130 C.2   390  PLP390      0.2141
      8  O4A       41.3810   26.5440   52.8380 O.2   390  PLP390     -0.2879
      9  C5        44.4710   26.8030   52.3860 C.2   390  PLP390      0.0147
     10  C6        45.7500   27.1300   51.9400 C.2   390  PLP390      0.0926
     11  C5A       44.3030   26.3540   53.8200 C.3   390  PLP390      0.1780
     12  O4P       43.7280   25.0670   53.8160 O.3   390  PLP390     -0.2656
     13  P         43.3010   24.3220   55.1800 P.3   390  PLP390      0.5329
     14  O1P       41.7980   24.2390   55.1420 O.2   390  PLP390     -0.2224
     15  O2P       43.7580   25.1210   56.3760 O.3   390  PLP390     -0.1145
     16  O3P       43.9190   22.9460   55.1900 O.3   390  PLP390     -0.1145
@<TRIPOS>BOND
     1     3     2    1
     2     5     4    1
     3     2     4    1
     4     2     1    2
     5     4     6    1
     6     1    10    1
     7     6     7    1
     8     6     9    1
     9    10     9    2
    10     7     8    2
    11     9    11    1
    12    12    11    1
    13    12    13    1
    14    14    13    2
    15    13    16    1
    16    13    15    1
