@<TRIPOS>MOLECULE
3kkm_GNP_A_1.pdb
 32 34 0 0 0
SMALL
GASTEIGER

@<TRIPOS>ATOM
      1  PG        -6.4300  -13.7700  -17.9350 P.3   167  GNP167      0.4884
      2  O1G       -6.5840  -12.6010  -16.9640 O.3   167  GNP167     -0.1240
      3  O2G       -6.8650  -15.0800  -17.3580 O.3   167  GNP167     -0.1240
      4  O3G       -5.0100  -13.7930  -18.3650 O.2   167  GNP167     -0.2331
      5  N3B       -7.3740  -13.4140  -19.1970 N.3   167  GNP167     -0.0163
      6  PB        -7.6500  -14.3470  -20.5010 P.3   167  GNP167      0.4669
      7  O1B       -6.5250  -14.2970  -21.4950 O.2   167  GNP167     -0.2351
      8  O2B       -7.9850  -15.7320  -20.0950 O.3   167  GNP167     -0.1253
      9  O3A       -8.8710  -13.7620  -21.2180 O.3   167  GNP167     -0.2360
     10  PA       -10.3950  -14.1500  -21.1490 P.3   167  GNP167      0.2220
     11  O1A      -10.8400  -13.9440  -19.7370 O.3   167  GNP167     -0.4370
     12  O2A      -10.6420  -15.4590  -21.7650 O.2   167  GNP167     -0.5170
     13  O5'      -11.1590  -13.0820  -21.9950 O.3   167  GNP167     -0.3111
     14  C5'      -10.9970  -11.6640  -21.7360 C.3   167  GNP167      0.1813
     15  C4'      -12.1670  -10.8910  -22.3130 C.3   167  GNP167      0.1799
     16  O4'      -12.1050  -11.0010  -23.7610 O.3   167  GNP167     -0.3326
     17  C3'      -13.5410  -11.4140  -21.9030 C.3   167  GNP167      0.2158
     18  O3'      -14.4430  -10.3130  -21.8500 O.3   167  GNP167     -0.2175
     19  C2'      -13.8730  -12.3810  -23.0500 C.3   167  GNP167      0.2310
     20  O2'      -15.2410  -12.5480  -23.3250 O.3   167  GNP167     -0.2158
     21  C1'      -13.2780  -11.6340  -24.2360 C.3   167  GNP167      0.2293
     22  N9       -12.8890  -12.4510  -25.3840 N.pl3 167  GNP167     -0.2354
     23  C8       -12.0210  -13.5160  -25.3850 C.3   167  GNP167      0.2246
     24  N7       -11.8350  -14.0440  -26.5670 N.2   167  GNP167     -0.2322
     25  C5       -12.6230  -13.2800  -27.4050 C.2   167  GNP167      0.2182
     26  C6       -12.8030  -13.3560  -28.8110 C.1   167  GNP167      0.2372
     27  O6       -12.2880  -14.1610  -29.6040 O.2   167  GNP167     -0.2069
     28  N1       -13.6640  -12.3750  -29.2970 N.2   167  GNP167     -0.2485
     29  C2       -14.2780  -11.4150  -28.5290 C.1   167  GNP167      0.2531
     30  N2       -15.0810  -10.5690  -29.2030 N.pl3 167  GNP167     -0.0226
     31  N3       -14.1120  -11.3090  -27.2030 N.2   167  GNP167     -0.3074
     32  C4       -13.2700  -12.2680  -26.6970 C.2   167  GNP167      0.2300
@<TRIPOS>BOND
     1    27    26    2
     2    28    26    2
     3    28    29    2
     4    30    29    1
     5    26    25    1
     6    29    31    2
     7    25    32    1
     8    25    24    2
     9    31    32    2
    10    32    22    1
    11    24    23    1
    12    23    22    1
    13    22    21    1
    14    21    16    1
    15    21    19    1
    16    16    15    1
    17    20    19    1
    18    19    17    1
    19    15    17    1
    20    15    14    1
    21    13    14    1
    22    13    10    1
    23    17    18    1
    24    12    10    2
    25     7     6    2
    26     9    10    1
    27     9     6    1
    28    10    11    1
    29     6     8    1
    30     6     5    1
    31     5     1    1
    32     4     1    2
    33     1     3    1
    34     1     2    1
