@<TRIPOS>MOLECULE
3kkn_GNP_A_1.pdb
 32 34 0 0 0
SMALL
GASTEIGER

@<TRIPOS>ATOM
      1  PG        12.8080    9.8910   38.8300 P.3   167  GNP167      0.4884
      2  O1G       13.6240    8.7800   38.2390 O.3   167  GNP167     -0.1240
      3  O2G       12.2310   10.8310   37.7900 O.2   167  GNP167     -0.2331
      4  O3G       13.7080   10.5400   39.8420 O.3   167  GNP167     -0.1240
      5  N3B       11.5720    9.2480   39.6140 N.3   167  GNP167     -0.0163
      6  PB        10.3100   10.0210   40.2140 P.3   167  GNP167      0.4669
      7  O1B       10.6850   10.6210   41.5230 O.3   167  GNP167     -0.1253
      8  O2B        9.7470   10.9690   39.2260 O.2   167  GNP167     -0.2351
      9  O3A        9.2030    8.9990   40.5580 O.3   167  GNP167     -0.2360
     10  PA         8.1410    8.3720   39.6220 P.3   167  GNP167      0.2220
     11  O1A        8.8410    7.9580   38.3890 O.2   167  GNP167     -0.5170
     12  O2A        6.9220    9.1940   39.5130 O.3   167  GNP167     -0.4370
     13  O5'        7.6740    7.0570   40.3760 O.3   167  GNP167     -0.3111
     14  C5'        8.6050    6.0330   40.7780 C.3   167  GNP167      0.1813
     15  C4'        7.8420    4.7300   40.9890 C.3   167  GNP167      0.1799
     16  O4'        7.0280    4.8380   42.1840 O.3   167  GNP167     -0.3326
     17  C3'        6.8560    4.3940   39.8650 C.3   167  GNP167      0.2158
     18  O3'        6.7620    2.9980   39.6950 O.3   167  GNP167     -0.2175
     19  C2'        5.5300    4.9740   40.3660 C.3   167  GNP167      0.2310
     20  O2'        4.3740    4.3530   39.8210 O.3   167  GNP167     -0.2158
     21  C1'        5.6470    4.7390   41.8750 C.3   167  GNP167      0.2293
     22  N9         4.9030    5.7000   42.6980 N.pl3 167  GNP167     -0.2354
     23  C8         4.9040    7.0740   42.6220 C.3   167  GNP167      0.2246
     24  N7         4.1320    7.6460   43.5150 N.2   167  GNP167     -0.2322
     25  C5         3.5940    6.5830   44.2320 C.2   167  GNP167      0.2182
     26  C6         2.6780    6.5630   45.3150 C.1   167  GNP167      0.2372
     27  O6         2.1520    7.5250   45.8870 O.2   167  GNP167     -0.2069
     28  N1         2.3910    5.2550   45.7410 N.2   167  GNP167     -0.2485
     29  C2         2.9270    4.1140   45.1830 C.1   167  GNP167      0.2531
     30  N2         2.5540    2.9380   45.6980 N.pl3 167  GNP167     -0.0226
     31  N3         3.7670    4.1250   44.1640 N.2   167  GNP167     -0.3074
     32  C4         4.0510    5.3850   43.7380 C.2   167  GNP167      0.2300
@<TRIPOS>BOND
     1     3     1    2
     2     2     1    1
     3    11    10    2
     4     1     5    1
     5     1     4    1
     6     8     6    2
     7    12    10    1
     8     5     6    1
     9    10    13    1
    10    10     9    1
    11    18    17    1
    12    20    19    1
    13    17    19    1
    14    17    15    1
    15     6     9    1
    16     6     7    1
    17    19    21    1
    18    13    14    1
    19    14    15    1
    20    15    16    1
    21    21    16    1
    22    21    22    1
    23    23    22    1
    24    23    24    1
    25    22    32    1
    26    24    25    2
    27    32    31    2
    28    32    25    1
    29    31    29    2
    30    25    26    1
    31    29    30    1
    32    29    28    2
    33    26    28    2
    34    26    27    2
