@<TRIPOS>MOLECULE
3kko_GNP_A_1.pdb
 32 34 0 0 0
SMALL
GASTEIGER

@<TRIPOS>ATOM
      1  PG        -5.7130  -37.3090   21.5230 P.3   179  GNP179      0.4884
      2  O1G       -5.0800  -38.4980   22.1810 O.3   179  GNP179     -0.1240
      3  O2G       -7.0230  -37.6500   20.8730 O.3   179  GNP179     -0.1240
      4  O3G       -4.6250  -36.7210   20.6520 O.2   179  GNP179     -0.2331
      5  N3B       -5.9880  -36.1730   22.6430 N.3   179  GNP179     -0.0163
      6  PB        -6.7240  -34.7390   22.4810 P.3   179  GNP179      0.4669
      7  O1B       -5.7710  -33.7360   21.9830 O.3   179  GNP179     -0.1253
      8  O2B       -7.9620  -34.9470   21.6760 O.2   179  GNP179     -0.2351
      9  O3A       -7.1070  -34.2860   23.9220 O.3   179  GNP179     -0.2360
     10  PA        -8.4930  -34.3450   24.6330 P.3   179  GNP179      0.2220
     11  O1A       -8.8490  -35.7660   24.7920 O.3   179  GNP179     -0.4370
     12  O2A       -9.4810  -33.4220   24.0200 O.2   179  GNP179     -0.5170
     13  O5'       -8.2280  -33.7100   26.0480 O.3   179  GNP179     -0.3111
     14  C5'       -7.2440  -34.2980   26.9260 C.3   179  GNP179      0.1813
     15  C4'       -7.5610  -33.9450   28.3720 C.3   179  GNP179      0.1799
     16  O4'       -7.4000  -32.5290   28.5640 O.3   179  GNP179     -0.3326
     17  C3'       -8.9840  -34.2580   28.8250 C.3   179  GNP179      0.2158
     18  O3'       -8.9250  -34.6170   30.1970 O.3   179  GNP179     -0.2175
     19  C2'       -9.7240  -32.9300   28.6930 C.3   179  GNP179      0.2310
     20  O2'      -10.7950  -32.7720   29.6150 O.3   179  GNP179     -0.2158
     21  C1'       -8.6130  -31.9340   28.9950 C.3   179  GNP179      0.2293
     22  N9        -8.7510  -30.6490   28.3100 N.pl3 179  GNP179     -0.2354
     23  C8        -8.8560  -30.4310   26.9470 C.3   179  GNP179      0.2246
     24  N7        -8.9660  -29.1720   26.6350 N.2   179  GNP179     -0.2322
     25  C5        -8.9270  -28.5100   27.8620 C.2   179  GNP179      0.2182
     26  C6        -8.9880  -27.1300   28.1850 C.1   179  GNP179      0.2372
     27  O6        -9.1090  -26.1680   27.4290 O.2   179  GNP179     -0.2069
     28  N1        -8.9150  -26.8890   29.5630 N.2   179  GNP179     -0.2485
     29  C2        -8.7770  -27.8630   30.5250 C.1   179  GNP179      0.2531
     30  N2        -8.7200  -27.4480   31.8100 N.pl3 179  GNP179     -0.0226
     31  N3        -8.7070  -29.1580   30.2410 N.2   179  GNP179     -0.3074
     32  C4        -8.7860  -29.4090   28.9010 C.2   179  GNP179      0.2300
@<TRIPOS>BOND
     1     4     1    2
     2     3     1    1
     3     1     2    1
     4     1     5    1
     5     8     6    2
     6     7     6    1
     7     6     5    1
     8     6     9    1
     9     9    10    1
    10    12    10    2
    11    10    11    1
    12    10    13    1
    13    13    14    1
    14    24    23    1
    15    24    25    2
    16    14    15    1
    17    23    22    1
    18    27    26    2
    19    25    26    1
    20    25    32    1
    21    26    28    2
    22    22    32    1
    23    22    21    1
    24    15    16    1
    25    15    17    1
    26    16    21    1
    27    19    17    1
    28    19    21    1
    29    19    20    1
    30    17    18    1
    31    32    31    2
    32    28    29    2
    33    31    29    2
    34    29    30    1
