@<TRIPOS>MOLECULE
3kkp_GNP_A_1.pdb
 32 34 0 0 0
SMALL
GASTEIGER

@<TRIPOS>ATOM
      1  PG        22.6040   -1.8920    6.9740 P.3   179  GNP179      0.4884
      2  O1G       23.3230   -2.3820    5.7440 O.2   179  GNP179     -0.2331
      3  O2G       23.5270   -1.1850    7.9270 O.3   179  GNP179     -0.1240
      4  O3G       21.8400   -3.0290    7.5770 O.3   179  GNP179     -0.1240
      5  N3B       21.5050   -0.7710    6.5470 N.3   179  GNP179     -0.0163
      6  PB        20.5770    0.1750    7.4930 P.3   179  GNP179      0.4669
      7  O1B       19.3850   -0.5630    7.9820 O.2   179  GNP179     -0.2351
      8  O2B       21.4330    0.7410    8.5600 O.3   179  GNP179     -0.1253
      9  O3A       20.0560    1.3600    6.5920 O.3   179  GNP179     -0.2360
     10  PA        20.6340    2.8270    6.4460 P.3   179  GNP179      0.2220
     11  O1A       22.0380    2.7170    5.9770 O.2   179  GNP179     -0.5170
     12  O2A       20.2920    3.6270    7.6480 O.3   179  GNP179     -0.4370
     13  O5'       19.7370    3.4130    5.2870 O.3   179  GNP179     -0.3111
     14  C5'       19.6650    2.7170    4.0370 C.3   179  GNP179      0.1813
     15  C4'       19.0160    3.5730    2.9610 C.3   179  GNP179      0.1799
     16  O4'       17.6660    3.8890    3.3740 O.3   179  GNP179     -0.3326
     17  C3'       19.6670    4.9210    2.6540 C.3   179  GNP179      0.2158
     18  O3'       19.5510    5.1620    1.2460 O.3   179  GNP179     -0.2175
     19  C2'       18.8480    5.9180    3.4800 C.3   179  GNP179      0.2310
     20  O2'       18.7760    7.2060    2.9260 O.3   179  GNP179     -0.2158
     21  C1'       17.4750    5.2940    3.3820 C.3   179  GNP179      0.2293
     22  N9        16.5740    5.5750    4.4880 N.pl3 179  GNP179     -0.2354
     23  C8        16.7090    5.1970    5.8080 C.3   179  GNP179      0.2246
     24  N7        15.7140    5.5700    6.5560 N.2   179  GNP179     -0.2322
     25  C5        14.8420    6.2110    5.6720 C.2   179  GNP179      0.2182
     26  C6        13.5790    6.8170    5.8970 C.1   179  GNP179      0.2372
     27  O6        12.9560    6.8820    6.9620 O.2   179  GNP179     -0.2069
     28  N1        13.0250    7.3640    4.7370 N.2   179  GNP179     -0.2485
     29  C2        13.6470    7.3220    3.5040 C.1   179  GNP179      0.2531
     30  N2        12.9910    7.8970    2.4870 N.pl3 179  GNP179     -0.0226
     31  N3        14.8240    6.7510    3.2710 N.2   179  GNP179     -0.3074
     32  C4        15.3690    6.2270    4.3950 C.2   179  GNP179      0.2300
@<TRIPOS>BOND
     1    18    17    1
     2    30    29    1
     3    17    15    1
     4    17    19    1
     5    20    19    1
     6    15    16    1
     7    15    14    1
     8    31    29    2
     9    31    32    2
    10    16    21    1
    11    21    19    1
    12    21    22    1
    13    29    28    2
    14    14    13    1
    15    32    22    1
    16    32    25    1
    17    22    23    1
    18    28    26    2
    19    13    10    1
    20    25    26    1
    21    25    24    2
    22     2     1    2
    23    23    24    1
    24    26    27    2
    25    11    10    2
    26    10     9    1
    27    10    12    1
    28     5     1    1
    29     5     6    1
    30     9     6    1
    31     1     4    1
    32     1     3    1
    33     6     7    2
    34     6     8    1
