@<TRIPOS>MOLECULE
3kkq_GDP_A_1.pdb
 28 30 0 0 0
SMALL
GASTEIGER

@<TRIPOS>ATOM
      1  PB         1.5830    8.2000    6.4320 P.3   179  GDP179      0.5373
      2  O1B        2.9450    8.2680    5.7860 O.2   179  GDP179     -0.2221
      3  O2B        0.6310    9.2620    5.9380 O.3   179  GDP179     -0.1143
      4  O3B        0.9770    6.8240    6.3350 O.3   179  GDP179     -0.1143
      5  O3A        1.8610    8.4610    8.0000 O.3   179  GDP179     -0.2261
      6  PA         1.0570    9.4040    9.0280 P.3   179  GDP179      0.2231
      7  O1A       -0.3980    9.0330    9.0810 O.3   179  GDP179     -0.4370
      8  O2A        1.3220   10.8540    8.7660 O.2   179  GDP179     -0.5169
      9  O5'        1.7860    9.0170   10.3980 O.3   179  GDP179     -0.3111
     10  C5'        1.7870    7.6620   10.8490 C.3   179  GDP179      0.1813
     11  C4'        1.8650    7.6400   12.3760 C.3   179  GDP179      0.1799
     12  O4'        3.1250    8.1890   12.7760 O.3   179  GDP179     -0.3326
     13  C3'        0.7990    8.5100   13.0340 C.3   179  GDP179      0.2158
     14  O3'        0.4010    7.9110   14.2740 O.3   179  GDP179     -0.2175
     15  C2'        1.5040    9.8170   13.3130 C.3   179  GDP179      0.2310
     16  O2'        1.0030   10.4900   14.4640 O.3   179  GDP179     -0.2158
     17  C1'        2.9160    9.3580   13.5750 C.3   179  GDP179      0.2293
     18  N9         3.8980   10.3760   13.1770 N.pl3 179  GDP179     -0.2354
     19  C8         3.9760   11.0330   11.9970 C.3   179  GDP179      0.2246
     20  N7         5.0230   11.8790   11.9830 N.2   179  GDP179     -0.2322
     21  C5         5.6290   11.7620   13.1820 C.2   179  GDP179      0.2182
     22  C6         6.8010   12.3610   13.8320 C.1   179  GDP179      0.2372
     23  O6         7.5120   13.2050   13.2570 O.2   179  GDP179     -0.2069
     24  N1         7.0850   11.9470   15.0780 N.2   179  GDP179     -0.2485
     25  C2         6.3570   11.0300   15.7420 C.1   179  GDP179      0.2531
     26  N2         6.7380   10.6980   16.9960 N.pl3 179  GDP179     -0.0226
     27  N3         5.2690   10.4300   15.2170 N.2   179  GDP179     -0.3074
     28  C4         4.8890   10.7670   13.9600 C.2   179  GDP179      0.2300
@<TRIPOS>BOND
     1     2     1    2
     2     3     1    1
     3     4     1    1
     4     1     5    1
     5     5     6    1
     6     8     6    2
     7     6     7    1
     8     6     9    1
     9     9    10    1
    10    10    11    1
    11    20    19    1
    12    20    21    2
    13    19    18    1
    14    11    12    1
    15    11    13    1
    16    12    17    1
    17    13    15    1
    18    13    14    1
    19    18    17    1
    20    18    28    1
    21    21    22    1
    22    21    28    1
    23    23    22    2
    24    15    17    1
    25    15    16    1
    26    22    24    2
    27    28    27    2
    28    24    25    2
    29    27    25    2
    30    25    26    1
