@<TRIPOS>MOLECULE
3kkt_0CP_A_1.pdb
 23 26 0 0 0
SMALL
GASTEIGER

@<TRIPOS>ATOM
      1  C1        38.8330   -5.5050  -31.3110 C.3     2  0CP2        0.2526
      2  N1        32.0900  -11.0480  -31.4560 N.2     2  0CP2       -0.1865
      3  O1        37.8710   -5.8250  -32.3220 O.3     2  0CP2       -0.4684
      4  C2        37.0250   -6.9040  -32.2040 C.ar    2  0CP2        0.1724
      5  N2        33.3770  -12.2630  -32.9420 N.2     2  0CP2       -0.1865
      6  O2        36.5210   -6.6910  -34.5860 O.3     2  0CP2       -0.4761
      7  C3        36.3060   -7.3790  -33.4120 C.ar    2  0CP2        0.1717
      8  O3        31.7020  -13.2100  -31.8390 O.2     2  0CP2       -0.2023
      9  C4        36.4800   -7.2850  -35.8810 C.3     2  0CP2        0.1659
     10  C5        35.0400   -7.3560  -36.3890 C.3     2  0CP2        0.0435
     11  C6        35.0680   -6.5260  -37.6620 C.3     2  0CP2        0.0037
     12  C7        35.8750   -7.2940  -38.6980 C.3     2  0CP2        0.0002
     13  C8        37.3130   -7.1690  -38.1810 C.3     2  0CP2        0.0036
     14  C9        37.1450   -6.3770  -36.8960 C.3     2  0CP2        0.0401
     15  C10       36.0350   -5.4310  -37.2720 C.3     2  0CP2        0.0037
     16  C11       35.4380   -8.4700  -33.2970 C.ar    2  0CP2        0.0359
     17  C12       35.2670   -9.1120  -32.0630 C.ar    2  0CP2       -0.0153
     18  C13       35.9600   -8.6630  -30.9350 C.ar    2  0CP2       -0.0008
     19  C14       36.8270   -7.5720  -30.9940 C.ar    2  0CP2        0.0397
     20  C15       34.3660  -10.2860  -31.8960 C.3     2  0CP2        0.0729
     21  C16       32.9360   -9.8670  -31.5690 C.3     2  0CP2        0.1457
     22  C17       32.3650  -12.2080  -32.0680 C.1     2  0CP2        0.2386
     23  C18       34.3300  -11.1800  -33.1330 C.3     2  0CP2        0.1457
@<TRIPOS>BOND
     1    12    13    1
     2    12    11    1
     3    13    14    1
     4    11    15    1
     5    11    10    1
     6    15    14    1
     7    14     9    1
     8    10     9    1
     9     9     6    1
    10     6     7    1
    11     7    16   ar
    12     7     4   ar
    13    16    17   ar
    14    23     5    1
    15    23    20    1
    16     5    22    2
    17     3     4    1
    18     3     1    1
    19     4    19   ar
    20    22     8    2
    21    22     2    2
    22    17    20    1
    23    17    18   ar
    24    20    21    1
    25    21     2    1
    26    19    18   ar
