@<TRIPOS>MOLECULE
3kku_B95_A_1.pdb
 23 25 0 0 0
SMALL
GASTEIGER

@<TRIPOS>ATOM
      1  OAA       -5.5420  -36.4310   -0.0900 O.2   216  B95216     -0.2693
      2 BRAB       -0.1270  -36.6070    0.3810 Br    216  B95216     -0.0458
      3  CAC       -0.6660  -39.3060    3.4620 C.ar  216  B95216      0.0007
      4  CAD       -1.8790  -38.8910    4.0080 C.ar  216  B95216      0.0031
      5  CAE       -5.1660  -39.1690    7.4190 C.ar  216  B95216      0.0028
      6  CAF       -5.8960  -38.2040    8.1000 C.ar  216  B95216      0.0028
      7  CAG       -0.1230  -38.5960    2.3990 C.ar  216  B95216      0.0097
      8  CAH       -2.5910  -37.8140    3.4980 C.ar  216  B95216      0.0374
      9  CAI       -5.2100  -39.2530    6.0340 C.ar  216  B95216      0.0357
     10  CAJ       -6.6940  -37.3010    7.4200 C.ar  216  B95216      0.0357
     11  CAK       -6.7890  -35.3970    2.1840 C.3   216  B95216      0.1333
     12  CAL       -7.6110  -36.6110    2.5850 C.3   216  B95216      0.1481
     13  CAM       -3.3610  -36.2330    0.6970 C.3   216  B95216      0.2911
     14  NAN       -6.2260  -38.1870    4.0100 N.2   216  B95216     -0.3410
     15  NAO       -5.3620  -35.6640    2.0160 N.am  216  B95216     -0.2011
     16  NAP       -7.3660  -36.6420    5.0990 N.2   216  B95216     -0.3410
     17  OAQ       -2.7200  -36.0360    1.9270 O.3   216  B95216     -0.4651
     18  CAR       -4.8420  -36.1010    0.8560 C.2   216  B95216      0.2859
     19  CAS       -0.8350  -37.5090    1.8830 C.ar  216  B95216      0.0685
     20  CAT       -7.0670  -37.1420    3.8720 C.1   216  B95216      0.1153
     21  CAU       -2.0520  -37.1190    2.4370 C.ar  216  B95216      0.1454
     22  CAV       -6.0000  -38.3500    5.3360 C.ar  216  B95216      0.1738
     23  CAW       -6.7200  -37.3780    6.0280 C.ar  216  B95216      0.1738
@<TRIPOS>BOND
     1     1    18    2
     2     2    19    1
     3    13    18    1
     4    13    17    1
     5    18    15   am
     6    19     7   ar
     7    19    21   ar
     8    17    21    1
     9    15    11    1
    10    11    12    1
    11     7     3   ar
    12    21     8   ar
    13    12    20    1
    14     3     4   ar
    15     8     4   ar
    16    20    14    2
    17    20    16    2
    18    14    22    2
    19    16    23    2
    20    22    23   ar
    21    22     9   ar
    22    23    10   ar
    23     9     5   ar
    24     5     6   ar
    25    10     6   ar
