@<TRIPOS>MOLECULE
3kkv_B99_A_1.pdb
 35 40 0 0 0
SMALL
GASTEIGER

@<TRIPOS>ATOM
      1  C1       -30.6920  -10.5550   -5.4560 C.3   351  B99351      0.0499
      2  C2       -31.3710  -10.3550   -4.1640 C.2   351  B99351      0.0680
      3  N1       -32.7270  -10.2440   -4.0610 N.2   351  B99351     -0.1563
      4  N2       -33.1540  -10.0650   -2.7990 N.2   351  B99351     -0.1523
      5  C3       -32.0470  -10.0570   -2.0430 C.2   351  B99351      0.0895
      6  C4       -31.9020   -9.9060   -0.6840 C.2   351  B99351      0.0172
      7  C5       -30.5730   -9.9610   -0.3120 C.2   351  B99351      0.0010
      8  C6       -29.4820  -10.1420   -1.1450 C.2   351  B99351     -0.0020
      9  C7       -29.5960  -10.2910   -2.5140 C.2   351  B99351     -0.0147
     10  C8       -30.9230  -10.2350   -2.8690 C.3   351  B99351      0.1016
     11  C9       -28.1770  -10.1700   -0.5470 C.ar  351  B99351      0.0205
     12  C10      -27.2100   -9.2730   -0.9390 C.ar  351  B99351      0.0400
     13  C11      -25.9870   -9.3620   -0.3150 C.ar  351  B99351      0.1577
     14  O1       -24.9700   -8.4930   -0.6440 O.3   351  B99351     -0.4723
     15  C12      -24.8460   -8.6290   -2.0450 C.3   351  B99351      0.2246
     16  C13      -23.5540   -7.9640   -2.4580 C.3   351  B99351      0.1394
     17  N3       -23.0400   -7.1990   -1.2980 N.3   351  B99351     -0.1286
     18  C14      -22.5030   -9.0060   -2.7410 C.3   351  B99351      0.0471
     19  C15      -22.1800   -9.7760   -1.5330 C.2   351  B99351     -0.0143
     20  C16      -21.5750   -9.2940   -0.3950 C.2   351  B99351      0.0907
     21  N4       -21.4610  -10.3350    0.4770 N.2   351  B99351     -0.2482
     22  C17      -21.9740  -11.4780   -0.0640 C.2   351  B99351      0.0665
     23  C18      -22.0430  -12.7280    0.4990 C.2   351  B99351      0.0153
     24  C19      -22.6190  -13.6770   -0.3070 C.2   351  B99351      0.0009
     25  C20      -23.0810  -13.3880   -1.5660 C.2   351  B99351     -0.0038
     26  C21      -23.0080  -12.1320   -2.1160 C.2   351  B99351     -0.0164
     27  C22      -22.4330  -11.1560   -1.3280 C.3   351  B99351      0.0819
     28  C23      -25.7600  -10.3100    0.6530 C.ar  351  B99351      0.1356
     29  N5       -26.6780  -11.1910    1.0480 N.ar  351  B99351     -0.2406
     30  C24      -27.8560  -11.0870    0.4300 C.ar  351  B99351      0.0846
     31  C25      -28.8350  -12.0350    0.8720 C.ar  351  B99351      0.0584
     32  C26      -29.6960  -12.9000    0.1540 C.ar  351  B99351      0.0453
     33  C27      -30.4300  -13.5760    1.1030 C.ar  351  B99351      0.1798
     34  O2       -30.0640  -13.1770    2.3520 O.2   351  B99351     -0.4473
     35  C28      -29.0920  -12.2350    2.2080 C.ar  351  B99351      0.1812
@<TRIPOS>BOND
     1     1     2    1
     2     2     3    2
     3     2    10    1
     4     3     4    1
     5    10     9    1
     6    10     5    1
     7     4     5    2
     8    18    16    1
     9    18    19    1
    10     9     8    2
    11    16    15    1
    12    16    17    1
    13    26    25    2
    14    26    27    1
    15    15    14    1
    16     5     6    1
    17    25    24    1
    18    19    27    1
    19    19    20    2
    20    27    22    1
    21     8    11    1
    22     8     7    1
    23    12    11   ar
    24    12    13   ar
    25     6     7    2
    26    14    13    1
    27    11    30   ar
    28    20    21    1
    29    13    28   ar
    30    24    23    2
    31    22    21    2
    32    22    23    1
    33    32    31   ar
    34    32    33   ar
    35    30    31    1
    36    30    29   ar
    37    28    29   ar
    38    31    35   ar
    39    33    34   ar
    40    35    34   ar
