@<TRIPOS>MOLECULE
3kkz_SAM_A_1.pdb
 27 29 0 0 0
SMALL
GASTEIGER

@<TRIPOS>ATOM
      1  N         38.2670   59.6270   19.4890 N.3   301  SAM301     -0.1208
      2  CA        39.4220   60.4540   19.6590 C.3   301  SAM301      0.1952
      3  C         39.0460   61.9570   19.6270 C.2   301  SAM301      0.3819
      4  O         37.9010   62.1890   19.2980 O.co2 301  SAM301     -0.2441
      5  OXT       39.9970   62.6120   20.0340 O.co2 301  SAM301     -0.2441
      6  CB        40.6250   60.1410   18.6450 C.3   301  SAM301      0.0414
      7  CG        40.2450   60.7370   17.3770 C.3   301  SAM301      0.0503
      8  SD        41.3810   60.2390   15.9810 S.3   301  SAM301     -0.1761
      9  CE        41.1520   61.4630   14.6490 C.3   301  SAM301      0.0590
     10  C5'       41.1040   58.4860   15.4080 C.3   301  SAM301      0.0806
     11  C4'       41.4330   57.4050   16.4220 C.3   301  SAM301      0.1622
     12  O4'       41.1420   56.1340   15.8340 O.3   301  SAM301     -0.3153
     13  C3'       42.9620   57.3730   16.7260 C.3   301  SAM301      0.2168
     14  O3'       43.1580   57.3240   18.1030 O.3   301  SAM301     -0.2175
     15  C2'       43.4560   56.1050   15.9520 C.3   301  SAM301      0.2569
     16  O2'       44.5080   55.4150   16.5540 O.3   301  SAM301     -0.2130
     17  C1'       42.1750   55.2030   16.0620 C.3   301  SAM301      0.3185
     18  N9        42.1020   54.0710   15.1010 N.pl3 301  SAM301     -0.1439
     19  C8        42.3820   53.9800   13.6930 C.3   301  SAM301      0.3377
     20  N7        42.1220   52.8050   13.1720 N.2   301  SAM301     -0.2095
     21  C5        41.6290   52.0090   14.1960 C.2   301  SAM301      0.2526
     22  C6        41.1750   50.6530   14.2410 C.2   301  SAM301      0.4393
     23  N6        41.1350   49.8150   13.1780 N.pl3 301  SAM301      0.2180
     24  N1        40.7430   50.1610   15.4500 N.2   301  SAM301      0.0021
     25  C2        40.7690   50.9960   16.5330 C.3   301  SAM301      0.5254
     26  N3        41.1690   52.2960   16.6200 N.2   301  SAM301     -0.0055
     27  C4        41.6040   52.7730   15.4010 C.2   301  SAM301      0.3518
@<TRIPOS>BOND
     1    20    19    1
     2    20    21    2
     3    23    22    1
     4    19    18    1
     5    21    22    1
     6    21    27    1
     7    22    24    2
     8     9     8    1
     9    18    27    1
    10    18    17    1
    11    27    26    2
    12    10     8    1
    13    10    11    1
    14    24    25    1
    15    12    17    1
    16    12    11    1
    17    15    17    1
    18    15    16    1
    19    15    13    1
    20     8     7    1
    21    11    13    1
    22    25    26    1
    23    13    14    1
    24     7     6    1
    25     6     2    1
    26     4     3   ar
    27     1     2    1
    28     3     2    1
    29     3     5   ar
