@<TRIPOS>MOLECULE
3kl0_HIS_A_1.pdb
 10 10 0 0 0
SMALL
GASTEIGER

@<TRIPOS>ATOM
      1  N         56.6280   64.9310   14.3390 N.3   405  HIS405     -0.1241
      2  CA        57.9920   64.9010   13.7330 C.3   405  HIS405      0.1618
      3  C         58.0120   65.5030   12.3210 C.2   405  HIS405      0.2264
      4  O         59.0960   65.6620   11.7320 O.2   405  HIS405     -0.2867
      5  CB        58.5560   63.4620   13.7450 C.3   405  HIS405      0.0704
      6  CG        57.5540   62.4330   13.3290 C.2   405  HIS405      0.0649
      7  ND1       56.6920   61.8400   14.2230 N.2   405  HIS405     -0.2310
      8  CD2       57.2430   61.9280   12.1100 C.3   405  HIS405      0.1683
      9  CE1       55.9030   60.9970   13.5760 C.2   405  HIS405      0.1939
     10  NE2       56.2160   61.0330   12.2930 N.2   405  HIS405     -0.2440
@<TRIPOS>BOND
     1     4     3    2
     2     8    10    1
     3     8     6    1
     4    10     9    2
     5     3     2    1
     6     6     5    1
     7     6     7    2
     8     9     7    1
     9     2     5    1
    10     2     1    1
