@<TRIPOS>MOLECULE
3kl3_DHI_A_1.pdb
 11 11 0 0 0
SMALL
GASTEIGER

@<TRIPOS>ATOM
      1  N        -73.7250   35.4550    7.0440 N.3   403  DHI403     -0.1204
      2  CA       -73.5220   34.6650    5.7870 C.3   403  DHI403      0.2002
      3  C        -74.8100   33.8750    5.4930 C.2   403  DHI403      0.3823
      4  O        -75.6120   34.1910    4.6070 O.co2 403  DHI403     -0.2440
      5  CB       -73.1160   35.5750    4.6040 C.3   403  DHI403      0.0776
      6  CG       -72.3170   36.7910    5.0810 C.2   403  DHI403      0.0767
      7  ND1      -71.0200   36.8100    5.3700 N.2   403  DHI403     -0.2470
      8  CD2      -72.8010   38.0120    5.2960 C.2   403  DHI403      0.1098
      9  CE1      -70.7040   38.0440    5.7620 C.3   403  DHI403      0.2505
     10  NE2      -71.8060   38.7890    5.7140 N.2   403  DHI403     -0.2415
     11  OXT      -75.0820   32.8940    6.1840 O.co2 403  DHI403     -0.2440
@<TRIPOS>BOND
     1     5     6    1
     2     5     2    1
     3     4     3   ar
     4     6     8    1
     5     6     7    2
     6     8    10    2
     7     7     9    1
     8     3     2    1
     9     3    11   ar
    10    10     9    1
    11     2     1    1
