@<TRIPOS>MOLECULE
3kl3_BDP_B_1.pdb
 13 13 0 0 0
SMALL
GASTEIGER

@<TRIPOS>ATOM
      1  C1       -80.3600   24.8240   17.5010 C.3   402  BDP402      0.3028
      2  C2       -79.5640   24.1060   16.4090 C.3   402  BDP402      0.2435
      3  C3       -80.5620   23.2940   15.5950 C.3   402  BDP402      0.2204
      4  C4       -81.1730   22.2530   16.5280 C.3   402  BDP402      0.2229
      5  C5       -81.7880   22.9190   17.7690 C.3   402  BDP402      0.2530
      6  C6       -82.2910   21.8510   18.7450 C.2   402  BDP402      0.3941
      7  O2       -78.8410   25.0140   15.5990 O.3   402  BDP402     -0.2148
      8  O3       -79.9360   22.6890   14.4890 O.3   402  BDP402     -0.2174
      9  O4       -82.1670   21.5260   15.8460 O.3   402  BDP402     -0.2171
     10  O5       -80.8920   23.8450   18.3950 O.3   402  BDP402     -0.3149
     11  O6A      -83.5220   21.7340   18.8810 O.co2 402  BDP402     -0.2429
     12  O1       -79.5310   25.7700   18.1480 O.3   402  BDP402     -0.1869
     13  O6B      -81.4690   21.1300   19.3500 O.co2 402  BDP402     -0.2429
@<TRIPOS>BOND
     1     8     3    1
     2     3     2    1
     3     3     4    1
     4     7     2    1
     5     9     4    1
     6     2     1    1
     7     4     5    1
     8     1    12    1
     9     1    10    1
    10     5    10    1
    11     5     6    1
    12     6    11   ar
    13     6    13   ar
