@<TRIPOS>MOLECULE
3kl3_GCU_A_1.pdb
 13 13 0 0 0
SMALL
GASTEIGER

@<TRIPOS>ATOM
      1  C1       -95.4350   46.7940  -10.2010 C.3   402  GCU402      0.3028
      2  C2       -96.3950   45.7990   -9.5240 C.3   402  GCU402      0.2435
      3  C3       -97.2500   46.4400   -8.4380 C.3   402  GCU402      0.2204
      4  C4       -96.3660   47.3510   -7.6090 C.3   402  GCU402      0.2229
      5  C5       -95.9200   48.5270   -8.4740 C.3   402  GCU402      0.2530
      6  C6       -94.7720   49.3090   -7.8400 C.2   402  GCU402      0.3941
      7  O1       -95.6020   46.7680  -11.6030 O.3   402  GCU402     -0.1869
      8  O2       -97.2360   45.1640  -10.4630 O.3   402  GCU402     -0.2148
      9  O3       -97.8380   45.4450   -7.6370 O.3   402  GCU402     -0.2174
     10  O4       -97.0890   47.8450   -6.5100 O.3   402  GCU402     -0.2171
     11  O5       -95.5710   48.1510   -9.8030 O.3   402  GCU402     -0.3149
     12  O6A      -95.0780   50.3300   -7.1950 O.co2 402  GCU402     -0.2429
     13  O6B      -93.5940   48.9150   -7.9790 O.co2 402  GCU402     -0.2429
@<TRIPOS>BOND
     1     7     1    1
     2     8     2    1
     3     1    11    1
     4     1     2    1
     5    11     5    1
     6     2     3    1
     7     5     6    1
     8     5     4    1
     9     3     9    1
    10     3     4    1
    11    13     6   ar
    12     6    12   ar
    13     4    10    1
