@<TRIPOS>MOLECULE
3kl5_GCV_A_1.pdb
 14 14 0 0 0
SMALL
GASTEIGER

@<TRIPOS>ATOM
      1  C7        61.6440   70.6560    9.6530 C.3   402  GCV402      0.1742
      2  C1        58.3360   66.7000    7.9200 C.3   402  GCV402      0.3028
      3  C2        59.0980   66.6500    9.2500 C.3   402  GCV402      0.2434
      4  C3        59.4760   68.0710    9.7530 C.3   402  GCV402      0.2172
      5  C4        60.2430   68.9100    8.6850 C.3   402  GCV402      0.1864
      6  C5        59.5100   68.7990    7.3220 C.3   402  GCV402      0.2497
      7  C6        60.2550   69.4350    6.1350 C.2   402  GCV402      0.3940
      8  O1        57.0120   67.2780    8.0900 O.3   402  GCV402     -0.1869
      9  O2        58.3140   65.9510   10.2190 O.3   402  GCV402     -0.2148
     10  O3        60.2460   67.9660   10.9630 O.3   402  GCV402     -0.2175
     11  O4        60.3850   70.3350    9.0040 O.3   402  GCV402     -0.3478
     12  O5        59.1720   67.4050    6.9510 O.3   402  GCV402     -0.3149
     13  O6A       61.4920   69.2980    6.0480 O.co2 402  GCV402     -0.2429
     14  O6B       59.5600   70.0520    5.3000 O.co2 402  GCV402     -0.2429
@<TRIPOS>BOND
     1    14     7   ar
     2    13     7   ar
     3     7     6    1
     4    12     6    1
     5    12     2    1
     6     6     5    1
     7     2     8    1
     8     2     3    1
     9     5    11    1
    10     5     4    1
    11    11     1    1
    12     3     4    1
    13     3     9    1
    14     4    10    1
