@<TRIPOS>MOLECULE
3kl6_443_A_1.pdb
 32 35 0 0 0
SMALL
GASTEIGER

@<TRIPOS>ATOM
      1  C4         1.8430   -9.1500  -16.5290 C.3     1  4431        0.1981
      2  C8         4.4350   -8.0650  -16.3690 C.ar    1  4431        0.1058
      3  C10        6.1080   -7.5760  -14.7230 C.ar    1  4431        0.0013
      4  C13        6.3900   -3.9080  -14.3980 C.ar    1  4431        0.0577
      5  C15        5.4380   -3.4900  -15.3520 C.ar    1  4431        0.0114
      6  C17        4.9240   -5.7800  -15.8780 C.ar    1  4431        0.0013
      7  C22       -1.4730  -10.5620  -13.1870 C.3     1  4431        0.0952
      8  C24       -0.6470  -10.9160  -10.8590 C.3     1  4431        0.0874
      9  C26        0.9450  -11.1940  -12.7730 C.3     1  4431        0.0952
     10  C28        0.0020   -9.4580   -8.8660 C.3     1  4431        0.1048
     11  O1         2.4780   -9.0860  -14.1740 O.3     1  4431       -0.2113
     12  C2         1.7620   -9.8460  -15.1700 C.3     1  4431        0.2513
     13  S5         3.4910   -9.2420  -17.2640 S.O2    1  4431        0.0117
     14  O6         4.0900  -10.5140  -16.9920 O.2     1  4431       -0.1685
     15  O7         3.3890   -8.7440  -18.5940 O.2     1  4431       -0.1685
     16  C9         5.3910   -8.4820  -15.4340 C.ar    1  4431        0.0183
     17  C11        5.8930   -6.2020  -14.9260 C.ar    1  4431        0.0009
     18  C12        6.6140   -5.2410  -14.2010 C.ar    1  4431        0.0114
     19 CL14        7.2870   -2.7420  -13.4710 Cl      1  4431       -0.0822
     20  C16        4.7170   -4.3970  -16.0770 C.ar    1  4431        0.0009
     21  C18        4.2010   -6.7420  -16.6030 C.ar    1  4431        0.0183
     22  C19        0.3040   -9.9030  -14.7670 C.2     1  4431        0.2580
     23  O20       -0.5350   -9.3670  -15.4730 O.2     1  4431       -0.2721
     24  N21       -0.0590  -10.5200  -13.6180 N.am    1  4431       -0.2773
     25  C23       -1.5500  -10.0320  -11.7370 C.3     1  4431        0.0421
     26  C25        0.8120  -10.7620  -11.3100 C.3     1  4431        0.0421
     27  N27       -0.7190  -10.6220   -9.4150 N.am    1  4431       -0.2382
     28  C29       -0.6430   -8.9470   -7.5730 C.3     1  4431        0.0495
     29  C30       -0.8380  -10.1060   -6.5880 C.3     1  4431        0.1409
     30  N31       -1.4890  -11.2330   -7.2580 N.2     1  4431       -0.1900
     31  C32       -1.4060  -11.4380   -8.5860 C.1     1  4431        0.2109
     32  O33       -1.9810  -12.4010   -9.0530 O.2     1  4431       -0.2063
@<TRIPOS>BOND
     1    15    13    2
     2    13    14    2
     3    13     1    1
     4    13     2    1
     5    21     2   ar
     6    21     6   ar
     7     1    12    1
     8     2    16   ar
     9    20     6   ar
    10    20     5   ar
    11     6    17   ar
    12    23    22    2
    13    16     3   ar
    14     5     4   ar
    15    12    22    1
    16    12    11    1
    17    17     3   ar
    18    17    18   ar
    19    22    24   am
    20     4    18   ar
    21     4    19    1
    22    24     7    1
    23    24     9    1
    24     7    25    1
    25     9    26    1
    26    25     8    1
    27    26     8    1
    28     8    27    1
    29    27    10    1
    30    27    31   am
    31    32    31    2
    32    10    28    1
    33    31    30    2
    34    28    29    1
    35    30    29    1
