@<TRIPOS>MOLECULE
3klb_FMN_A_1.pdb
 31 33 0 0 0
SMALL
GASTEIGER

@<TRIPOS>ATOM
      1  N1        25.6030   -2.8300   27.4120 N.2   162  FMN162     -0.2887
      2  C2        24.6720   -2.6100   26.4490 C.1   162  FMN162      0.3669
      3  O2        24.8860   -2.8540   25.2380 O.2   162  FMN162     -0.1744
      4  N3        23.4890   -1.9990   26.8220 N.2   162  FMN162     -0.2300
      5  C4        23.2130   -1.7120   28.1610 C.1   162  FMN162      0.2513
      6  O4        22.1250   -1.1600   28.4440 O.2   162  FMN162     -0.2057
      7  C4A       24.1400   -2.0520   29.1350 C.2   162  FMN162      0.2706
      8  N5        23.8700   -1.8690   30.4880 N.2   162  FMN162     -0.3841
      9  C5A       24.7870   -2.2560   31.4340 C.2   162  FMN162      0.1452
     10  C6        24.4720   -2.0810   32.8020 C.2   162  FMN162      0.0252
     11  C7        25.4440   -2.3490   33.7640 C.2   162  FMN162     -0.0375
     12  C7M       25.1130   -2.1290   35.2330 C.3   162  FMN162      0.0268
     13  C8        26.7140   -2.8040   33.3680 C.3   162  FMN162      0.0417
     14  C8M       27.8350   -3.1520   34.3300 C.3   162  FMN162      0.0091
     15  C9        27.0270   -2.9900   32.0140 C.2   162  FMN162     -0.0049
     16  C9A       26.0700   -2.7250   31.0560 C.2   162  FMN162      0.0795
     17  N10       26.3490   -2.8810   29.6960 N.pl3 162  FMN162     -0.2545
     18  C10       25.3650   -2.6060   28.7680 C.2   162  FMN162      0.2449
     19  C1'       27.7060   -3.3100   29.2730 C.3   162  FMN162      0.1336
     20  C2'       28.7150   -2.1670   29.3150 C.3   162  FMN162      0.2048
     21  O2'       28.1810   -1.0280   28.6260 O.3   162  FMN162     -0.2185
     22  C3'       29.9910   -2.6200   28.6060 C.3   162  FMN162      0.2165
     23  O3'       30.4060   -3.8980   29.0950 O.3   162  FMN162     -0.2175
     24  C4'       31.1070   -1.5740   28.7310 C.3   162  FMN162      0.2147
     25  O4'       32.0940   -1.7060   27.7200 O.3   162  FMN162     -0.2176
     26  C5'       31.8410   -1.6500   30.0320 C.3   162  FMN162      0.1892
     27  O5'       32.6880   -0.5430   30.0920 O.3   162  FMN162     -0.2674
     28  P         33.7960   -0.3670   31.2390 P.3   162  FMN162      0.5327
     29  O1P       34.7360   -1.5880   31.1840 O.3   162  FMN162     -0.1145
     30  O2P       33.2370   -0.3350   32.6390 O.3   162  FMN162     -0.1145
     31  O3P       34.5950    0.8670   30.9070 O.2   162  FMN162     -0.2224
@<TRIPOS>BOND
     1     3     2    2
     2     2     4    2
     3     2     1    2
     4     4     5    2
     5     1    18    2
     6    25    24    1
     7     5     6    2
     8     5     7    1
     9    22    24    1
    10    22    23    1
    11    22    20    1
    12    21    20    1
    13    24    26    1
    14    18     7    1
    15    18    17    1
    16     7     8    2
    17    19    20    1
    18    19    17    1
    19    17    16    1
    20    26    27    1
    21    27    28    1
    22     8     9    2
    23    31    28    2
    24    16     9    1
    25    16    15    2
    26    29    28    1
    27    28    30    1
    28     9    10    1
    29    15    13    1
    30    10    11    2
    31    13    11    1
    32    13    14    1
    33    11    12    1
