@<TRIPOS>MOLECULE
3kll_MAL_A_1.pdb
 23 24 0 0 0
SMALL
GASTEIGER

@<TRIPOS>ATOM
      1  C1         4.5470    1.5850   -8.4690 C.3   1779  MAL1779     0.2695
      2  C2         6.0800    1.3030   -8.4930 C.3   1779  MAL1779     0.2406
      3  C3         6.6660    1.0770   -7.0810 C.3   1779  MAL1779     0.2198
      4  C4         6.3280    2.3380   -6.2430 C.3   1779  MAL1779     0.2144
      5  C5         4.8180    2.7420   -6.3240 C.3   1779  MAL1779     0.1835
      6  C6         4.5260    4.0960   -5.6850 C.3   1779  MAL1779     0.2142
      7  O1         3.7960    0.4240   -8.0650 O.3   1779  MAL1779    -0.3257
      8  O2         6.4080    0.2150   -9.3170 O.3   1779  MAL1779    -0.2149
      9  O3         8.0770    0.7530   -7.0840 O.3   1779  MAL1779    -0.2174
     10  O4         6.8270    2.1840   -4.9210 O.3   1779  MAL1779    -0.2176
     11  O5         4.2880    2.7350   -7.6670 O.3   1779  MAL1779    -0.3256
     12  O6         3.1380    4.3250   -5.5210 O.3   1779  MAL1779    -0.2176
     13  C1'        0.0430   -1.4130   -9.1420 C.3   1779  MAL1779     0.3023
     14  C2'        1.3520   -2.1330   -9.5530 C.3   1779  MAL1779     0.2433
     15  C3'        2.6550   -1.5140   -8.9980 C.3   1779  MAL1779     0.2168
     16  C4'        2.5730   -0.0210   -8.6780 C.3   1779  MAL1779     0.1804
     17  C5'        1.4050    0.1380   -7.7060 C.3   1779  MAL1779     0.1804
     18  C6'        1.1220    1.5920   -7.3230 C.3   1779  MAL1779     0.2141
     19  O1'       -1.0410   -2.3020   -8.8310 O.3   1779  MAL1779    -0.1869
     20  O2'        1.2640   -3.5150   -9.2470 O.3   1779  MAL1779    -0.2148
     21  O3'        3.7070   -1.7060   -9.9090 O.3   1779  MAL1779    -0.2175
     22  O5'        0.1640   -0.4440   -8.1010 O.3   1779  MAL1779    -0.3237
     23  O6'        0.7140    2.2820   -8.4750 O.3   1779  MAL1779    -0.2176
@<TRIPOS>BOND
     1    21    15    1
     2    14    20    1
     3    14    13    1
     4    14    15    1
     5     8     2    1
     6    13    19    1
     7    13    22    1
     8    15    16    1
     9    16     7    1
    10    16    17    1
    11     2     1    1
    12     2     3    1
    13    23    18    1
    14     1     7    1
    15     1    11    1
    16    22    17    1
    17    17    18    1
    18    11     5    1
    19     9     3    1
    20     3     4    1
    21     5     4    1
    22     5     6    1
    23     4    10    1
    24     6    12    1
