@<TRIPOS>MOLECULE
3klm_DHT_X_1.pdb
 21 24 0 0 0
SMALL
GASTEIGER

@<TRIPOS>ATOM
      1  C1        12.9560    6.8570  -13.1940 C.3   732  DHT732      0.0078
      2  C2        13.8000    5.6760  -12.6710 C.3   732  DHT732      0.0645
      3  C3        14.0510    5.7240  -11.1710 C.2   732  DHT732      0.1506
      4  O3        15.1190    5.3670  -10.7140 O.2   732  DHT732     -0.2961
      5  C4        12.9820    6.2450  -10.2390 C.3   732  DHT732      0.0645
      6  C5        12.5690    7.5750  -10.8640 C.3   732  DHT732      0.0073
      7  C6        11.7990    8.4170   -9.8580 C.3   732  DHT732      0.0004
      8  C7        11.5720    9.7910  -10.4860 C.3   732  DHT732      0.0000
      9  C8        10.6880    9.6740  -11.7240 C.3   732  DHT732      0.0001
     10  C9        11.4120    8.8070  -12.7750 C.3   732  DHT732      0.0000
     11  C10       11.8940    7.4260  -12.2420 C.3   732  DHT732      0.0008
     12  C11       10.6160    8.8110  -14.0920 C.3   732  DHT732      0.0001
     13  C12       10.3700   10.2290  -14.6270 C.3   732  DHT732      0.0024
     14  C13        9.6010   11.0890  -13.6210 C.3   732  DHT732      0.0282
     15  C14       10.3460   11.0610  -12.2850 C.3   732  DHT732      0.0024
     16  C15        9.6360   12.0920  -11.4030 C.3   732  DHT732      0.0027
     17  C16        9.2830   13.2000  -12.4020 C.3   732  DHT732      0.0329
     18  C17        9.5770   12.6180  -13.7860 C.3   732  DHT732      0.1519
     19  O17        8.6190   13.1030  -14.7160 O.3   732  DHT732     -0.2232
     20  C18        8.1670   10.5670  -13.5980 C.3   732  DHT732      0.0025
     21  C19       10.7280    6.4210  -12.1280 C.3   732  DHT732      0.0000
@<TRIPOS>BOND
     1    19    18    1
     2    13    12    1
     3    13    14    1
     4    12    10    1
     5    18    14    1
     6    18    17    1
     7    14    20    1
     8    14    15    1
     9     1     2    1
    10     1    11    1
    11    10    11    1
    12    10     9    1
    13     2     3    1
    14    17    16    1
    15    15     9    1
    16    15    16    1
    17    11    21    1
    18    11     6    1
    19     9     8    1
    20     3     4    2
    21     3     5    1
    22     6     5    1
    23     6     7    1
    24     8     7    1
