@<TRIPOS>MOLECULE
3klo_C2E_A_1.pdb
 46 52 0 0 0
SMALL
GASTEIGER

@<TRIPOS>ATOM
      1  P1       -66.3820   11.5680    6.1350 P.3   225  C2E225      0.2141
      2  O2P      -67.8390   12.2170    5.9380 O.3   225  C2E225     -0.4373
      3  O1P      -65.3050   12.5390    5.8690 O.2   225  C2E225     -0.5172
      4  O5'      -66.2820   10.3200    5.1490 O.3   225  C2E225     -0.3114
      5  C5'      -67.3160    9.3360    5.1450 C.3   225  C2E225      0.1812
      6  C4'      -66.8330    8.1350    4.3420 C.3   225  C2E225      0.1771
      7  O4'      -66.1770    8.5220    3.1170 O.3   225  C2E225     -0.3327
      8  C3'      -65.7480    7.4520    5.1610 C.3   225  C2E225      0.1857
      9  O3'      -66.3180    6.6280    6.1570 O.3   225  C2E225     -0.3112
     10  C2'      -65.0430    6.6480    4.0670 C.3   225  C2E225      0.2282
     11  O2'      -65.8580    5.5140    3.7520 O.3   225  C2E225     -0.2159
     12  C1'      -65.0900    7.6230    2.8860 C.3   225  C2E225      0.2292
     13  N9       -63.8330    8.3650    2.8620 N.pl3 225  C2E225     -0.2354
     14  C8       -63.6590    9.7050    3.0690 C.3   225  C2E225      0.2246
     15  N7       -62.3960   10.0120    2.9230 N.2   225  C2E225     -0.2322
     16  C5       -61.7010    8.8960    2.5820 C.2   225  C2E225      0.2182
     17  C6       -60.3480    8.6150    2.2830 C.1   225  C2E225      0.2372
     18  O6       -59.5080    9.4980    2.2260 O.2   225  C2E225     -0.2069
     19  N1       -59.9890    7.3470    2.0210 N.2   225  C2E225     -0.2485
     20  C2       -60.9170    6.3600    2.0400 C.1   225  C2E225      0.2531
     21  N2       -60.5160    5.0660    1.7950 N.pl3 225  C2E225     -0.0226
     22  N3       -62.1780    6.6060    2.3120 N.2   225  C2E225     -0.3074
     23  C4       -62.6060    7.8350    2.5820 C.2   225  C2E225      0.2300
     24  P11      -65.4640    6.1250    7.4200 P.3   225  C2E225      0.2141
     25  O21      -66.2790    4.9870    8.2000 O.3   225  C2E225     -0.4373
     26  O11      -64.1480    5.6130    6.9620 O.2   225  C2E225     -0.5172
     27  O5A      -65.2720    7.3390    8.4450 O.3   225  C2E225     -0.3114
     28  C5A      -66.3540    8.1690    8.8500 C.3   225  C2E225      0.1812
     29  C4A      -65.7750    9.4890    9.3420 C.3   225  C2E225      0.1771
     30  O4A      -64.6570    9.3290   10.2370 O.3   225  C2E225     -0.3327
     31  C3A      -65.2300   10.2530    8.1400 C.3   225  C2E225      0.1857
     32  O3A      -66.3190   10.9890    7.6230 O.3   225  C2E225     -0.3112
     33  C2A      -64.3220   11.2360    8.8770 C.3   225  C2E225      0.2282
     34  O2A      -65.2000   12.1960    9.4800 O.3   225  C2E225     -0.2159
     35  C1A      -63.7030   10.3580    9.9740 C.3   225  C2E225      0.2292
     36  N91      -62.4680    9.7280    9.4970 N.pl3 225  C2E225     -0.2354
     37  C81      -62.2850    8.3840    9.3250 C.3   225  C2E225      0.2246
     38  N71      -61.0260    8.1230    9.1080 N.2   225  C2E225     -0.2322
     39  C51      -60.3580    9.2880    8.9900 C.2   225  C2E225      0.2182
     40  C61      -59.0200    9.6010    8.7000 C.1   225  C2E225      0.2372
     41  O61      -58.2120    8.7180    8.4980 O.2   225  C2E225     -0.2069
     42  N11      -58.6500   10.8920    8.6550 N.2   225  C2E225     -0.2485
     43  C21      -59.5700   11.8610    8.9000 C.1   225  C2E225      0.2531
     44  N21      -59.1450   13.1590    8.8490 N.pl3 225  C2E225     -0.0226
     45  N31      -60.8310   11.5980    9.1730 N.2   225  C2E225     -0.3074
     46  C41      -61.2640   10.3310    9.2230 C.2   225  C2E225      0.2300
@<TRIPOS>BOND
     1    21    20    1
     2    19    20    2
     3    19    17    2
     4    20    22    2
     5    18    17    2
     6    17    16    1
     7    22    23    2
     8    23    16    1
     9    23    13    1
    10    16    15    2
    11    13    12    1
    12    13    14    1
    13    12     7    1
    14    12    10    1
    15    15    14    1
    16     7     6    1
    17    11    10    1
    18    10     8    1
    19     6     5    1
    20     6     8    1
    21     5     4    1
    22     4     1    1
    23     8     9    1
    24     3     1    2
    25     2     1    1
    26     1    32    1
    27     9    24    1
    28    26    24    2
    29    24    25    1
    30    24    27    1
    31    32    31    1
    32    31    33    1
    33    31    29    1
    34    27    28    1
    35    41    40    2
    36    42    40    2
    37    42    43    2
    38    40    39    1
    39    44    43    1
    40    28    29    1
    41    33    34    1
    42    33    35    1
    43    43    45    2
    44    39    38    2
    45    39    46    1
    46    38    37    1
    47    45    46    2
    48    46    36    1
    49    37    36    1
    50    29    30    1
    51    36    35    1
    52    35    30    1
