@<TRIPOS>MOLECULE
3klp_B81_X_1.pdb
 21 24 0 0 0
SMALL
GASTEIGER

@<TRIPOS>ATOM
      1  C1        17.9870  -17.4190  -42.0100 C.3   328  B81328      0.0063
      2  C2        18.3710  -18.5490  -40.9880 C.3   328  B81328      0.0335
      3  C3        18.1080  -18.2560  -39.4770 C.3   328  B81328      0.1560
      4  O3        17.9540  -19.5080  -38.8640 O.3   328  B81328     -0.2228
      5  C4        16.8340  -17.4330  -39.1540 C.3   328  B81328      0.0545
      6  C5        16.6030  -16.4070  -40.2570 C.2   328  B81328     -0.0466
      7  C6        16.4280  -15.0750  -39.8910 C.2   328  B81328     -0.0345
      8  C7        16.1990  -13.9810  -40.7400 C.3   328  B81328      0.0254
      9  C8        15.5000  -14.4260  -42.0440 C.3   328  B81328      0.0047
     10  C9        16.2860  -15.6220  -42.7350 C.3   328  B81328      0.0038
     11  C10       16.5770  -16.8540  -41.7610 C.3   328  B81328      0.0150
     12  C11       15.6920  -15.9820  -44.1240 C.3   328  B81328      0.0004
     13  C12       15.4280  -14.7190  -44.9970 C.3   328  B81328      0.0025
     14  C13       14.5100  -13.6330  -44.3460 C.3   328  B81328      0.0282
     15  C14       15.2280  -13.2190  -43.0330 C.3   328  B81328      0.0028
     16  C15       14.4540  -11.9170  -42.5670 C.3   328  B81328      0.0027
     17  C16       14.3000  -11.1310  -43.9000 C.3   328  B81328      0.0329
     18  C17       14.5330  -12.2130  -45.0210 C.3   328  B81328      0.1519
     19  O17       13.5430  -12.0730  -46.0360 O.3   328  B81328     -0.2232
     20  C18       13.0550  -14.1720  -44.2320 C.3   328  B81328      0.0025
     21  C19       15.5410  -18.0270  -41.8630 C.3   328  B81328      0.0040
@<TRIPOS>BOND
     1    19    18    1
     2    18    14    1
     3    18    17    1
     4    13    14    1
     5    13    12    1
     6    14    20    1
     7    14    15    1
     8    12    10    1
     9    17    16    1
    10    15    16    1
    11    15     9    1
    12    10     9    1
    13    10    11    1
    14     9     8    1
    15     1    11    1
    16     1     2    1
    17    21    11    1
    18    11     6    1
    19     2     3    1
    20     8     7    1
    21     6     7    2
    22     6     5    1
    23     3     5    1
    24     3     4    1
