@<TRIPOS>MOLECULE
3km4_22X_A_1.pdb
 36 38 0 0 0
SMALL
GASTEIGER

@<TRIPOS>ATOM
      1  C1        28.6930   -7.8480  -14.3900 C.3   400  22X400      0.1650
      2  N1        27.7630   -3.8300  -12.9020 N.am  400  22X400     -0.2006
      3  O1        28.1280   -7.8550  -15.7090 O.3   400  22X400     -0.2166
      4 CL1        33.4010   -9.2330  -12.5040 Cl    400  22X400     -0.0823
      5  C2        30.1860   -8.0800  -14.5970 C.ar  400  22X400      0.0098
      6  N2        24.6580   -7.8770   -7.3670 N.3   400  22X400     -0.2147
      7  O2        25.8140  -10.9840  -10.6280 O.2   400  22X400     -0.2508
      8  C3        30.7920   -7.8190  -15.8350 C.ar  400  22X400     -0.0016
      9  N3        26.2720   -8.7660  -10.6730 N.am  400  22X400     -0.1887
     10  O3        28.2170   -1.6900  -13.4900 O.2   400  22X400     -0.2733
     11  C4        30.9840   -8.5220  -13.5650 C.ar  400  22X400      0.0098
     12  N4        26.1450   -9.9980  -12.5940 N.am  400  22X400     -0.2628
     13  C5        32.1490   -8.0400  -16.1270 C.ar  400  22X400      0.0006
     14  C6        32.3640   -8.6870  -13.8460 C.ar  400  22X400      0.0574
     15  C7        32.9720   -8.4880  -15.0890 C.ar  400  22X400      0.0114
     16  C8        28.3820   -6.5660  -13.6210 C.2   400  22X400      0.0048
     17  C9        29.3960   -5.4510  -13.5840 C.2   400  22X400     -0.0047
     18  C10       29.1030   -4.3230  -12.5960 C.3   400  22X400      0.1410
     19  C11       27.3940   -2.5930  -13.2740 C.2   400  22X400      0.2422
     20  C12       25.9300   -2.4080  -13.4990 C.3   400  22X400      0.0964
     21  C13       26.2270   -8.6060   -9.2100 C.3   400  22X400      0.1142
     22  C14       24.7950   -8.2240   -8.7950 C.3   400  22X400      0.1104
     23  C15       27.3650   -7.6370   -8.8080 C.3   400  22X400      0.0232
     24  C16       28.7680   -8.0460   -9.2500 C.3   400  22X400      0.0018
     25  C17       29.7510   -6.9060   -9.0760 C.3   400  22X400      0.0001
     26  C18       31.1270   -7.4370   -9.4480 C.3   400  22X400      0.0000
     27  C19       31.5740   -8.5900   -8.5340 C.3   400  22X400      0.0000
     28  C20       29.2470   -9.2660   -8.4250 C.3   400  22X400      0.0001
     29  C21       30.6340   -9.7380   -8.8660 C.3   400  22X400      0.0000
     30  C22       26.0760   -9.9430  -11.2760 C.2   400  22X400      0.3232
     31  C23       27.5230  -11.5740  -13.4270 C.3   400  22X400      0.0217
     32  C24       28.2460  -10.4420  -14.2590 C.3   400  22X400      0.0066
     33  C25       28.0430   -9.0360  -13.5950 C.3   400  22X400      0.0559
     34  C26       26.5080   -8.8920  -13.5100 C.3   400  22X400      0.0981
     35  C27       26.0450  -11.2210  -13.3590 C.3   400  22X400      0.0950
     36  C28       25.1310   -8.8900   -6.4150 C.3   400  22X400      0.1075
@<TRIPOS>BOND
     1    13     8   ar
     2    13    15   ar
     3     8     5   ar
     4     3     1    1
     5    15    14   ar
     6     5     1    1
     7     5    11   ar
     8     1    16    1
     9     1    33    1
    10    32    33    1
    11    32    31    1
    12    14    11   ar
    13    14     4    1
    14    16    17    2
    15    33    34    1
    16    17    18    1
    17    34    12    1
    18    20    19    1
    19    10    19    2
    20    31    35    1
    21    35    12    1
    22    19     2   am
    23     2    18    1
    24    12    30   am
    25    30     9   am
    26    30     7    2
    27     9    21    1
    28    26    25    1
    29    26    27    1
    30    24    25    1
    31    24    23    1
    32    24    28    1
    33    21    23    1
    34    21    22    1
    35    29    27    1
    36    29    28    1
    37    22     6    1
    38     6    36    1
