@<TRIPOS>MOLECULE
3km6_GSH_A_1.pdb
 20 19 0 0 0
SMALL
GASTEIGER

@<TRIPOS>ATOM
      1  N1        17.1660   10.6910   23.8830 N.3   221  GSH221     -0.1208
      2  CA1       16.9010    9.4060   24.5130 C.3   221  GSH221      0.1948
      3  C1        18.1890    8.6120   24.6680 C.2   221  GSH221      0.3819
      4  O11       18.7750    8.3460   23.5980 O.co2 221  GSH221     -0.2441
      5  O12       18.6660    8.1830   25.7620 O.co2 221  GSH221     -0.2441
      6  CB1       16.0590    9.5540   25.7770 C.3   221  GSH221      0.0402
      7  CG1       15.7810    8.2480   26.5030 C.3   221  GSH221      0.0889
      8  CD1       14.3230    8.0710   26.8810 C.2   221  GSH221      0.2418
      9  OE1       13.3060    8.3320   25.9480 O.2   221  GSH221     -0.2733
     10  N2        14.0880    7.6200   28.1110 N.am  221  GSH221     -0.1968
     11  CA2       12.8400    7.0060   28.5140 C.3   221  GSH221      0.1843
     12  C2        12.4890    7.5790   29.8630 C.2   221  GSH221      0.2627
     13  O2        13.5310    7.7690   30.7800 O.2   221  GSH221     -0.2714
     14  CB2       13.0070    5.4760   28.5320 C.3   221  GSH221      0.0997
     15  SG2       13.9470    4.8470   27.0850 S.3   221  GSH221     -0.0797
     16  N3        11.2200    7.9050   30.1270 N.am  221  GSH221     -0.1917
     17  CA3       10.7720    8.2180   31.4740 C.3   221  GSH221      0.2285
     18  C3        10.3740    9.6730   31.6410 C.2   221  GSH221      0.3865
     19  O31       10.4400   10.4810   30.6840 O.co2 221  GSH221     -0.2437
     20  O32        9.9850   10.0910   32.7510 O.co2 221  GSH221     -0.2437
@<TRIPOS>BOND
     1     4     3   ar
     2     1     2    1
     3     2     3    1
     4     2     6    1
     5     3     5   ar
     6     6     7    1
     7     9     8    2
     8     7     8    1
     9     8    10   am
    10    15    14    1
    11    10    11    1
    12    11    14    1
    13    11    12    1
    14    12    16   am
    15    12    13    2
    16    16    17    1
    17    19    18   ar
    18    17    18    1
    19    18    20   ar
