@<TRIPOS>MOLECULE
3km6_EAA_A_1.pdb
 19 19 0 0 0
SMALL
GASTEIGER

@<TRIPOS>ATOM
      1  C1         9.1490    3.6850   31.4220 C.ar  222  EAA222      0.1506
      2  O2         8.7880    3.6530   32.7480 O.3   222  EAA222     -0.4628
      3  C2         9.7420    2.4730   30.8040 C.ar  222  EAA222      0.1021
      4 CL1        10.0120    0.9540   31.7260 Cl    222  EAA222     -0.0782
      5  C3        10.1220    2.5140   29.3760 C.ar  222  EAA222      0.0742
      6 CL2        10.8280    1.0140   28.7290 Cl    222  EAA222     -0.0812
      7  C4         9.9100    3.7630   28.5860 C.ar  222  EAA222      0.0502
      8  C5         9.3350    4.8460   29.2690 C.ar  222  EAA222      0.0072
      9  C6         8.9700    4.8180   30.6250 C.ar  222  EAA222      0.0380
     10  C7        10.2230    3.9630   27.1090 C.2   222  EAA222      0.1925
     11  O1         9.6100    4.8630   26.5530 O.2   222  EAA222     -0.2869
     12  C8        11.1590    3.2240   26.2400 C.2   222  EAA222      0.0168
     13  C9        11.8280    1.9110   26.5870 C.3   222  EAA222      0.0296
     14  C10       11.7440    0.9210   25.4360 C.3   222  EAA222      0.0051
     15  C11       11.4310    3.7480   25.0530 C.2   222  EAA222     -0.0013
     16  C12        8.6840    4.8280   33.5600 C.3   222  EAA222      0.3186
     17  C13        7.2390    5.2410   33.7160 C.2   222  EAA222      0.4084
     18  O          6.6700    5.8210   32.7650 O.co2 222  EAA222     -0.2415
     19  OXT        6.6630    4.9930   34.7970 O.co2 222  EAA222     -0.2415
@<TRIPOS>BOND
     1    15    12    2
     2    14    13    1
     3    12    13    1
     4    12    10    1
     5    11    10    2
     6    10     7    1
     7     7     8   ar
     8     7     5   ar
     9     6     5    1
    10     8     9   ar
    11     5     3   ar
    12     9     1   ar
    13     3     1   ar
    14     3     4    1
    15     1     2    1
    16     2    16    1
    17    18    17   ar
    18    16    17    1
    19    17    19   ar
