@<TRIPOS>MOLECULE
3km8_9DI_A_1.pdb
 19 21 0 0 0
SMALL
GASTEIGER

@<TRIPOS>ATOM
      1  C9       -24.0680  -14.3700    7.8950 C.3   353  9DI353      0.0962
      2  C4       -25.2040  -14.0980    8.7370 C.2   353  9DI353      0.0883
      3  N3       -25.2770  -13.8190   10.0540 N.2   353  9DI353     -0.2456
      4  C2       -26.4890  -13.4850   10.5160 C.3   353  9DI353      0.2623
      5  N1       -27.5730  -13.3400    9.7110 N.2   353  9DI353     -0.1739
      6  C6       -27.5530  -13.5620    8.3750 C.1   353  9DI353      0.1708
      7  O6       -28.5770  -13.4930    7.6550 O.2   353  9DI353     -0.2206
      8  C5       -26.2690  -13.8930    7.7660 C.2   353  9DI353      0.1719
      9  N7       -25.7950  -14.1520    6.5220 N.2   353  9DI353     -0.2577
     10  C8       -24.4910  -14.5640    6.5830 C.3   353  9DI353      0.1348
     11  C5'      -19.5500  -13.8320    7.2560 C.3   353  9DI353      0.2141
     12  O5'      -20.2820  -13.1240    6.2450 O.3   353  9DI353     -0.2176
     13  C4'      -20.5420  -14.7330    8.0020 C.3   353  9DI353      0.1809
     14  O4'      -21.6820  -13.9660    8.3920 O.3   353  9DI353     -0.3502
     15  C1'      -22.8070  -14.8480    8.4910 C.3   353  9DI353      0.1557
     16  C2'      -22.4460  -16.1600    7.7840 C.3   353  9DI353      0.2119
     17  O2'      -22.2310  -17.1800    8.7890 O.3   353  9DI353     -0.2177
     18  C3'      -21.1600  -15.8020    7.0830 C.3   353  9DI353      0.2140
     19  O3'      -20.2800  -16.9130    6.9080 O.3   353  9DI353     -0.2176
@<TRIPOS>BOND
     1    12    11    1
     2     9    10    1
     3     9     8    2
     4    10     1    1
     5    19    18    1
     6    18    16    1
     7    18    13    1
     8    11    13    1
     9     7     6    2
    10     8     6    1
    11     8     2    1
    12    16    15    1
    13    16    17    1
    14     1    15    1
    15     1     2    1
    16    13    14    1
    17     6     5    2
    18    14    15    1
    19     2     3    2
    20     5     4    1
    21     3     4    1
