@<TRIPOS>MOLECULE
3kmb_FUC_1_1.pdb
 10 10 0 0 0
SMALL
GASTEIGER

@<TRIPOS>ATOM
      1  C1        46.5870   -5.0020   21.9820 C.3   224  FUC224      0.1776
      2  C2        45.1100   -5.0410   22.3470 C.3   224  FUC224      0.2141
      3  C3        44.9020   -4.4710   23.7410 C.3   224  FUC224      0.2172
      4  C4        45.5120   -3.0690   23.8460 C.3   224  FUC224      0.2116
      5  C5        46.9660   -3.0570   23.3560 C.3   224  FUC224      0.1483
      6  C6        47.5260   -1.6400   23.2400 C.3   224  FUC224      0.0349
      7  O2        44.6250   -6.3690   22.2860 O.3   224  FUC224     -0.2176
      8  O3        43.5140   -4.3840   23.9910 O.3   224  FUC224     -0.2175
      9  O4        44.7440   -2.1490   23.0790 O.3   224  FUC224     -0.2177
     10  O5        47.0670   -3.6660   22.0480 O.3   224  FUC224     -0.3508
@<TRIPOS>BOND
     1     1    10    1
     2     1     2    1
     3    10     5    1
     4     7     2    1
     5     2     3    1
     6     9     4    1
     7     6     5    1
     8     5     4    1
     9     3     4    1
    10     3     8    1
