@<TRIPOS>MOLECULE
3kmb_SGA_1_1.pdb
 15 15 0 0 0
SMALL
GASTEIGER

@<TRIPOS>ATOM
      1  C1        49.4990   -4.4720   25.5120 C.3   222  SGA222      0.1777
      2  C2        49.9140   -3.0530   25.8780 C.3   222  SGA222      0.2132
      3  C3        49.6810   -2.8010   27.3580 C.3   222  SGA222      0.2085
      4  C4        48.2250   -3.0820   27.6950 C.3   222  SGA222      0.2134
      5  C5        47.8470   -4.5070   27.2690 C.3   222  SGA222      0.1809
      6  C6        46.3620   -4.7920   27.4630 C.3   222  SGA222      0.2141
      7  O2        51.2860   -2.8560   25.5750 O.3   222  SGA222     -0.2176
      8  O3        49.9980   -1.4320   27.6690 O.3   222  SGA222     -0.2383
      9  O4        47.4000   -2.1360   27.0290 O.3   222  SGA222     -0.2176
     10  O5        48.1260   -4.7070   25.8650 O.3   222  SGA222     -0.3481
     11  O6        45.9470   -4.5170   28.7920 O.3   222  SGA222     -0.2176
     12  S         50.9860   -1.1390   28.8810 S.3   222  SGA222     -0.0001
     13  O1S       51.1030    0.2980   28.9330 O.2   222  SGA222     -0.3452
     14  O2S       52.2170   -1.8030   28.5330 O.2   222  SGA222     -0.3452
     15  O3S       50.3430   -1.7050   30.0450 O.3   222  SGA222     -0.2682
@<TRIPOS>BOND
     1     1    10    1
     2     1     2    1
     3     7     2    1
     4    10     5    1
     5     2     3    1
     6     9     4    1
     7     5     6    1
     8     5     4    1
     9     3     8    1
    10     3     4    1
    11     6    11    1
    12     8    12    1
    13    14    12    2
    14    12    13    2
    15    12    15    1
