@<TRIPOS>MOLECULE
3kmb_MAG_1_1.pdb
 16 16 0 0 0
SMALL
GASTEIGER

@<TRIPOS>ATOM
      1  C1        50.2840   -7.8460   21.5160 C.3   223  MAG223      0.2586
      2  C2        48.8070   -7.4720   21.7390 C.3   223  MAG223      0.1842
      3  C3        48.6880   -6.0900   22.4090 C.3   223  MAG223      0.2094
      4  C4        49.6120   -5.9790   23.6310 C.3   223  MAG223      0.2136
      5  C5        51.0320   -6.3660   23.2430 C.3   223  MAG223      0.1834
      6  C6        52.0070   -6.3180   24.4060 C.3   223  MAG223      0.2142
      7  C7        47.5020   -8.4850   19.8980 C.2   223  MAG223      0.2420
      8  C8        46.8490   -8.1590   18.5630 C.3   223  MAG223      0.0964
      9  N2        48.1090   -7.4380   20.4600 N.am  223  MAG223     -0.1992
     10  O1        50.3670   -9.1410   21.0020 O.3   223  MAG223     -0.3265
     11  O3        47.3160   -5.8640   22.8140 O.3   223  MAG223     -0.2183
     12  O4        49.6120   -4.6290   24.1370 O.3   223  MAG223     -0.2176
     13  O5        51.0290   -7.7050   22.7220 O.3   223  MAG223     -0.3262
     14  O6        51.6060   -7.1960   25.4460 O.3   223  MAG223     -0.2176
     15  O7        47.4630   -9.6110   20.4050 O.2   223  MAG223     -0.2733
     16  CM        51.7050   -9.5430   20.6400 C.3   223  MAG223      0.1769
@<TRIPOS>BOND
     1     8     7    1
     2     7    15    2
     3     7     9   am
     4     9     2    1
     5    16    10    1
     6    10     1    1
     7     1     2    1
     8     1    13    1
     9     2     3    1
    10     3    11    1
    11     3     4    1
    12    13     5    1
    13     5     4    1
    14     5     6    1
    15     4    12    1
    16     6    14    1
