@<TRIPOS>MOLECULE
3kmc_403_B_1.pdb
 22 23 0 0 0
SMALL
GASTEIGER

@<TRIPOS>ATOM
      1  C1        50.1700   35.0610   39.7340 C.3   485  403485      0.2665
      2  C2        51.1230   35.3060   38.5120 C.2   485  403485      0.2594
      3  C3        50.1750   33.5450   39.9650 C.3   485  403485      0.2680
      4  N4        50.6320   34.8160   37.2750 N.am  485  403485     -0.2745
      5  N5        49.8600   33.7040   34.7390 N.3   485  403485     -0.2144
      6  C6        49.0500   33.1380   40.9330 C.2   485  403485      0.2750
      7  S8        51.1020   31.0630   43.9900 S.2   485  403485     -0.0907
      8  C9        49.6020   31.4350   44.8280 C.ar  485  403485      0.0091
      9  O10       52.2700   35.8240   38.6690 O.2   485  403485     -0.2720
     10  C11       49.1840   34.6830   36.9550 C.3   485  403485      0.1123
     11  C12       51.3780   35.2310   36.0750 C.3   485  403485      0.1123
     12  C13       51.2830   34.0440   35.0860 C.3   485  403485      0.1102
     13  C14       49.0190   33.4960   35.9580 C.3   485  403485      0.1102
     14  C15       51.9010   30.6680   45.5260 C.ar  485  403485      0.0351
     15  O17       47.9020   33.0160   40.5410 O.2   485  403485     -0.2705
     16  C18       49.7150   31.2670   46.2140 C.ar  485  403485      0.0027
     17  C19       51.0220   30.8360   46.6020 C.ar  485  403485      0.0072
     18  N20       49.4190   33.0310   42.2570 N.am  485  403485     -0.2028
     19  O21       50.7290   35.7880   40.8420 O.3   485  403485     -0.2099
     20  O22       51.4910   33.1930   40.3890 O.3   485  403485     -0.2098
     21  C23       48.3640   31.8560   44.0590 C.3   485  403485      0.0564
     22  C25       48.5080   33.1960   43.3710 C.3   485  403485      0.1204
@<TRIPOS>BOND
     1     5    12    1
     2     5    13    1
     3    12    11    1
     4    13    10    1
     5    11     4    1
     6    10     4    1
     7     4     2   am
     8     2     9    2
     9     2     1    1
    10     1     3    1
    11     1    19    1
    12     3    20    1
    13     3     6    1
    14    15     6    2
    15     6    18   am
    16    18    22    1
    17    22    21    1
    18     7     8   ar
    19     7    14   ar
    20    21     8    1
    21     8    16   ar
    22    14    17   ar
    23    16    17   ar
