@<TRIPOS>MOLECULE
3kmc_INN_A_1.pdb
 29 28 0 0 0
SMALL
GASTEIGER

@<TRIPOS>ATOM
      1  C0         5.8390    9.4920   24.4270 C.3   485  INN485      0.0603
      2  C          6.5460   10.7030   24.2160 C.2   485  INN485      0.0873
      3  O          7.7190   10.7170   23.8570 O.2   485  INN485     -0.5395
      4  N          5.7530   11.7290   24.5300 N.am  485  INN485     -0.2030
      5  O4         6.5800   12.7310   25.0080 O.3   485  INN485     -0.4026
      6  C4         5.9350    7.1850   24.9830 C.2   485  INN485      0.2417
      7  O1         4.7460    7.0770   25.2150 O.2   485  INN485     -0.2733
      8  CA         6.6460    8.5330   25.3090 C.3   485  INN485      0.0845
      9  CB         6.6100    9.0140   26.7680 C.3   485  INN485      0.0095
     10  C1         7.4520    7.9930   27.6190 C.3   485  INN485      0.0005
     11  C2         8.9670    8.1120   27.5040 C.3   485  INN485      0.0000
     12  C3         7.1040    8.3000   29.0830 C.3   485  INN485      0.0000
     13  N1         6.7220    6.2060   24.4060 N.am  485  INN485     -0.1978
     14  C5         6.1860    4.9020   24.0010 C.3   485  INN485      0.1726
     15  C6         6.4010    4.6820   22.4590 C.3   485  INN485      0.0270
     16  C7         5.8700    3.2910   22.0980 C.3   485  INN485      0.0022
     17  C8         5.5920    5.7640   21.6340 C.3   485  INN485      0.0022
     18  C9         7.9230    4.7330   22.0880 C.3   485  INN485      0.0022
     19  C10        6.7660    3.8100   24.9280 C.2   485  INN485      0.2616
     20  O2         7.9820    3.6930   25.1480 O.2   485  INN485     -0.2715
     21  N2         5.8000    2.9990   25.4800 N.am  485  INN485     -0.1963
     22  C11        6.0990    1.8840   26.3740 C.3   485  INN485      0.1728
     23  C13        5.5760    0.7200   25.5430 C.2   485  INN485      0.2613
     24  O3         4.3770    0.6440   25.3660 O.2   485  INN485     -0.2715
     25  C12        5.2720    1.9580   27.6700 C.3   485  INN485      0.0334
     26  N4         6.4290   -1.8950   21.8750 N.3   485  INN485     -0.1294
     27  C15        7.0420   -1.8700   23.2130 C.3   485  INN485      0.1327
     28  C14        6.0320   -1.3480   24.2320 C.3   485  INN485      0.1356
     29  N3         6.4950   -0.2030   25.0330 N.am  485  INN485     -0.2024
@<TRIPOS>BOND
     1    17    15    1
     2    26    27    1
     3    18    15    1
     4    16    15    1
     5    15    14    1
     6    27    28    1
     7     3     2    2
     8    14    13    1
     9    14    19    1
    10     2     1    1
    11     2     4   am
    12    28    29    1
    13    13     6   am
    14     1     8    1
    15     4     5    1
    16    19    20    2
    17    19    21   am
    18     6     7    2
    19     6     8    1
    20    29    23   am
    21     8     9    1
    22    24    23    2
    23    21    22    1
    24    23    22    1
    25    22    25    1
    26     9    10    1
    27    11    10    1
    28    10    12    1
