@<TRIPOS>MOLECULE
3kme_INN_A_1.pdb
 29 28 0 0 0
SMALL
GASTEIGER

@<TRIPOS>ATOM
      1  C0         5.8820    9.8430   24.1160 C.3   485  INN485      0.0603
      2  C          6.5930   10.9120   24.2310 C.2   485  INN485      0.0873
      3  O          7.8170   11.1410   23.8940 O.2   485  INN485     -0.5395
      4  N          5.9380   11.9700   24.8410 N.am  485  INN485     -0.2030
      5  O4         6.5240   13.1770   25.0360 O.3   485  INN485     -0.4026
      6  C4         5.8930    7.3460   24.8860 C.2   485  INN485      0.2417
      7  O1         4.6320    7.4150   25.1940 O.2   485  INN485     -0.2733
      8  CA         6.6240    8.7670   25.1700 C.3   485  INN485      0.0845
      9  CB         6.5300    9.4510   26.7330 C.3   485  INN485      0.0095
     10  C1         7.3170    8.1480   27.5330 C.3   485  INN485      0.0005
     11  C2         8.9400    8.1570   27.4810 C.3   485  INN485      0.0000
     12  C3         6.8610    8.5450   29.0690 C.3   485  INN485      0.0000
     13  N1         6.4580    6.4530   24.4770 N.am  485  INN485     -0.1978
     14  C5         5.8240    5.0760   24.1570 C.3   485  INN485      0.1726
     15  C6         6.1820    4.6820   22.5520 C.3   485  INN485      0.0270
     16  C7         5.6180    3.4220   22.2370 C.3   485  INN485      0.0022
     17  C8         5.2540    5.8920   21.7320 C.3   485  INN485      0.0022
     18  C9         7.6340    4.9650   22.1530 C.3   485  INN485      0.0022
     19  C10        6.5380    3.9340   25.0990 C.2   485  INN485      0.2616
     20  O2         7.6090    3.8300   25.1170 O.2   485  INN485     -0.2715
     21  N2         5.3190    3.3540   25.6840 N.am  485  INN485     -0.1963
     22  C11        5.6540    2.0750   26.5370 C.3   485  INN485      0.1728
     23  C13        5.0950    1.0190   25.7060 C.2   485  INN485      0.2613
     24  O3         3.9480    1.0130   25.6090 O.2   485  INN485     -0.2715
     25  C12        5.0230    2.0210   28.0370 C.3   485  INN485      0.0334
     26  N4         5.2390   -1.3490   21.8150 N.3   485  INN485     -0.1294
     27  C15        6.2760   -0.8650   22.8510 C.3   485  INN485      0.1327
     28  C14        5.5410   -1.0020   24.2450 C.3   485  INN485      0.1356
     29  N3         5.9710    0.0840   25.0790 N.am  485  INN485     -0.2024
@<TRIPOS>BOND
     1    17    15    1
     2    26    27    1
     3    18    15    1
     4    16    15    1
     5    15    14    1
     6    27    28    1
     7     3     2    2
     8     1     2    1
     9     1     8    1
    10    14    13    1
    11    14    19    1
    12     2     4   am
    13    28    29    1
    14    13     6   am
    15     4     5    1
    16     6     8    1
    17     6     7    2
    18    29    23   am
    19    19    20    2
    20    19    21   am
    21     8     9    1
    22    24    23    2
    23    21    22    1
    24    23    22    1
    25    22    25    1
    26     9    10    1
    27    11    10    1
    28    10    12    1
