@<TRIPOS>MOLECULE
3kme_Z59_B_1.pdb
 26 28 0 0 0
SMALL
GASTEIGER

@<TRIPOS>ATOM
      1  C1        49.2760   35.4100   39.1660 C.2   485  Z59485      0.2595
      2  N2        48.7360   35.0380   37.9410 N.am  485  Z59485     -0.2753
      3  C3        48.2600   35.2390   40.3900 C.3   485  Z59485      0.2665
      4  C4        48.3490   33.7850   40.7930 C.3   485  Z59485      0.2680
      5  C5        49.5420   35.1190   36.7300 C.3   485  Z59485      0.0980
      6  C6        47.3090   33.2400   41.8350 C.2   485  Z59485      0.2753
      7  C7        50.5350   33.9550   36.7310 C.ar  485  Z59485     -0.0043
      8  N8        47.6880   33.1160   43.1780 N.am  485  Z59485     -0.1978
      9  S9        49.4690   31.3240   44.7290 S.2   485  Z59485     -0.0890
     10  C10       47.9650   31.9000   45.3960 C.ar  485  Z59485      0.0290
     11  O11       50.4620   35.8550   39.3350 O.2   485  Z59485     -0.2720
     12  C12       51.8490   34.2020   36.0000 C.ar  485  Z59485     -0.0027
     13  C13       50.1490   30.8580   46.2890 C.ar  485  Z59485      0.0352
     14  O14       46.1730   32.9870   41.4160 O.2   485  Z59485     -0.2705
     15  C15       48.0000   31.7150   46.8420 C.ar  485  Z59485      0.0044
     16  C16       49.2260   31.1520   47.3310 C.ar  485  Z59485      0.0072
     17  O17       48.7700   36.0450   41.4540 O.3   485  Z59485     -0.2099
     18  C18       46.9200   32.5270   44.4000 C.3   485  Z59485      0.1480
     19  O19       49.7710   33.5310   41.0610 O.3   485  Z59485     -0.2098
     20  C20       47.3620   34.5670   37.6500 C.3   485  Z59485      0.0938
     21  C21       52.8070   33.1540   36.2370 C.ar  485  Z59485     -0.0003
     22  C23       48.5090   35.0740   35.5790 C.3   485  Z59485      0.0261
     23  C24       50.2030   32.6480   37.2170 C.ar  485  Z59485     -0.0027
     24  C25       47.2950   34.3110   36.1440 C.3   485  Z59485      0.0236
     25  C26       51.1680   31.5930   37.2190 C.ar  485  Z59485     -0.0003
     26  C27       52.4790   31.8550   36.7250 C.ar  485  Z59485     -0.0000
@<TRIPOS>BOND
     1    22    24    1
     2    22     5    1
     3    12    21   ar
     4    12     7   ar
     5    24    20    1
     6    21    26   ar
     7    26    25   ar
     8     5     7    1
     9     5     2    1
    10     7    23   ar
    11    23    25   ar
    12    20     2    1
    13     2     1   am
    14     1    11    2
    15     1     3    1
    16     3     4    1
    17     3    17    1
    18     4    19    1
    19     4     6    1
    20    14     6    2
    21     6     8   am
    22     8    18    1
    23    18    10    1
    24     9    10   ar
    25     9    13   ar
    26    10    15   ar
    27    13    16   ar
    28    15    16   ar
