@<TRIPOS>MOLECULE
3kmg_538_A_1.pdb
 39 43 0 0 0
SMALL
GASTEIGER

@<TRIPOS>ATOM
      1  C1        21.4800   28.7840    7.3270 C.3     1  5381        0.0022
      2  C2        21.8950   29.4560    8.6270 C.3     1  5381        0.0262
      3  C3        22.3530   28.4060    9.6210 C.3     1  5381        0.1178
      4  N4        21.2180   27.6750   10.1420 N.am    1  5381       -0.1989
      5  C5        20.2110   28.0120   10.9660 C.2     1  5381        0.2650
      6  O6        19.9510   29.1100   11.4530 O.2     1  5381       -0.2684
      7  C7        19.4870   26.7800   11.3970 C.ar    1  5381        0.0551
      8  C8        18.9930   26.6930   12.7000 C.ar    1  5381        0.0060
      9  C9        18.3720   25.5260   13.1400 C.ar    1  5381        0.0173
     10  C10       18.2520   24.4290   12.2930 C.ar    1  5381        0.0596
     11  N11       17.7080   23.2070   12.4510 N.ar    1  5381       -0.3268
     12  C12       17.0990   22.8120   13.7200 C.3     1  5381        0.1324
     13  C13       18.1200   22.1030   14.5880 C.ar    1  5381        0.0004
     14  C14       19.3140   21.5650   14.0810 C.ar    1  5381       -0.0024
     15  C15       20.1900   20.9090   14.9370 C.ar    1  5381       -0.0003
     16  C16       19.8830   20.7810   16.2880 C.ar    1  5381        0.0002
     17  C17       18.7120   21.3190   16.7830 C.ar    1  5381       -0.0003
     18  C18       17.8310   21.9710   15.9370 C.ar    1  5381       -0.0024
     19  C19       20.8040   20.0630   17.2080 C.ar    1  5381        0.0064
     20  C20       21.2000   20.6680   18.3950 C.ar    1  5381        0.0002
     21  C21       22.0590   20.0030   19.2590 C.ar    1  5381        0.0000
     22  C22       22.5290   18.7270   18.9610 C.ar    1  5381        0.0002
     23  C23       22.1580   18.0700   17.7920 C.ar    1  5381        0.0066
     24  C24       21.2990   18.6820   16.8960 C.ar    1  5381        0.0798
     25  C25       20.9270   17.9250   15.6630 C.2     1  5381        0.3878
     26  O26       19.7290   17.8570   15.3200 O.co2   1  5381       -0.2406
     27  O27       21.8180   17.3510   15.0040 O.co2   1  5381       -0.2406
     28  C28       17.8030   22.4310   11.3390 C.ar    1  5381        0.0338
     29  C29       17.3170   21.0090   11.1350 C.3     1  5381        0.0497
     30  C30       18.5010   23.2320   10.3110 C.ar    1  5381       -0.0088
     31  C31       18.9220   22.9710    8.9000 C.3     1  5381        0.0322
     32  C32       18.7910   24.5370   10.9300 C.ar    1  5381        0.0131
     33  C33       19.3950   25.6990   10.5020 C.ar    1  5381        0.0057
     34  C34       23.3450   28.7460   10.6950 C.ar    1  5381       -0.0026
     35  C35       24.3960   29.6280   10.4490 C.ar    1  5381       -0.0026
     36  C36       25.3520   29.8970   11.4140 C.ar    1  5381       -0.0003
     37  C37       25.2900   29.2580   12.6450 C.ar    1  5381       -0.0000
     38  C38       24.2690   28.3480   12.9000 C.ar    1  5381       -0.0003
     39  C39       23.3160   28.0820   11.9230 C.ar    1  5381       -0.0026
@<TRIPOS>BOND
     1     1     2    1
     2     2     3    1
     3    31    30    1
     4     3     4    1
     5     3    34    1
     6     4     5   am
     7    30    32   ar
     8    30    28   ar
     9    35    34   ar
    10    35    36   ar
    11    33    32   ar
    12    33     7   ar
    13    34    39   ar
    14    32    10   ar
    15     5     7    1
    16     5     6    2
    17    29    28    1
    18    28    11   ar
    19     7     8   ar
    20    36    37   ar
    21    39    38   ar
    22    10    11   ar
    23    10     9   ar
    24    11    12    1
    25    37    38   ar
    26     8     9   ar
    27    12    13    1
    28    14    13   ar
    29    14    15   ar
    30    13    18   ar
    31    15    16   ar
    32    27    25   ar
    33    26    25   ar
    34    25    24    1
    35    18    17   ar
    36    16    17   ar
    37    16    19    1
    38    24    19   ar
    39    24    23   ar
    40    19    20   ar
    41    23    22   ar
    42    20    21   ar
    43    22    21   ar
