@<TRIPOS>MOLECULE
3kmm_LHL_A_1.pdb
 35 38 0 0 0
SMALL
GASTEIGER

@<TRIPOS>ATOM
      1  N1        24.8710   35.3000   82.4700 N.2     1  LHL1       -0.1685
      2  C2        25.8730   35.9240   83.1370 C.1     1  LHL1        0.1709
      3  N2        27.1930   35.6420   82.6750 N.pl3   1  LHL1       -0.1357
      4  N3        25.6860   36.7670   84.1810 N.2     1  LHL1       -0.3206
      5  C4        24.4200   36.9640   84.5600 C.2     1  LHL1        0.2022
      6  C5        25.2740   38.6480   86.1870 C.3     1  LHL1        0.1242
      7  N5        24.1720   37.8440   85.6500 N.am    1  LHL1       -0.2156
      8  C6        22.9020   37.9450   86.2640 C.2     1  LHL1        0.3169
      9  O6        22.7200   38.6950   87.2330 O.2     1  LHL1       -0.2516
     10  N7        21.8620   37.1490   85.7430 N.am    1  LHL1       -0.2367
     11  C8        21.9420   36.5920   84.3710 C.3     1  LHL1        0.1318
     12  C9        23.3570   36.3450   83.9290 C.2     1  LHL1        0.0633
     13  C10       23.6250   35.5260   82.8630 C.2     1  LHL1        0.1130
     14  C21       28.3770   36.3620   83.1090 C.ar    1  LHL1        0.0828
     15  C22       29.6040   35.9020   82.6210 C.ar    1  LHL1        0.0205
     16  C23       30.7690   36.5430   82.9870 C.ar    1  LHL1        0.0383
     17  C24       30.7060   37.6430   83.8320 C.ar    1  LHL1        0.1387
     18  O24       31.8970   38.2750   84.1720 O.3     1  LHL1       -0.4740
     19  C25       29.4840   38.1190   84.3330 C.ar    1  LHL1        0.0383
     20  C26       28.3000   37.4720   83.9650 C.ar    1  LHL1        0.0205
     21  C27       31.8770   38.8400   85.4830 C.3     1  LHL1        0.2226
     22  C28       33.2140   38.5890   86.2130 C.3     1  LHL1        0.1200
     23  N28       34.2870   39.4590   85.6670 N.3     1  LHL1       -0.2696
     24  C29       34.9180   38.8420   84.4790 C.3     1  LHL1        0.0722
     25  C30       35.9220   39.8150   83.8420 C.3     1  LHL1        0.0188
     26  C31       35.3080   39.7540   86.6990 C.3     1  LHL1        0.0722
     27  C32       34.6840   40.5110   87.8810 C.3     1  LHL1        0.0188
     28  C71       20.5710   37.1540   86.4140 C.ar    1  LHL1        0.0767
     29  C72       19.6660   38.2010   86.1740 C.ar    1  LHL1        0.0722
     30 CL72       20.1010   39.5240   85.1140 Cl      1  LHL1       -0.0809
     31  C73       18.4210   38.1990   86.8240 C.ar    1  LHL1        0.0127
     32  C74       18.0990   37.1650   87.7070 C.ar    1  LHL1        0.0018
     33  C75       18.9990   36.1250   87.9500 C.ar    1  LHL1        0.0127
     34  C76       20.2400   36.1160   87.3030 C.ar    1  LHL1        0.0722
     35 CL76       21.3570   34.8210   87.5950 Cl      1  LHL1       -0.0809
@<TRIPOS>BOND
     1     1    13    1
     2     1     2    2
     3    15    16   ar
     4    15    14   ar
     5     3    14    1
     6     3     2    1
     7    13    12    2
     8    16    17   ar
     9    14    20   ar
    10     2     4    2
    11    17    18    1
    12    17    19   ar
    13    25    24    1
    14    12    11    1
    15    12     5    1
    16    20    19   ar
    17    18    21    1
    18     4     5    2
    19    11    10    1
    20    24    23    1
    21     5     7    1
    22    30    29    1
    23    21    22    1
    24     7     6    1
    25     7     8   am
    26    23    22    1
    27    23    26    1
    28    10     8   am
    29    10    28    1
    30    29    28   ar
    31    29    31   ar
    32     8     9    2
    33    28    34   ar
    34    26    27    1
    35    31    32   ar
    36    34    35    1
    37    34    33   ar
    38    32    33   ar
