@<TRIPOS>MOLECULE
3kmo_EAA_A_1.pdb
 19 19 0 0 0
SMALL
GASTEIGER

@<TRIPOS>ATOM
      1  C1         8.8560    3.8170   31.2520 C.ar  214  EAA214      0.1506
      2  O2         8.4370    3.6800   32.5480 O.3   214  EAA214     -0.4628
      3  C2         9.5390    2.6730   30.6080 C.ar  214  EAA214      0.1021
      4 CL1         9.8600    1.1280   31.4520 Cl    214  EAA214     -0.0782
      5  C3         9.9790    2.7960   29.2170 C.ar  214  EAA214      0.0742
      6 CL2        10.8000    1.3890   28.5460 Cl    214  EAA214     -0.0812
      7  C4         9.7340    4.0330   28.4580 C.ar  214  EAA214      0.0502
      8  C5         9.0690    5.0550   29.1610 C.ar  214  EAA214      0.0072
      9  C6         8.6430    4.9720   30.5030 C.ar  214  EAA214      0.0380
     10  C7        10.1650    4.1970   27.0090 C.2   214  EAA214      0.1925
     11  O1         9.8060    5.1570   26.3270 O.2   214  EAA214     -0.2869
     12  C8        11.0240    3.2650   26.3010 C.2   214  EAA214      0.0168
     13  C9        10.6140    1.8340   25.9420 C.3   214  EAA214      0.0296
     14  C10       11.6800    1.0850   25.1480 C.3   214  EAA214      0.0051
     15  C11       12.1680    3.7670   25.9070 C.2   214  EAA214     -0.0013
     16  C12        8.6580    4.7140   33.5040 C.3   214  EAA214      0.3186
     17  C13        7.3740    5.4600   33.7590 C.2   214  EAA214      0.4084
     18  O          6.9010    6.2090   32.8720 O.co2 214  EAA214     -0.2415
     19  OXT        6.8510    5.2770   34.8730 O.co2 214  EAA214     -0.2415
@<TRIPOS>BOND
     1    14    13    1
     2    15    12    2
     3    13    12    1
     4    12    10    1
     5    11    10    2
     6    10     7    1
     7     7     8   ar
     8     7     5   ar
     9     6     5    1
    10     8     9   ar
    11     5     3   ar
    12     9     1   ar
    13     3     1   ar
    14     3     4    1
    15     1     2    1
    16     2    16    1
    17    18    17   ar
    18    16    17    1
    19    17    19   ar
