@<TRIPOS>MOLECULE
3kmo_GSH_A_1.pdb
 20 19 0 0 0
SMALL
GASTEIGER

@<TRIPOS>ATOM
      1  N1        16.9830   10.7990   23.9350 N.3   210  GSH210     -0.1208
      2  CA1       16.8280    9.5220   24.6100 C.3   210  GSH210      0.1948
      3  C1        18.1210    8.7440   24.7930 C.2   210  GSH210      0.3819
      4  O11       18.7300    8.3780   23.7640 O.co2 210  GSH210     -0.2441
      5  O12       18.6140    8.4050   25.9200 O.co2 210  GSH210     -0.2441
      6  CB1       16.0750    9.7010   25.9180 C.3   210  GSH210      0.0402
      7  CG1       15.6700    8.3640   26.5280 C.3   210  GSH210      0.0889
      8  CD1       14.1860    8.2730   26.8620 C.2   210  GSH210      0.2418
      9  OE1       13.1660    8.4990   25.8780 O.2   210  GSH210     -0.2733
     10  N2        13.9600    7.9080   28.1370 N.am  210  GSH210     -0.1968
     11  CA2       12.7350    7.2690   28.5570 C.3   210  GSH210      0.1843
     12  C2        12.3910    7.7990   29.9400 C.2   210  GSH210      0.2627
     13  O2        13.4270    7.8990   30.8850 O.2   210  GSH210     -0.2714
     14  CB2       12.8420    5.7290   28.5480 C.3   210  GSH210      0.0997
     15  SG2       13.9700    5.0680   27.2770 S.3   210  GSH210     -0.0797
     16  N3        11.1080    8.1400   30.1900 N.am  210  GSH210     -0.1917
     17  CA3       10.5410    8.2850   31.5040 C.3   210  GSH210      0.2285
     18  C3        10.2130    9.7360   31.8040 C.2   210  GSH210      0.3865
     19  O31       10.1230   10.6240   30.8960 O.co2 210  GSH210     -0.2437
     20  O32       10.0490   10.0730   32.9990 O.co2 210  GSH210     -0.2437
@<TRIPOS>BOND
     1     4     3   ar
     2     1     2    1
     3     2     3    1
     4     2     6    1
     5     3     5   ar
     6     9     8    2
     7     6     7    1
     8     7     8    1
     9     8    10   am
    10    15    14    1
    11    10    11    1
    12    14    11    1
    13    11    12    1
    14    12    16   am
    15    12    13    2
    16    16    17    1
    17    19    18   ar
    18    17    18    1
    19    18    20   ar
