@<TRIPOS>MOLECULE
3kmr_EQN_A_1.pdb
 26 28 0 0 0
SMALL
GASTEIGER

@<TRIPOS>ATOM
      1  CAA      -10.2330  -12.1840  -13.3630 C.3     1  EQN1        0.0044
      2  CAB      -11.7880  -10.2480  -13.4820 C.3     1  EQN1        0.0044
      3  CAC      -11.0680  -10.4690  -17.9260 C.3     1  EQN1        0.0044
      4  CAD       -9.1860  -12.0180  -17.4770 C.3     1  EQN1        0.0044
      5  OAE       -4.1990   -4.1180   -8.1230 O.co2   1  EQN1       -0.2406
      6  OAF       -6.8470   -6.5530  -14.0660 O.2     1  EQN1       -0.2680
      7  OAG       -4.2850   -6.0020   -7.0080 O.co2   1  EQN1       -0.2406
      8  CAH       -6.2810   -5.8750  -11.4120 C.ar    1  EQN1        0.0168
      9  CAI       -6.6280   -7.8260  -10.0330 C.ar    1  EQN1        0.0168
     10  CAJ       -5.5810   -5.2620  -10.3530 C.ar    1  EQN1        0.0079
     11  CAK       -5.9180   -7.2260   -8.9900 C.ar    1  EQN1        0.0079
     12  CAL       -7.9320   -8.3710  -15.7840 C.ar    1  EQN1        0.0042
     13  CAM       -8.6160   -9.2890  -16.5410 C.ar    1  EQN1       -0.0045
     14  CAN       -9.1700   -9.2630  -13.9880 C.ar    1  EQN1       -0.0000
     15  CAO      -12.0030  -12.1100  -15.0980 C.3     1  EQN1        0.0044
     16  CAP      -11.3480  -12.4870  -16.4200 C.3     1  EQN1        0.0044
     17  NAQ       -7.5220   -7.7920  -12.2170 N.am    1  EQN1       -0.1754
     18  CAR       -4.5830   -5.2900   -7.9920 C.2     1  EQN1        0.3878
     19  CAS       -7.5100   -7.4440  -13.5440 C.2     1  EQN1        0.2690
     20  CAT       -6.8230   -7.1600  -11.2520 C.ar    1  EQN1        0.0737
     21  CAU       -5.3930   -5.9360   -9.1470 C.ar    1  EQN1        0.0799
     22  CAV       -8.2480   -8.3640  -14.4510 C.ar    1  EQN1        0.0551
     23  CAW       -9.5830  -10.2260  -16.1180 C.ar    1  EQN1       -0.0268
     24  CAX       -9.8890  -10.2090  -14.7390 C.ar    1  EQN1       -0.0266
     25  CAY      -11.0110  -11.2830  -14.3330 C.3     1  EQN1        0.0186
     26  CAZ      -10.4360  -11.3670  -16.8510 C.3     1  EQN1        0.0186
@<TRIPOS>BOND
     1     3    26    1
     2     4    26    1
     3    26    16    1
     4    26    23    1
     5    13    23   ar
     6    13    12   ar
     7    16    15    1
     8    23    24   ar
     9    12    22   ar
    10    15    25    1
    11    24    25    1
    12    24    14   ar
    13    22    14   ar
    14    22    19    1
    15    25     2    1
    16    25     1    1
    17     6    19    2
    18    19    17   am
    19    17    20    1
    20     8    20   ar
    21     8    10   ar
    22    20     9   ar
    23    10    21   ar
    24     9    11   ar
    25    21    11   ar
    26    21    18    1
    27     5    18   ar
    28    18     7   ar
