@<TRIPOS>MOLECULE
3kmt_SAH_A_1.pdb
 26 28 0 0 0
SMALL
GASTEIGER

@<TRIPOS>ATOM
      1  N         23.1090   -3.2250   13.6390 N.3   120  SAH120     -0.1208
      2  CA        24.4280   -2.7280   13.4360 C.3   120  SAH120      0.1952
      3  CB        24.4450   -1.2310   13.6220 C.3   120  SAH120      0.0422
      4  CG        24.1570   -0.5190   12.3480 C.3   120  SAH120      0.0597
      5  SD        25.3580   -0.7070   11.1300 S.3   120  SAH120     -0.1375
      6  C         25.3490   -3.4470   14.3620 C.2   120  SAH120      0.3819
      7  O         26.4750   -3.1080   14.2650 O.co2 120  SAH120     -0.2441
      8  OXT       24.9670   -4.3160   15.1470 O.co2 120  SAH120     -0.2441
      9  C5'       24.6400   -1.1080    9.6140 C.3   120  SAH120      0.0899
     10  C4'       24.1130   -2.5280    9.4960 C.3   120  SAH120      0.1630
     11  O4'       23.0910   -2.8050   10.3750 O.3   120  SAH120     -0.3153
     12  C3'       23.5180   -2.8750    8.1330 C.3   120  SAH120      0.2168
     13  O3'       24.3680   -3.0200    7.0930 O.3   120  SAH120     -0.2175
     14  C2'       22.7240   -4.0960    8.4870 C.3   120  SAH120      0.2569
     15  O2'       23.4860   -5.2820    8.5070 O.3   120  SAH120     -0.2130
     16  C1'       22.1560   -3.6740    9.8470 C.3   120  SAH120      0.3185
     17  N9        20.8050   -3.0240    9.7090 N.pl3 120  SAH120     -0.1439
     18  C8        20.4220   -1.7880    9.9950 C.3   120  SAH120      0.3377
     19  N7        19.1880   -1.5690    9.7560 N.2   120  SAH120     -0.2095
     20  C5        18.6560   -2.6390    9.2960 C.2   120  SAH120      0.2526
     21  C6        17.3330   -3.0250    8.8490 C.2   120  SAH120      0.4393
     22  N6        16.3140   -2.2260    8.8440 N.pl3 120  SAH120      0.2180
     23  N1        17.2310   -4.3290    8.4210 N.2   120  SAH120      0.0021
     24  C2        18.2580   -5.1650    8.4180 C.3   120  SAH120      0.5254
     25  N3        19.4580   -4.8590    8.8120 N.2   120  SAH120     -0.0055
     26  C4        19.7260   -3.6350    9.2540 C.2   120  SAH120      0.3518
@<TRIPOS>BOND
     1    13    12    1
     2    12    14    1
     3    12    10    1
     4    24    23    1
     5    24    25    1
     6    23    21    2
     7    14    15    1
     8    14    16    1
     9    25    26    2
    10    22    21    1
    11    21    20    1
    12    26    20    1
    13    26    17    1
    14    20    19    2
    15    10     9    1
    16    10    11    1
    17     9     5    1
    18    17    16    1
    19    17    18    1
    20    19    18    1
    21    16    11    1
    22     5     4    1
    23     4     3    1
    24     2     3    1
    25     2     1    1
    26     2     6    1
    27     7     6   ar
    28     6     8   ar
