@<TRIPOS>MOLECULE
3kmw_ATP_A_1.pdb
 31 33 0 0 0
SMALL
GASTEIGER

@<TRIPOS>ATOM
      1  PG        -6.9380   -2.2430   15.5740 P.3   502  ATP502      0.5373
      2  O1G       -6.1960   -0.9640   15.8520 O.2   502  ATP502     -0.2221
      3  O2G       -6.1180   -3.4470   16.1350 O.3   502  ATP502     -0.1143
      4  O3G       -8.3540   -2.3020   16.2730 O.3   502  ATP502     -0.1143
      5  PB        -7.2290   -1.6180   12.8000 P.3   502  ATP502      0.2277
      6  O1B       -6.1640   -0.5600   12.9180 O.3   502  ATP502     -0.4368
      7  O2B       -7.2520   -2.5720   11.6780 O.2   502  ATP502     -0.5168
      8  O3B       -7.2050   -2.6310   14.0120 O.3   502  ATP502     -0.2258
      9  PA        -9.0650    0.5320   13.3750 P.3   502  ATP502      0.2189
     10  O1A      -10.5520    0.4160   13.6370 O.2   502  ATP502     -0.5170
     11  O2A       -8.1940    1.0460   14.4370 O.3   502  ATP502     -0.4371
     12  O3A       -8.6470   -0.9040   12.8120 O.3   502  ATP502     -0.2700
     13  O5'       -8.8590    1.4670   12.1140 O.3   502  ATP502     -0.3112
     14  C5'       -9.8050    1.3250   11.0240 C.3   502  ATP502      0.1813
     15  C4'       -9.4400    2.2750    9.8970 C.3   502  ATP502      0.1821
     16  O4'       -9.4580    3.5950   10.4250 O.3   502  ATP502     -0.3135
     17  C3'       -7.9560    2.0980    9.4890 C.3   502  ATP502      0.2184
     18  O3'       -7.8430    1.1310    8.4560 O.3   502  ATP502     -0.2174
     19  C2'       -7.5850    3.4760    8.9230 C.3   502  ATP502      0.2570
     20  O2'       -8.1250    3.6150    7.5730 O.3   502  ATP502     -0.2130
     21  C1'       -8.4040    4.3990    9.8000 C.3   502  ATP502      0.3186
     22  N9        -7.5610    5.1360   10.7770 N.pl3 502  ATP502     -0.1439
     23  C8        -6.9930    4.6570   11.9060 C.3   502  ATP502      0.3377
     24  N7        -6.3850    5.6830   12.5000 N.2   502  ATP502     -0.2095
     25  C5        -6.5340    6.7750   11.7650 C.2   502  ATP502      0.2526
     26  C6        -6.1170    8.0850   11.8730 C.2   502  ATP502      0.4393
     27  N6        -5.3460    8.5530   12.9020 N.pl3 502  ATP502      0.2180
     28  N1        -6.5060    8.9200   10.8970 N.2   502  ATP502      0.0021
     29  C2        -7.2430    8.5690    9.8710 C.3   502  ATP502      0.5254
     30  N3        -7.6520    7.3210    9.7360 N.2   502  ATP502     -0.0055
     31  C4        -7.3090    6.4160   10.6660 C.2   502  ATP502      0.3518
@<TRIPOS>BOND
     1    20    19    1
     2    18    17    1
     3    19    17    1
     4    19    21    1
     5    17    15    1
     6    30    29    1
     7    30    31    2
     8    21    16    1
     9    21    22    1
    10    29    28    1
    11    15    16    1
    12    15    14    1
    13    31    22    1
    14    31    25    1
    15    22    23    1
    16    28    26    2
    17    14    13    1
    18     7     5    2
    19    25    26    1
    20    25    24    2
    21    26    27    1
    22    23    24    1
    23    13     9    1
    24     5    12    1
    25     5     6    1
    26     5     8    1
    27    12     9    1
    28     9    10    2
    29     9    11    1
    30     8     1    1
    31     1     2    2
    32     1     3    1
    33     1     4    1
