@<TRIPOS>MOLECULE
3kmx_G00_A_1.pdb
 17 17 0 0 0
SMALL
GASTEIGER

@<TRIPOS>ATOM
      1  C1        24.4870   11.2810   20.2330 C.ar  501  G00501      0.1490
      2  N1        22.4530    8.8070   24.6810 N.pl3 501  G00501     -0.1181
      3  O1        25.6050   11.8530   19.6080 O.3   501  G00501     -0.4746
      4  S1        20.4300   10.5390   23.6510 S.3   501  G00501     -0.0676
      5 CL1        23.1830   13.4880   19.3380 Cl    501  G00501     -0.0791
      6  C2        24.5610   10.0300   20.9290 C.ar  501  G00501      0.0375
      7  N2        21.8010   10.8630   25.7860 N.pl3 501  G00501     -0.1181
      8  C3        23.4070    9.4880   21.5660 C.ar  501  G00501     -0.0002
      9  C4        22.1650   10.1840   21.5110 C.ar  501  G00501     -0.0099
     10  C5        22.0840   11.4300   20.8220 C.ar  501  G00501      0.0111
     11  C6        23.2400   11.9680   20.1880 C.ar  501  G00501      0.0912
     12  C7        26.7140   10.9650   19.4430 C.3   501  G00501      0.2054
     13  C8        27.8650   11.4180   20.3380 C.3   501  G00501      0.0473
     14  C9        28.6880   10.2350   20.8140 C.3   501  G00501      0.0038
     15  C10       29.5140   10.5600   22.0620 C.3   501  G00501      0.0001
     16  C11       20.9360    9.5880   22.1700 C.3   501  G00501      0.0915
     17  C12       21.6760    9.9830   24.7750 C.2   501  G00501      0.2307
@<TRIPOS>BOND
     1     5    11    1
     2    12     3    1
     3    12    13    1
     4     3     1    1
     5    11     1   ar
     6    11    10   ar
     7     1     6   ar
     8    13    14    1
     9    14    15    1
    10    10     9   ar
    11     6     8   ar
    12     9     8   ar
    13     9    16    1
    14    16     4    1
    15     4    17    1
    16     2    17    2
    17    17     7    1
