@<TRIPOS>MOLECULE
3kmy_D8Y_A_1.pdb
 16 17 0 0 0
SMALL
GASTEIGER

@<TRIPOS>ATOM
      1  C1        21.6660   12.2540   25.8860 C.ar  501  D8Y501      0.1004
      2  N1        22.1020   10.9870   25.6850 N.ar  501  D8Y501     -0.2262
      3 CL1        20.8610   13.8560   17.6940 Cl    501  D8Y501     -0.0823
      4  C2        21.9190   10.3290   24.5040 C.ar  501  D8Y501      0.1657
      5  N2        22.3720    9.0560   24.3830 N.pl3 501  D8Y501     -0.1075
      6  C3        21.2630   10.9500   23.4220 C.ar  501  D8Y501      0.0130
      7  C4        20.7960   12.2760   23.6080 C.ar  501  D8Y501      0.0002
      8  C5        20.9930   12.9440   24.8450 C.ar  501  D8Y501      0.0205
      9  C6        21.0580   10.2430   22.0870 C.3   501  D8Y501      0.0340
     10  C7        22.3730   10.1980   21.2380 C.3   501  D8Y501      0.0312
     11  C8        22.6360   11.5120   20.5070 C.ar  501  D8Y501     -0.0210
     12  C9        23.8040   12.2640   20.8240 C.ar  501  D8Y501     -0.0042
     13  C10       24.0580   13.5040   20.1700 C.ar  501  D8Y501      0.0005
     14  C11       23.1440   13.9950   19.1950 C.ar  501  D8Y501      0.0114
     15  C12       21.9760   13.2460   18.8720 C.ar  501  D8Y501      0.0574
     16  C13       21.7220   12.0020   19.5250 C.ar  501  D8Y501      0.0071
@<TRIPOS>BOND
     1     3    15    1
     2    15    14   ar
     3    15    16   ar
     4    14    13   ar
     5    16    11   ar
     6    13    12   ar
     7    11    12   ar
     8    11    10    1
     9    10     9    1
    10     9     6    1
    11     6     7   ar
    12     6     4   ar
    13     7     8   ar
    14     5     4    1
    15     4     2   ar
    16     8     1   ar
    17     2     1   ar
