@<TRIPOS>MOLECULE
3kmz_EQO_A_1.pdb
 31 34 0 0 0
SMALL
GASTEIGER

@<TRIPOS>ATOM
      1  CAA      -44.3140   39.5170   -7.1260 C.3     2  EQO2        0.0047
      2  CAB      -44.5530   38.9810   -9.5340 C.3     2  EQO2        0.0047
      3  OAC      -33.5170   46.4400  -11.8930 O.co2   2  EQO2       -0.2406
      4  OAD      -32.5380   44.5530  -12.2330 O.co2   2  EQO2       -0.2406
      5  CAE      -39.6960   37.5890   -7.5150 C.1     2  EQO2       -0.0601
      6  CAF      -38.6240   37.3140   -7.0480 C.1     2  EQO2       -0.0598
      7  CAG      -37.9040   42.1510   -9.5660 C.2     2  EQO2        0.0000
      8  CAH      -39.1570   42.5690   -9.3610 C.2     2  EQO2       -0.0000
      9  CAI      -41.9530   37.2210   -7.6290 C.2     2  EQO2       -0.0176
     10  CAJ      -34.9380   36.2160   -5.6120 C.ar    2  EQO2        0.0000
     11  CAK      -35.5970   35.4180   -6.5530 C.ar    2  EQO2        0.0006
     12  CAL      -35.5550   37.3800   -5.1500 C.ar    2  EQO2        0.0006
     13  CAM      -36.8530   35.7890   -7.0450 C.ar    2  EQO2        0.0082
     14  CAN      -36.8160   37.7520   -5.6370 C.ar    2  EQO2        0.0082
     15  CAO      -36.8780   44.4480  -10.0830 C.ar    2  EQO2        0.0002
     16  CAP      -35.7050   42.4030  -10.5770 C.ar    2  EQO2        0.0002
     17  CAQ      -41.5300   42.0010   -9.3080 C.ar    2  EQO2       -0.0003
     18  CAR      -35.7940   45.1720  -10.6300 C.ar    2  EQO2        0.0066
     19  CAS      -34.6360   43.1110  -11.1070 C.ar    2  EQO2        0.0066
     20  CAT      -42.6040   41.1480   -9.0900 C.ar    2  EQO2       -0.0043
     21  CAU      -40.0000   40.3000   -8.5590 C.ar    2  EQO2        0.0003
     22  CAV      -43.2530   37.6480   -7.9050 C.3     2  EQO2        0.0307
     23  CAW      -33.4930   45.2080  -11.7640 C.2     2  EQO2        0.3878
     24  CAX      -40.8610   38.0510   -7.8200 C.2     2  EQO2        0.0374
     25  CAY      -37.4630   36.9640   -6.5910 C.ar    2  EQO2        0.0420
     26  CAZ      -36.8130   43.0510  -10.0370 C.ar    2  EQO2        0.0000
     27  CBA      -40.2320   41.5990   -9.0240 C.ar    2  EQO2       -0.0000
     28  CBB      -34.6680   44.5010  -11.1400 C.ar    2  EQO2        0.0798
     29  CBC      -41.0870   39.4340   -8.3380 C.ar    2  EQO2        0.0034
     30  CBD      -42.4040   39.8520   -8.6090 C.ar    2  EQO2       -0.0219
     31  CBE      -43.5820   38.9940   -8.3580 C.3     2  EQO2        0.0230
@<TRIPOS>BOND
     1     4    23   ar
     2     3    23   ar
     3    23    28    1
     4    28    19   ar
     5    28    18   ar
     6    19    16   ar
     7    18    15   ar
     8    16    26   ar
     9    15    26   ar
    10    26     7    1
    11     7     8    2
    12     2    31    1
    13     8    27    1
    14    17    20   ar
    15    17    27   ar
    16    20    30   ar
    17    27    21   ar
    18    30    31    1
    19    30    29   ar
    20    21    29   ar
    21    31    22    1
    22    31     1    1
    23    29    24    1
    24    22     9    1
    25    24     9    2
    26    24     5    1
    27     5     6    3
    28     6    25    1
    29    13    25   ar
    30    13    11   ar
    31    25    14   ar
    32    11    10   ar
    33    14    12   ar
    34    10    12   ar
