@<TRIPOS>MOLECULE
3kn0_3TO_A_1.pdb
 24 26 0 0 0
SMALL
GASTEIGER

@<TRIPOS>ATOM
      1  C1        22.0640   13.0650   24.7090 C.ar  501  3TO501      0.0205
      2  N1        22.8530   11.0020   25.6470 N.ar  501  3TO501     -0.2262
      3  O1        30.0320   10.5220   22.2070 O.2   501  3TO501     -0.4533
      4  C2        22.7520   12.3500   25.7180 C.ar  501  3TO501      0.1004
      5  N2        22.4330    8.9260   24.5940 N.pl3 501  3TO501     -0.1075
      6  C3        22.2990   10.2510   24.6050 C.ar  501  3TO501      0.1657
      7  N3        27.1590   11.0080   20.5200 N.3   501  3TO501     -0.2613
      8  C4        21.5950   10.9310   23.5650 C.ar  501  3TO501      0.0130
      9  C5        21.4890   12.3430   23.6370 C.ar  501  3TO501      0.0002
     10  C6        20.9650   10.1850   22.3940 C.3   501  3TO501      0.0340
     11  C7        22.0360    9.5190   21.4740 C.3   501  3TO501      0.0311
     12  C8        22.7890   10.5310   20.6120 C.ar  501  3TO501     -0.0221
     13  C9        24.1710   10.3260   20.3520 C.ar  501  3TO501     -0.0072
     14  C10       24.8960   11.2560   19.5540 C.ar  501  3TO501     -0.0064
     15  C11       24.2390   12.3980   19.0120 C.ar  501  3TO501     -0.0029
     16  C12       22.8550   12.6080   19.2690 C.ar  501  3TO501     -0.0006
     17  C13       22.1300   11.6750   20.0680 C.ar  501  3TO501     -0.0043
     18  C14       26.3650   11.0320   19.2800 C.3   501  3TO501      0.0995
     19  C15       29.0830    9.8570   21.4970 C.ar  501  3TO501      0.1392
     20  C16       28.4780   10.4220   20.2360 C.3   501  3TO501      0.1379
     21  C17       28.7620    8.6750   22.0390 C.ar  501  3TO501      0.0376
     22  C18       29.5820    8.5550   23.2180 C.ar  501  3TO501      0.0435
     23  C19       30.3080    9.6790   23.2590 C.ar  501  3TO501      0.1792
     24  C20       27.3070   12.3730   21.0600 C.3   501  3TO501      0.0902
@<TRIPOS>BOND
     1    15    16   ar
     2    15    14   ar
     3    16    17   ar
     4    18    14    1
     5    18     7    1
     6    14    13   ar
     7    17    12   ar
     8    20     7    1
     9    20    19    1
    10    13    12   ar
    11     7    24    1
    12    12    11    1
    13    11    10    1
    14    19    21   ar
    15    19     3   ar
    16    21    22   ar
    17     3    23   ar
    18    10     8    1
    19    22    23   ar
    20     8     9   ar
    21     8     6   ar
    22     9     1   ar
    23     5     6    1
    24     6     2   ar
    25     1     4   ar
    26     2     4   ar
