@<TRIPOS>MOLECULE
3kn3_GSH_B_1.pdb
 20 19 0 0 0
SMALL
GASTEIGER

@<TRIPOS>ATOM
      1  N1       -34.7890  -17.6270  -28.6860 N.3   262  GSH262     -0.1208
      2  CA1      -35.3660  -18.2870  -27.5340 C.3   262  GSH262      0.1948
      3  C1       -34.8230  -19.6810  -27.4780 C.2   262  GSH262      0.3819
      4  O11      -34.6560  -20.3040  -28.5480 O.co2 262  GSH262     -0.2441
      5  O12      -34.6780  -20.2790  -26.3830 O.co2 262  GSH262     -0.2441
      6  CB1      -36.8780  -18.3720  -27.7200 C.3   262  GSH262      0.0402
      7  CG1      -37.3020  -17.6280  -28.9780 C.3   262  GSH262      0.0889
      8  CD1      -37.4330  -16.1880  -28.5510 C.2   262  GSH262      0.2418
      9  OE1      -38.2390  -15.9020  -27.4230 O.2   262  GSH262     -0.2733
     10  N2       -36.9890  -15.2810  -29.4290 N.am  262  GSH262     -0.1968
     11  CA2      -36.6770  -13.9010  -29.0950 C.3   262  GSH262      0.1843
     12  C2       -37.3300  -13.4470  -27.8240 C.2   262  GSH262      0.2627
     13  O2       -38.4780  -12.6290  -27.8420 O.2   262  GSH262     -0.2714
     14  CB2      -37.0900  -12.9720  -30.2280 C.3   262  GSH262      0.0997
     15  SG2      -35.9290  -11.5810  -30.3290 S.3   262  GSH262     -0.0797
     16  N3       -36.8380  -13.9580  -26.7010 N.am  262  GSH262     -0.1917
     17  CA3      -37.2890  -13.4610  -25.4130 C.3   262  GSH262      0.2285
     18  C3       -36.2180  -12.5860  -24.7930 C.2   262  GSH262      0.3865
     19  O31      -35.0030  -12.7760  -25.0510 O.co2 262  GSH262     -0.2437
     20  O32      -36.5260  -11.6930  -23.9780 O.co2 262  GSH262     -0.2437
@<TRIPOS>BOND
     1    15    14    1
     2    14    11    1
     3    10    11    1
     4    10     8   am
     5    11    12    1
     6     7     8    1
     7     7     6    1
     8     1     2    1
     9     8     9    2
    10     4     3   ar
    11    13    12    2
    12    12    16   am
    13     6     2    1
    14     2     3    1
    15     3     5   ar
    16    16    17    1
    17    17    18    1
    18    19    18   ar
    19    18    20   ar
