@<TRIPOS>MOLECULE
3knd_III_B_1.pdb
 48 48 0 0 0
SMALL
GASTEIGER

@<TRIPOS>ATOM
      1  N         42.4710   49.9800   38.9630 N.3   283  GLY283     -0.1210
      2  CA        42.7630   51.3630   38.6380 C.3   283  GLY283      0.1956
      3  C         42.0730   52.3730   39.5430 C.2   283  GLY283      0.2612
      4  O         41.1450   53.0630   39.1160 O.2   283  GLY283     -0.2717
      5  N         42.5220   52.4580   40.7940 N.am  284  LYS284     -0.1965
      6  CA        42.0710   53.5090   41.7070 C.3   284  LYS284      0.1728
      7  C         42.5560   54.8600   41.1900 C.2   284  LYS284      0.2616
      8  O         43.6870   54.9720   40.7210 O.2   284  LYS284     -0.2715
      9  CB        42.6340   53.2890   43.1140 C.3   284  LYS284      0.0311
     10  CG        42.2890   51.9550   43.7500 C.3   284  LYS284      0.0038
     11  CD        40.8420   51.8950   44.2210 C.3   284  LYS284      0.0206
     12  CE        40.6350   50.7120   45.1430 C.3   284  LYS284      0.1093
     13  NZ        39.2910   50.6830   45.7550 N.3   284  LYS284     -0.1314
     14  N         41.7090   55.8830   41.2820 N.am  285  ARG285     -0.1963
     15  CA        42.0700   57.2280   40.8300 C.3   285  ARG285      0.1729
     16  C         41.8690   58.2500   41.9400 C.2   285  ARG285      0.2616
     17  O         40.7340   58.5970   42.2830 O.2   285  ARG285     -0.2715
     18  CB        41.2420   57.6400   39.6060 C.3   285  ARG285      0.0348
     19  CG        41.5610   56.8710   38.3310 C.3   285  ARG285      0.0492
     20  CD        40.6850   57.3240   37.1750 C.3   285  ARG285      0.2205
     21  NE        39.2790   57.2470   37.5450 N.pl3 285  ARG285     -0.0865
     22  CZ        38.4140   58.2550   37.4820 C.cat 285  ARG285      0.5346
     23  NH1       38.7770   59.4460   37.0280 N.pl3 285  ARG285      0.1354
     24  NH2       37.1660   58.0550   37.8640 N.pl3 285  ARG285      0.1354
     25  N         42.9760   58.7360   42.4920 N.am  286  LYS286     -0.1963
     26  CA        42.9240   59.7530   43.5360 C.3   286  LYS286      0.1728
     27  C         42.1760   60.9850   43.0290 C.2   286  LYS286      0.2616
     28  O         42.0280   61.1860   41.8210 O.2   286  LYS286     -0.2715
     29  CB        44.3410   60.1400   43.9900 C.3   286  LYS286      0.0311
     30  CG        45.1740   58.9850   44.5470 C.3   286  LYS286      0.0038
     31  CD        44.7480   58.5910   45.9490 C.3   286  LYS286      0.0206
     32  CE        45.6290   57.4770   46.4880 C.3   286  LYS286      0.1093
     33  NZ        45.1860   56.9980   47.8210 N.3   286  LYS286     -0.1314
     34  N         41.6950   61.8000   43.9610 N.am  287  HIS287     -0.1959
     35  CA        40.9700   63.0160   43.6200 C.3   287  HIS287      0.1784
     36  C         41.9120   63.9830   42.9120 C.2   287  HIS287      0.2620
     37  O         41.4980   64.7330   42.0270 O.2   287  HIS287     -0.2715
     38  CB        40.4050   63.6600   44.8840 C.3   287  HIS287      0.0745
     39  CG        39.2540   64.5840   44.6330 C.2   287  HIS287      0.0653
     40  ND1       39.4140   65.9400   44.4490 N.2   287  HIS287     -0.2310
     41  CD2       37.9220   64.3480   44.5520 C.3   287  HIS287      0.1683
     42  CE1       38.2320   66.5000   44.2580 C.2   287  HIS287      0.1939
     43  NE2       37.3110   65.5560   44.3150 N.2   287  HIS287     -0.2440
     44  N         43.1840   63.9480   43.3030 N.am  288  GLU288     -0.1977
     45  CA        44.1940   64.8350   42.7330 C.3   288  GLU288      0.1597
     46  C         44.2360   64.7210   41.2120 C.2   288  GLU288      0.2287
     47  O         44.8520   65.5490   40.5370 O.2   288  GLU288     -0.2864
     48  CB        45.5720   64.5300   43.3280 C.3   288  GLU288      0.0319
@<TRIPOS>BOND
     1    23    22    1
     2    20    21    1
     3    20    19    1
     4    22    21    2
     5    22    24    1
     6    19    18    1
     7     2     1    1
     8     2     3    1
     9     4     3    2
    10     3     5   am
    11    18    15    1
    12    47    46    2
    13     8     7    2
    14     5     6    1
    15    15    14    1
    16    15    16    1
    17     7    14   am
    18     7     6    1
    19    46    45    1
    20     6     9    1
    21    28    27    2
    22    16    17    2
    23    16    25   am
    24    37    36    2
    25    25    26    1
    26    45    44    1
    27    45    48    1
    28    36    44   am
    29    36    35    1
    30    27    26    1
    31    27    34   am
    32     9    10    1
    33    26    29    1
    34    35    34    1
    35    35    38    1
    36    10    11    1
    37    29    30    1
    38    11    12    1
    39    42    43    2
    40    42    40    1
    41    43    41    1
    42    40    39    2
    43    30    31    1
    44    41    39    1
    45    39    38    1
    46    12    13    1
    47    31    32    1
    48    32    33    1
