@<TRIPOS>MOLECULE
3kne_DAW_A_1.pdb
 33 35 0 0 0
SMALL
GASTEIGER

@<TRIPOS>ATOM
      1  N1        15.8610    0.9110   16.1560 N.3   502  DAW502      0.0392
      2  N3        22.0110    7.2700   10.3980 N.ar  502  DAW502     -0.1274
      3  C4        16.8730    5.8050   14.3770 C.ar  502  DAW502      0.0551
      4  C5        15.5310    5.7950   14.7880 C.ar  502  DAW502      0.0059
      5  C6        15.0620    4.7210   15.5340 C.ar  502  DAW502      0.0202
      6  C7        17.3210    6.9770   13.5860 C.2   502  DAW502      0.2654
      7  C8        19.0170    8.1600   12.3440 C.3   502  DAW502      0.1588
      8  C10       19.6430   10.5970   12.4500 C.ar  502  DAW502     -0.0022
      9  C13       20.1800   10.3890   15.2170 C.ar  502  DAW502     -0.0003
     10  C15       20.0590    7.6410   11.4080 C.ar  502  DAW502      0.1026
     11  S1        15.3090    2.3010   16.8170 S.O2  502  DAW502      0.0935
     12  O1        15.8850    2.4540   18.1260 O.2   502  DAW502     -0.1503
     13  O2        13.8630    2.3970   16.6950 O.2   502  DAW502     -0.1503
     14  C1        15.9210    3.6610   15.8680 C.ar  502  DAW502      0.1251
     15  C2        17.2500    3.6630   15.4660 C.ar  502  DAW502      0.0202
     16  C3        17.7360    4.7360   14.7180 C.ar  502  DAW502      0.0059
     17  O3        16.5760    7.9310   13.3600 O.2   502  DAW502     -0.2683
     18  N2        18.6280    7.0150   13.1900 N.am  502  DAW502     -0.1927
     19  C9        19.4830    9.3710   13.1230 C.ar  502  DAW502      0.0031
     20  C11       20.0740   11.6950   13.1950 C.ar  502  DAW502     -0.0003
     21  C12       20.3400   11.5920   14.5640 C.ar  502  DAW502     -0.0000
     22  C14       19.7520    9.2860   14.4890 C.ar  502  DAW502     -0.0022
     23  C16       21.4000    7.9490   11.4100 C.ar  502  DAW502      0.1402
     24  N4        21.1000    6.5560    9.7740 N.ar  502  DAW502     -0.0636
     25  N5        19.9000    6.7620   10.3680 N.ar  502  DAW502     -0.2243
     26  C17       18.8040    6.0390    9.7810 C.3   502  DAW502      0.2150
     27  C20       17.7230    1.5170   10.6290 C.3   502  DAW502      0.0359
     28  C21       18.1370    0.5170   11.6930 C.3   502  DAW502      0.0705
     29  C18       17.8410    5.2700   10.6470 C.2   502  DAW502      0.2663
     30  O4        16.6350    5.5830   10.5800 O.2   502  DAW502     -0.2712
     31  N6        18.1880    3.9440   10.8800 N.am  502  DAW502     -0.2037
     32  C19       17.2930    2.8630   11.2450 C.3   502  DAW502      0.1161
     33  S2        18.3040   -1.1970   11.1120 S.3   502  DAW502     -0.0821
@<TRIPOS>BOND
     1    24    25   ar
     2    24     2   ar
     3    26    25    1
     4    26    29    1
     5    25    10   ar
     6     2    23   ar
     7    30    29    2
     8    27    32    1
     9    27    28    1
    10    29    31   am
    11    31    32    1
    12    33    28    1
    13    10    23   ar
    14    10     7    1
    15     7    19    1
    16     7    18    1
    17     8    19   ar
    18     8    20   ar
    19    19    22   ar
    20    18     6   am
    21    20    21   ar
    22    17     6    2
    23     6     3    1
    24     3    16   ar
    25     3     4   ar
    26    22     9   ar
    27    21     9   ar
    28    16    15   ar
    29     4     5   ar
    30    15    14   ar
    31     5    14   ar
    32    14    11    1
    33     1    11    1
    34    13    11    2
    35    11    12    2
