@<TRIPOS>MOLECULE
3ko0_TFP_A_1.pdb
 28 31 0 0 0
SMALL
GASTEIGER

@<TRIPOS>ATOM
      1  C1        37.8820   -5.0210   33.4040 C.ar  201  TFP201      0.0727
      2  C2        38.0740   -3.8320   34.1160 C.ar  201  TFP201      0.0044
      3  C3        37.3820   -3.5320   35.2810 C.ar  201  TFP201      0.0077
      4  C4        36.4640   -4.4400   35.7920 C.ar  201  TFP201      0.0431
      5  C5        36.2330   -5.7110   35.0520 C.ar  201  TFP201      0.0576
      6  C6        36.9580   -5.9510   33.8820 C.ar  201  TFP201      0.0192
      7  S         35.6360   -4.0660   37.2160 S.3   201  TFP201     -0.0844
      8  C7        35.3720   -5.6550   37.8090 C.ar  201  TFP201      0.0431
      9  C8        35.2650   -5.8670   39.1880 C.ar  201  TFP201      0.0077
     10  C9        35.0230   -7.1540   39.7150 C.ar  201  TFP201      0.0006
     11  C10       34.8810   -8.2570   38.8760 C.ar  201  TFP201      0.0013
     12  C11       34.9860   -8.0840   37.4750 C.ar  201  TFP201      0.0153
     13  C12       35.1720   -6.8130   36.8920 C.ar  201  TFP201      0.0576
     14  N1        35.3430   -6.7260   35.4730 N.pl3 201  TFP201     -0.2861
     15  C13       34.3390   -7.0650   34.4080 C.3   201  TFP201      0.0970
     16  C14       32.9130   -7.4570   34.7310 C.3   201  TFP201      0.0391
     17  C15       32.2840   -6.1590   35.1650 C.3   201  TFP201      0.0739
     18  N2        31.0520   -5.9050   34.4390 N.3   201  TFP201     -0.2703
     19  C16       30.0020   -6.0860   35.4480 C.3   201  TFP201      0.0897
     20  C17       28.6920   -5.7700   34.7520 C.3   201  TFP201      0.0897
     21  N3        28.7640   -4.3570   34.3240 N.3   201  TFP201     -0.2691
     22  C18       29.7760   -4.1870   33.2690 C.3   201  TFP201      0.0897
     23  C19       31.1160   -4.5290   33.9100 C.3   201  TFP201      0.0897
     24  C20       27.4140   -3.9490   33.9030 C.3   201  TFP201      0.0897
     25  C21       38.6330   -5.2970   32.1030 C.3   201  TFP201      0.4186
     26  F1        38.7760   -6.5850   31.9230 F     201  TFP201     -0.1659
     27  F2        39.8130   -4.7250   32.0510 F     201  TFP201     -0.1659
     28  F3        37.9560   -4.8780   31.0570 F     201  TFP201     -0.1659
@<TRIPOS>BOND
     1    28    25    1
     2    26    25    1
     3    27    25    1
     4    25     1    1
     5    22    23    1
     6    22    21    1
     7     1     6   ar
     8     1     2   ar
     9     6     5   ar
    10    24    21    1
    11    23    18    1
    12     2     3   ar
    13    21    20    1
    14    15    16    1
    15    15    14    1
    16    18    17    1
    17    18    19    1
    18    16    17    1
    19    20    19    1
    20     5    14    1
    21     5     4   ar
    22     3     4   ar
    23    14    13    1
    24     4     7    1
    25    13    12   ar
    26    13     8   ar
    27     7     8    1
    28    12    11   ar
    29     8     9   ar
    30    11    10   ar
    31     9    10   ar
