@<TRIPOS>MOLECULE
3ko1_ADP_A_1.pdb
 27 29 0 0 0
SMALL
GASTEIGER

@<TRIPOS>ATOM
      1  PB        25.1070 -131.4350    7.8350 P.3   800  ADP800      0.5373
      2  O1B       25.7660 -132.7760    8.0270 O.3   800  ADP800     -0.1143
      3  O2B       23.6300 -131.5050    7.5450 O.2   800  ADP800     -0.2221
      4  O3B       25.4850 -130.4070    8.8690 O.3   800  ADP800     -0.1143
      5  PA        25.8830 -131.7410    5.1240 P.3   800  ADP800      0.2231
      6  O1A       27.3460 -132.0170    4.8780 O.3   800  ADP800     -0.4370
      7  O2A       25.0620 -131.0890    4.0420 O.2   800  ADP800     -0.5169
      8  O3A       25.7640 -130.8730    6.4790 O.3   800  ADP800     -0.2261
      9  O5'       25.1750 -133.1470    5.4450 O.3   800  ADP800     -0.3111
     10  C5'       23.7720 -133.2800    5.2390 C.3   800  ADP800      0.1813
     11  C4'       23.4650 -134.5170    4.4000 C.3   800  ADP800      0.1821
     12  O4'       24.3330 -134.6710    3.2780 O.3   800  ADP800     -0.3135
     13  C3'       23.5770 -135.8140    5.1750 C.3   800  ADP800      0.2184
     14  O3'       22.1820 -136.1460    5.2090 O.3   800  ADP800     -0.2174
     15  C2'       24.2050 -136.7310    4.1500 C.3   800  ADP800      0.2570
     16  O2'       24.0100 -138.1480    4.0270 O.3   800  ADP800     -0.2130
     17  C1'       24.2830 -136.0420    2.8780 C.3   800  ADP800      0.3186
     18  N9        25.5770 -136.4920    2.3030 N.pl3 800  ADP800     -0.1439
     19  C8        26.7900 -136.3380    2.8630 C.3   800  ADP800      0.3377
     20  N7        27.7640 -136.8630    2.0760 N.2   800  ADP800     -0.2095
     21  C5        27.1700 -137.3710    0.9810 C.2   800  ADP800      0.2526
     22  C6        27.6100 -138.0700   -0.2510 C.2   800  ADP800      0.4393
     23  N6        28.9190 -138.3400   -0.4790 N.pl3 800  ADP800      0.2180
     24  N1        26.6600 -138.4300   -1.1420 N.2   800  ADP800      0.0021
     25  C2        25.3560 -138.1710   -0.9310 C.3   800  ADP800      0.5254
     26  N3        24.8910 -137.5430    0.1610 N.2   800  ADP800     -0.0055
     27  C4        25.7290 -137.1260    1.1380 C.2   800  ADP800      0.3518
@<TRIPOS>BOND
     1    24    25    1
     2    24    22    2
     3    25    26    1
     4    23    22    1
     5    22    21    1
     6    26    27    2
     7    21    27    1
     8    21    20    2
     9    27    18    1
    10    20    19    1
    11    18    19    1
    12    18    17    1
    13    17    12    1
    14    17    15    1
    15    12    11    1
    16    16    15    1
    17     7     5    2
    18    15    13    1
    19    11    13    1
    20    11    10    1
    21     6     5    1
    22     5     9    1
    23     5     8    1
    24    13    14    1
    25    10     9    1
    26     8     1    1
    27     3     1    2
    28     1     2    1
    29     1     4    1
