@<TRIPOS>MOLECULE
3ko3_ADP_C_1.pdb
 27 29 0 0 0
SMALL
GASTEIGER

@<TRIPOS>ATOM
      1  PB       -24.3320  -43.4320  -50.1600 P.3   165  ADP165      0.5373
      2  O1B      -23.8770  -43.9360  -48.8050 O.3   165  ADP165     -0.1143
      3  O2B      -25.6460  -42.6860  -50.3140 O.3   165  ADP165     -0.1143
      4  O3B      -24.4700  -44.7730  -51.0560 O.2   165  ADP165     -0.2221
      5  PA       -21.8840  -41.7060  -50.3640 P.3   165  ADP165      0.2231
      6  O1A      -20.8110  -41.6590  -51.4300 O.2   165  ADP165     -0.5169
      7  O2A      -22.3550  -40.3820  -49.7780 O.3   165  ADP165     -0.4370
      8  O3A      -23.1630  -42.5700  -50.9330 O.3   165  ADP165     -0.2261
      9  O5'      -21.2170  -42.6370  -49.2330 O.3   165  ADP165     -0.3111
     10  C5'      -20.1560  -42.1220  -48.4380 C.3   165  ADP165      0.1813
     11  C4'      -20.6480  -41.9160  -47.0090 C.3   165  ADP165      0.1821
     12  O4'      -20.0480  -40.7430  -46.4740 O.3   165  ADP165     -0.3135
     13  C3'      -22.1480  -41.6960  -46.8570 C.3   165  ADP165      0.2184
     14  O3'      -22.8280  -42.9330  -46.6550 O.3   165  ADP165     -0.2174
     15  C2'      -22.2690  -40.8430  -45.6240 C.3   165  ADP165      0.2570
     16  O2'      -22.3320  -41.7020  -44.4780 O.3   165  ADP165     -0.2130
     17  C1'      -20.9470  -40.0990  -45.5680 C.3   165  ADP165      0.3186
     18  N9       -21.0610  -38.6660  -45.9300 N.pl3 165  ADP165     -0.1439
     19  C8       -22.0110  -38.0800  -46.6750 C.3   165  ADP165      0.3377
     20  N7       -21.7740  -36.7480  -46.7890 N.2   165  ADP165     -0.2095
     21  C5       -20.6520  -36.4750  -46.1060 C.2   165  ADP165      0.2526
     22  C6       -19.8390  -35.2740  -45.8050 C.2   165  ADP165      0.4393
     23  N6       -20.2050  -34.0670  -46.2880 N.pl3 165  ADP165      0.2180
     24  N1       -18.7280  -35.4210  -45.0400 N.2   165  ADP165      0.0021
     25  C2       -18.3520  -36.6180  -44.5520 C.3   165  ADP165      0.5254
     26  N3       -19.0460  -37.7480  -44.7800 N.2   165  ADP165     -0.0055
     27  C4       -20.1810  -37.7430  -45.5410 C.2   165  ADP165      0.3518
@<TRIPOS>BOND
     1     6     5    2
     2     4     1    2
     3     8     5    1
     4     8     1    1
     5     5     7    1
     6     5     9    1
     7     3     1    1
     8     1     2    1
     9     9    10    1
    10    10    11    1
    11    11    13    1
    12    11    12    1
    13    13    14    1
    14    13    15    1
    15    20    19    1
    16    20    21    2
    17    19    18    1
    18    12    17    1
    19    23    22    1
    20    21    22    1
    21    21    27    1
    22    18    17    1
    23    18    27    1
    24    22    24    2
    25    15    17    1
    26    15    16    1
    27    27    26    2
    28    24    25    1
    29    26    25    1
