@<TRIPOS>MOLECULE
3ko4_ADP_B_1.pdb
 27 29 0 0 0
SMALL
GASTEIGER

@<TRIPOS>ATOM
      1  PB         2.3430  -24.0750   -0.6180 P.3   165  ADP165      0.5373
      2  O1B        2.8300  -22.8640    0.1530 O.3   165  ADP165     -0.1143
      3  O2B        1.3260  -24.9980    0.0200 O.3   165  ADP165     -0.1143
      4  O3B        3.6080  -24.9840   -1.0350 O.2   165  ADP165     -0.2221
      5  PA         2.6340  -22.6680   -3.0560 P.3   165  ADP165      0.2231
      6  O1A        4.0210  -23.2640   -3.1400 O.3   165  ADP165     -0.4370
      7  O2A        1.8520  -22.4890   -4.3330 O.2   165  ADP165     -0.5169
      8  O3A        1.7620  -23.5750   -2.0440 O.3   165  ADP165     -0.2261
      9  O5'        2.6960  -21.2280   -2.3170 O.3   165  ADP165     -0.3111
     10  C5'        3.8940  -20.4610   -2.1180 C.3   165  ADP165      0.1813
     11  C4'        4.6930  -20.2500   -3.4140 C.3   165  ADP165      0.1821
     12  O4'        3.8890  -20.4250   -4.5850 O.3   165  ADP165     -0.3135
     13  C3'        5.2920  -18.8610   -3.5160 C.3   165  ADP165      0.2184
     14  O3'        6.6420  -18.9880   -3.9840 O.3   165  ADP165     -0.2174
     15  C2'        4.4520  -18.1170   -4.5350 C.3   165  ADP165      0.2570
     16  O2'        5.3020  -17.4400   -5.4680 O.3   165  ADP165     -0.2130
     17  C1'        3.6280  -19.1830   -5.2450 C.3   165  ADP165      0.3186
     18  N9         2.1600  -18.9130   -5.2090 N.pl3 165  ADP165     -0.1439
     19  C8         1.2830  -19.4530   -4.3450 C.3   165  ADP165      0.3377
     20  N7         0.0180  -19.0280   -4.5770 N.2   165  ADP165     -0.2095
     21  C5         0.0700  -18.1910   -5.6170 C.2   165  ADP165      0.2526
     22  C6        -0.9100  -17.3840   -6.3730 C.2   165  ADP165      0.4393
     23  N6        -2.2230  -17.4020   -6.0440 N.pl3 165  ADP165      0.2180
     24  N1        -0.4500  -16.6390   -7.4050 N.2   165  ADP165      0.0021
     25  C2         0.8550  -16.6210   -7.7420 C.3   165  ADP165      0.5254
     26  N3         1.7980  -17.3250   -7.0880 N.2   165  ADP165     -0.0055
     27  C4         1.4770  -18.1200   -6.0370 C.2   165  ADP165      0.3518
@<TRIPOS>BOND
     1    25    24    1
     2    25    26    1
     3    24    22    2
     4    26    27    2
     5    22    23    1
     6    22    21    1
     7    27    21    1
     8    27    18    1
     9    21    20    2
    10    16    15    1
    11    17    18    1
    12    17    12    1
    13    17    15    1
    14    18    19    1
    15    12    11    1
    16    20    19    1
    17    15    13    1
    18     7     5    2
    19    14    13    1
    20    13    11    1
    21    11    10    1
    22     6     5    1
    23     5     9    1
    24     5     8    1
    25     9    10    1
    26     8     1    1
    27     4     1    2
    28     1     3    1
    29     1     2    1
