@<TRIPOS>MOLECULE
3ko5_ADP_A_1.pdb
 27 29 0 0 0
SMALL
GASTEIGER

@<TRIPOS>ATOM
      1  PB       -16.3150  -15.7930   -8.7360 P.3   165  ADP165      0.5373
      2  O1B      -16.6660  -17.2110   -9.1250 O.2   165  ADP165     -0.2221
      3  O2B      -15.6330  -15.5230   -7.4150 O.3   165  ADP165     -0.1143
      4  O3B      -17.6640  -14.9130   -8.7810 O.3   165  ADP165     -0.1143
      5  PA       -14.0150  -15.7080  -10.4040 P.3   165  ADP165      0.2231
      6  O1A      -14.1970  -17.1460  -10.8370 O.3   165  ADP165     -0.4370
      7  O2A      -13.4750  -14.7090  -11.4020 O.2   165  ADP165     -0.5169
      8  O3A      -15.4390  -15.1250   -9.9130 O.3   165  ADP165     -0.2261
      9  O5'      -13.0810  -15.6640   -9.0800 O.3   165  ADP165     -0.3111
     10  C5'      -12.7380  -16.8510   -8.3520 C.3   165  ADP165      0.1813
     11  C4'      -11.3370  -16.7880   -7.7370 C.3   165  ADP165      0.1821
     12  O4'      -10.3630  -16.3640   -8.6960 O.3   165  ADP165     -0.3135
     13  C3'      -11.2500  -15.8460   -6.5410 C.3   165  ADP165      0.2184
     14  O3'      -11.0540  -16.6050   -5.3430 O.3   165  ADP165     -0.2174
     15  C2'      -10.0670  -14.9270   -6.8030 C.3   165  ADP165      0.2570
     16  O2'       -9.0300  -15.1240   -5.8330 O.3   165  ADP165     -0.2130
     17  C1'       -9.5440  -15.3070   -8.1820 C.3   165  ADP165      0.3186
     18  N9        -9.5530  -14.1640   -9.1380 N.pl3 165  ADP165     -0.1439
     19  C8       -10.6340  -13.4560   -9.5250 C.3   165  ADP165      0.3377
     20  N7       -10.2970  -12.4880  -10.4160 N.2   165  ADP165     -0.2095
     21  C5        -8.9710  -12.5720  -10.6180 C.2   165  ADP165      0.2526
     22  C6        -7.9670  -11.8490  -11.4390 C.2   165  ADP165      0.4393
     23  N6        -8.3330  -10.8200  -12.2400 N.pl3 165  ADP165      0.2180
     24  N1        -6.6750  -12.2540  -11.3600 N.2   165  ADP165      0.0021
     25  C2        -6.2970  -13.2790  -10.5650 C.3   165  ADP165      0.5254
     26  N3        -7.1550  -13.9770   -9.7950 N.2   165  ADP165     -0.0055
     27  C4        -8.4820  -13.6790   -9.7760 C.2   165  ADP165      0.3518
@<TRIPOS>BOND
     1    23    22    1
     2    22    24    2
     3    22    21    1
     4     7     5    2
     5    24    25    1
     6     6     5    1
     7    21    20    2
     8    21    27    1
     9    25    26    1
    10    20    19    1
    11     5     8    1
    12     5     9    1
    13     8     1    1
    14    26    27    2
    15    27    18    1
    16    19    18    1
    17    18    17    1
    18     2     1    2
    19     9    10    1
    20     4     1    1
    21     1     3    1
    22    12    17    1
    23    12    11    1
    24    10    11    1
    25    17    15    1
    26    11    13    1
    27    15    13    1
    28    15    16    1
    29    13    14    1
