@<TRIPOS>MOLECULE
3ko6_SME_A_1.pdb
 10 9 0 0 0
SMALL
GASTEIGER

@<TRIPOS>ATOM
      1  N         35.7300   15.7200   -3.5860 N.3   181  SME181     -0.1208
      2  CA        34.3110   15.3540   -3.3480 C.3   181  SME181      0.1953
      3  CB        33.4690   16.1920   -4.3000 C.3   181  SME181      0.0449
      4  CG        32.0980   16.5470   -3.6940 C.3   181  SME181      0.0939
      5  S         31.7460   18.2170   -3.7800 S.O   181  SME181      0.0428
      6  OE        32.9240   19.0450   -4.1630 O.2   181  SME181     -0.2559
      7  CE        30.4780   18.4270   -4.9010 C.3   181  SME181      0.1061
      8  C         34.0760   13.8700   -3.4980 C.2   181  SME181      0.3819
      9  O         32.9330   13.4190   -3.5430 O.co2 181  SME181     -0.2441
     10  OXT       35.0240   13.0100   -3.6120 O.co2 181  SME181     -0.2441
@<TRIPOS>BOND
     1     7     5    1
     2     3     4    1
     3     3     2    1
     4     6     5    2
     5     5     4    1
     6    10     8   ar
     7     1     2    1
     8     9     8   ar
     9     8     2    1
