@<TRIPOS>MOLECULE
3ko7_DLY_C_1.pdb
 10 9 0 0 0
SMALL
GASTEIGER

@<TRIPOS>ATOM
      1  N         46.8630   22.0870   25.4070 N.3   165  DLY165     -0.1208
      2  CA        47.4540   23.1910   24.5900 C.3   165  DLY165      0.1943
      3  C         48.3040   22.7030   23.4370 C.2   165  DLY165      0.3819
      4  O         48.0700   21.6350   22.8560 O.co2 165  DLY165     -0.2441
      5  CB        46.3510   24.1030   24.0690 C.3   165  DLY165      0.0307
      6  CG        46.7250   25.5670   24.2600 C.3   165  DLY165      0.0036
      7  CD        46.0720   26.4200   23.1820 C.3   165  DLY165      0.0206
      8  CE        47.1140   26.9620   22.2120 C.3   165  DLY165      0.1093
      9  NZ        46.6330   26.8340   20.8490 N.3   165  DLY165     -0.1314
     10  OXT       49.2730   23.3680   23.0380 O.co2 165  DLY165     -0.2441
@<TRIPOS>BOND
     1     9     8    1
     2     8     7    1
     3     4     3   ar
     4    10     3   ar
     5     7     6    1
     6     3     2    1
     7     5     6    1
     8     5     2    1
     9     2     1    1
