@<TRIPOS>MOLECULE
3ko8_NAD_A_1.pdb
 44 48 0 0 0
SMALL
GASTEIGER

@<TRIPOS>ATOM
      1  PA         6.5680   13.9760   18.5330 P.3   901  NAD901      0.2189
      2  O1A        6.3310   14.1170   17.1830 O.2   901  NAD901     -0.5170
      3  O2A        5.4380   13.8770   19.3120 O.3   901  NAD901     -0.4371
      4  O5B        7.3750   12.8000   18.7380 O.3   901  NAD901     -0.3112
      5  C5B        7.3700   12.0230   19.9140 C.3   901  NAD901      0.1813
      6  C4B        7.2250   10.4730   19.7320 C.3   901  NAD901      0.1821
      7  O4B        7.3080    9.7030   20.8690 O.3   901  NAD901     -0.3135
      8  C3B        5.8710   10.2340   19.1020 C.3   901  NAD901      0.2184
      9  O3B        5.9870    9.4630   17.9520 O.3   901  NAD901     -0.2174
     10  C2B        5.1500    9.5200   20.2100 C.3   901  NAD901      0.2570
     11  O2B        4.1800    8.6680   19.7240 O.3   901  NAD901     -0.2130
     12  C1B        6.3110    8.8090   20.9110 C.3   901  NAD901      0.3186
     13  N9A        5.9680    8.4500   22.2790 N.pl3 901  NAD901     -0.1439
     14  C8A        5.4690    9.2670   23.1830 C.3   901  NAD901      0.3377
     15  N7A        5.2820    8.6780   24.3300 N.2   901  NAD901     -0.2095
     16  C5A        5.6530    7.4390   24.1770 C.2   901  NAD901      0.2526
     17  C6A        5.6720    6.3280   25.0180 C.2   901  NAD901      0.4393
     18  N6A        5.2570    6.3830   26.2480 N.pl3 901  NAD901      0.2180
     19  N1A        6.1440    5.2020   24.5390 N.2   901  NAD901      0.0021
     20  C2A        6.5550    5.1360   23.2960 C.3   901  NAD901      0.5254
     21  N3A        6.5400    6.1410   22.4840 N.2   901  NAD901     -0.0055
     22  C4A        6.1050    7.3080   22.8680 C.2   901  NAD901      0.3518
     23  O3         7.4320   15.1390   19.0940 O.3   901  NAD901     -0.2703
     24  PN         8.8110   15.7060   18.5580 P.3   901  NAD901      0.2189
     25  O1N        8.6740   17.0230   18.4360 O.3   901  NAD901     -0.4371
     26  O2N        9.2420   14.9560   17.5170 O.2   901  NAD901     -0.5170
     27  O5D        9.7180   15.5490   19.6960 O.3   901  NAD901     -0.3112
     28  C5D       10.6560   14.5420   19.8370 C.3   901  NAD901      0.1813
     29  C4D       11.6810   14.7930   20.9850 C.3   901  NAD901      0.1799
     30  O4D       12.3150   16.0110   20.8390 O.3   901  NAD901     -0.3327
     31  C3D       10.9930   14.7830   22.3720 C.3   901  NAD901      0.2158
     32  O3D       11.7170   14.0970   23.3120 O.3   901  NAD901     -0.2175
     33  C2D       10.8770   16.2720   22.6130 C.3   901  NAD901      0.2309
     34  O2D       10.8700   16.6880   23.9270 O.3   901  NAD901     -0.2158
     35  C1D       12.1180   16.7950   21.9100 C.3   901  NAD901      0.2263
     36  N1N       12.0300   18.2020   21.5970 N.pl3 901  NAD901     -0.2787
     37  C2N       11.4300   18.6040   20.4400 C.3   901  NAD901      0.1244
     38  C3N       11.3240   19.9360   20.1180 C.2   901  NAD901      0.0544
     39  C7N       10.6890   20.4470   18.8180 C.2   901  NAD901      0.2818
     40  O7N       10.7800   21.6060   18.5280 O.2   901  NAD901     -0.2670
     41  N7N       10.0930   19.5760   18.0850 N.am  901  NAD901     -0.0839
     42  C4N       11.8380   20.8530   20.9940 C.2   901  NAD901      0.0033
     43  C5N       12.4270   20.4520   22.1580 C.2   901  NAD901      0.0157
     44  C6N       12.5230   19.1180   22.4580 C.2   901  NAD901      0.0633
@<TRIPOS>BOND
     1     2     1    2
     2    26    24    2
     3     9     8    1
     4    41    39   am
     5    25    24    1
     6    40    39    2
     7     1     4    1
     8     1    23    1
     9     1     3    1
    10    24    23    1
    11    24    27    1
    12     4     5    1
    13    39    38    1
    14     8     6    1
    15     8    10    1
    16    27    28    1
    17    11    10    1
    18     6     5    1
    19     6     7    1
    20    28    29    1
    21    38    37    1
    22    38    42    2
    23    10    12    1
    24    37    36    1
    25    30    29    1
    26    30    35    1
    27     7    12    1
    28    12    13    1
    29    29    31    1
    30    42    43    1
    31    36    35    1
    32    36    44    1
    33    35    33    1
    34    43    44    2
    35    13    22    1
    36    13    14    1
    37    31    33    1
    38    31    32    1
    39    21    22    2
    40    21    20    1
    41    33    34    1
    42    22    16    1
    43    14    15    1
    44    20    19    1
    45    16    15    2
    46    16    17    1
    47    19    17    2
    48    17    18    1
