@<TRIPOS>MOLECULE
3ko9_DAR_B_1.pdb
 12 11 0 0 0
SMALL
GASTEIGER

@<TRIPOS>ATOM
      1  N         15.5800    7.3420    1.5450 N.3   165  DAR165     -0.1208
      2  CA        16.1440    6.1040    2.1720 C.3   165  DAR165      0.1944
      3  CB        15.0130    5.2040    2.6760 C.3   165  DAR165      0.0343
      4  CG        14.7370    4.0150    1.7580 C.3   165  DAR165      0.0490
      5  CD        13.7650    3.0710    2.4700 C.3   165  DAR165      0.2205
      6  NE        14.3730    1.9330    3.1610 N.pl3 165  DAR165     -0.0865
      7  CZ        14.9430    1.9580    4.3810 C.cat 165  DAR165      0.5346
      8  NH1       15.4650    0.8470    4.8940 N.pl3 165  DAR165      0.1354
      9  NH2       15.0190    3.0730    5.1170 N.pl3 165  DAR165      0.1354
     10  C         17.1760    6.4130    3.2470 C.2   165  DAR165      0.3819
     11  O         18.2590    5.8150    3.2710 O.co2 165  DAR165     -0.2441
     12  OXT       17.0000    7.2740    4.1220 O.co2 165  DAR165     -0.2441
@<TRIPOS>BOND
     1     1     2    1
     2     4     5    1
     3     4     3    1
     4     2     3    1
     5     2    10    1
     6     5     6    1
     7     6     7    2
     8    10    11   ar
     9    10    12   ar
    10     7     8    1
    11     7     9    1
