@<TRIPOS>MOLECULE
3kob_DGL_B_1.pdb
 10 9 0 0 0
SMALL
GASTEIGER

@<TRIPOS>ATOM
      1  N        -11.8690   -7.3090   -3.8600 N.3   165  DGL165     -0.1208
      2  CA       -11.4090   -8.0350   -5.0790 C.3   165  DGL165      0.1949
      3  C        -12.1860   -9.3000   -5.2950 C.2   165  DGL165      0.3819
      4  O        -13.3360   -9.4180   -4.8710 O.co2 165  DGL165     -0.2441
      5  CB       -11.5480   -7.1380   -6.3030 C.3   165  DGL165      0.0424
      6  CG       -10.8040   -7.7240   -7.4970 C.3   165  DGL165      0.1161
      7  CD       -11.5620   -7.4110   -8.7650 C.2   165  DGL165      0.3649
      8  OE1      -11.5420   -6.2380   -9.1980 O.co2 165  DGL165     -0.2457
      9  OE2      -12.1800   -8.3360   -9.3350 O.co2 165  DGL165     -0.2457
     10  OXT      -11.6820  -10.1440   -5.8670 O.co2 165  DGL165     -0.2441
@<TRIPOS>BOND
     1     9     7   ar
     2     8     7   ar
     3     7     6    1
     4     6     5    1
     5     5     2    1
     6    10     3   ar
     7     3     2    1
     8     3     4   ar
     9     2     1    1
