@<TRIPOS>MOLECULE
3koc_DHI_C_1.pdb
 11 11 0 0 0
SMALL
GASTEIGER

@<TRIPOS>ATOM
      1  N        -39.7580  -36.0350   22.2030 N.3   165  DHI165     -0.1204
      2  CA       -38.8380  -37.1900   22.3440 C.3   165  DHI165      0.2002
      3  C        -37.5330  -36.8840   21.6570 C.2   165  DHI165      0.3823
      4  O        -37.5200  -36.1610   20.6550 O.co2 165  DHI165     -0.2440
      5  CB       -38.6780  -37.4740   23.8370 C.3   165  DHI165      0.0776
      6  CG       -38.4620  -38.9480   24.1540 C.2   165  DHI165      0.0767
      7  ND1      -37.9690  -39.9020   23.3380 N.2   165  DHI165     -0.2470
      8  CD2      -38.7310  -39.5550   25.3800 C.2   165  DHI165      0.1098
      9  CE1      -37.9320  -41.0730   24.0190 C.3   165  DHI165      0.2505
     10  NE2      -38.4000  -40.8610   25.2710 N.2   165  DHI165     -0.2415
     11  OXT      -36.4500  -37.3360   22.0480 O.co2 165  DHI165     -0.2440
@<TRIPOS>BOND
     1     4     3   ar
     2     3    11   ar
     3     3     2    1
     4     1     2    1
     5     2     5    1
     6     7     9    1
     7     7     6    2
     8     5     6    1
     9     9    10    1
    10     6     8    1
    11    10     8    2
