@<TRIPOS>MOLECULE
3koh_OIO_A_1.pdb
 15 15 0 0 0
SMALL
GASTEIGER

@<TRIPOS>ATOM
      1  C1        -4.4450    3.9210   12.8380 C.3     1  OIO1        0.1076
      2  C2        -3.7650    4.7870   13.8900 C.3     1  OIO1        0.0245
      3  C3        -3.9130    4.4290   15.3480 C.3     1  OIO1        0.0020
      4  C4        -4.7820    5.4490   16.0780 C.3     1  OIO1        0.0001
      5  C5        -4.1550    6.0750   17.3180 C.3     1  OIO1        0.0006
      6  C6        -5.1690    6.8930   18.0970 C.3     1  OIO1        0.0118
      7  C7        -4.5010    7.9620   18.9310 C.3     1  OIO1        0.1141
      8  C8        -5.5540    8.8580   19.5270 C.2     1  OIO1        0.3649
      9  O9        -6.4720    8.3470   20.1590 O.co2   1  OIO1       -0.2457
     10  O10       -5.4690   10.0810   19.3850 O.co2   1  OIO1       -0.2457
     11  N11       -4.3650    4.6800   11.5890 N.ar    1  OIO1       -0.3078
     12  C12       -5.3640    5.1630   10.8980 C.ar    1  OIO1        0.0980
     13  C13       -4.8180    5.8070    9.8370 C.ar    1  OIO1        0.1193
     14  N14       -3.5040    5.6950    9.8940 N.ar    1  OIO1       -0.2223
     15  C15       -3.2400    5.0010   10.9880 C.ar    1  OIO1        0.1786
@<TRIPOS>BOND
     1    13    14   ar
     2    13    12   ar
     3    14    15   ar
     4    12    11   ar
     5    15    11   ar
     6    11     1    1
     7     1     2    1
     8     2     3    1
     9     3     4    1
    10     4     5    1
    11     5     6    1
    12     6     7    1
    13     7     8    1
    14    10     8   ar
    15     8     9   ar
