@<TRIPOS>MOLECULE
3koh_HEM_A_1.pdb
 43 50 0 0 0
SMALL
GASTEIGER

@<TRIPOS>ATOM
      1  CHA       -6.0580    6.0670    6.3400 C.2   500  HEM500      0.0000
      2  CHB       -3.3080    2.1810    7.2240 C.2   500  HEM500      0.0000
      3  CHC        0.3440    5.1330    8.3860 C.2   500  HEM500      0.0000
      4  CHD       -2.3400    9.0580    7.5320 C.2   500  HEM500      0.0000
      5  C1A       -5.6520    4.7680    6.4370 C.ar  500  HEM500      0.0000
      6  C2A       -6.4280    3.5740    6.1110 C.ar  500  HEM500      0.0000
      7  C3A       -5.6510    2.5200    6.3630 C.ar  500  HEM500      0.0000
      8  C4A       -4.3720    2.9970    6.8500 C.ar  500  HEM500      0.0000
      9  CMA       -6.0620    1.0460    6.1690 C.3   500  HEM500      0.0000
     10  CAA       -7.8980    3.4510    5.6150 C.3   500  HEM500      0.0000
     11  CBA       -8.1600    3.8900    4.1900 C.3   500  HEM500      0.0000
     12  CGA       -9.5690    3.5060    3.7990 C.2   500  HEM500      0.0000
     13  O1A       -9.7470    2.9360    2.6900 O.co2 500  HEM500      0.0000
     14  O2A      -10.5350    3.7700    4.5620 O.co2 500  HEM500      0.0000
     15  C1B       -2.0480    2.6250    7.5730 C.2   500  HEM500      0.0000
     16  C2B       -0.8340    1.8330    7.7300 C.2   500  HEM500      0.0000
     17  C3B        0.1520    2.6810    8.0610 C.2   500  HEM500      0.0000
     18  C4B       -0.3910    4.0160    8.1050 C.2   500  HEM500      0.0000
     19  CMB       -0.6890    0.3080    7.5390 C.3   500  HEM500      0.0000
     20  CAB        1.6360    2.3690    8.3240 C.2   500  HEM500      0.0000
     21  CBB        2.1640    2.4540    9.5380 C.2   500  HEM500      0.0000
     22  C1C       -0.0370    6.4300    8.1790 C.ar  500  HEM500      0.0000
     23  C2C        0.8670    7.5420    8.2220 C.ar  500  HEM500      0.0000
     24  C3C        0.1780    8.6510    8.0070 C.ar  500  HEM500      0.0000
     25  C4C       -1.2300    8.2640    7.8060 C.ar  500  HEM500      0.0000
     26  CMC        2.3790    7.4360    8.4780 C.3   500  HEM500      0.0000
     27  CAC        0.8640   10.0460    7.9850 C.2   500  HEM500      0.0000
     28  CBC        0.3270   11.1390    7.4180 C.2   500  HEM500      0.0000
     29  C1D       -3.6290    8.6260    7.1820 C.2   500  HEM500      0.0000
     30  C2D       -4.8020    9.4650    7.0150 C.2   500  HEM500      0.0000
     31  C3D       -5.9330    8.5330    6.6440 C.2   500  HEM500      0.0000
     32  C4D       -5.3590    7.2140    6.6330 C.2   500  HEM500      0.0000
     33  CMD       -4.9230   10.9900    7.1720 C.3   500  HEM500      0.0000
     34  CAD       -7.3970    8.9320    6.3520 C.3   500  HEM500      0.0000
     35  CBD       -7.8130    8.4540    4.9570 C.3   500  HEM500      0.0000
     36  CGD       -8.8510    9.4070    4.4280 C.2   500  HEM500      0.0000
     37  O1D       -8.4210   10.3950    3.7530 O.co2 500  HEM500      0.0000
     38  O2D      -10.0700    9.1570    4.7010 O.co2 500  HEM500      0.0000
     39  NA        -4.4170    4.3890    6.8720 N.ar  500  HEM500      0.0000
     40  NB        -1.7420    3.9530    7.8120 N.2   500  HEM500      0.0000
     41  NC        -1.3060    6.8930    7.9230 N.ar  500  HEM500      0.0000
     42  ND        -4.0190    7.3070    6.9530 N.2   500  HEM500      0.0000
     43 FE         -2.9090    5.6440    7.3760 Fe    500  HEM500      0.0000
@<TRIPOS>BOND
     1    13    12   ar
     2    37    36   ar
     3    12    11    1
     4    12    14   ar
     5    11    10    1
     6    36    38   ar
     7    36    35    1
     8    35    34    1
     9    10     6    1
    10     6     7   ar
    11     6     5   ar
    12     9     7    1
    13     1     5    2
    14     1    32    1
    15    34    31    1
    16     7     8   ar
    17     5    39   ar
    18    32    31    1
    19    32    42    2
    20    31    30    2
    21     8    39   ar
    22     8     2    2
    23    39    43    1
    24    42    29    1
    25    42    43    1
    26    30    33    1
    27    30    29    1
    28    29     4    2
    29     2    15    1
    30    43    40    1
    31    43    41    1
    32    28    27    2
    33     4    25    1
    34    19    16    1
    35    15    16    1
    36    15    40    2
    37    16    17    2
    38    25    41   ar
    39    25    24   ar
    40    40    18    1
    41    41    22   ar
    42    27    24    1
    43    24    23   ar
    44    17    18    1
    45    17    20    1
    46    18     3    2
    47    22    23   ar
    48    22     3    1
    49    23    26    1
    50    20    21    2
