@<TRIPOS>MOLECULE
3koo_24D_A_1.pdb
 25 27 0 0 0
SMALL
GASTEIGER

@<TRIPOS>ATOM
      1 CL1        75.8010   -8.4220   71.5040 Cl    556  24D556     -0.0822
      2  C2        75.1260   -8.8050   69.9350 C.ar  556  24D556      0.0585
      3  C3        75.2180   -7.8830   68.8990 C.ar  556  24D556      0.0112
      4  C4        74.6840   -8.1720   67.6470 C.ar  556  24D556     -0.0008
      5  C5        74.0480   -9.3790   67.4100 C.ar  556  24D556      0.0101
      6  C6        73.4590   -9.7490   66.0710 C.3   556  24D556      0.1439
      7  N7        73.5580   -8.6370   65.1250 N.am  556  24D556     -0.1835
      8  C8        74.6880   -8.5020   64.4160 C.2   556  24D556      0.3235
      9  O9        75.5840   -9.2840   64.5770 O.2   556  24D556     -0.2508
     10  N10       74.8410   -7.5270   63.5200 N.am  556  24D556     -0.2626
     11  C11       76.1050   -7.4060   62.7770 C.3   556  24D556      0.0987
     12  C12       75.7920   -7.1070   61.3060 C.3   556  24D556      0.0663
     13  C13       74.8260   -5.9140   61.1870 C.3   556  24D556      0.1834
     14  C14       74.3760   -5.3700   62.5470 C.3   556  24D556      0.0663
     15  C15       73.7690   -6.5550   63.3010 C.3   556  24D556      0.0987
     16  O16       75.4260   -4.8660   60.4150 O.2   556  24D556     -0.4200
     17  C17       76.4870   -4.1480   60.8600 C.1   556  24D556      0.1915
     18  N18       77.2350   -4.5940   61.8570 N.2   556  24D556     -0.1850
     19  C19       78.2700   -3.8970   62.2820 C.3   556  24D556      0.1669
     20  C20       78.5540   -2.6950   61.6530 C.2   556  24D556      0.0224
     21  C21       77.7570   -2.2560   60.6060 C.2   556  24D556      0.1098
     22  N22       76.7400   -3.0090   60.2370 N.2   556  24D556     -0.1627
     23  C23       73.9560  -10.2930   68.4290 C.ar  556  24D556      0.0562
     24 CL24       73.1470  -11.7790   68.0410 Cl    556  24D556     -0.0825
     25  C25       74.4900  -10.0200   69.6910 C.ar  556  24D556      0.0225
@<TRIPOS>BOND
     1    22    21    1
     2    22    17    2
     3    16    17    1
     4    16    13    1
     5    21    20    2
     6    17    18    2
     7    13    12    1
     8    13    14    1
     9    12    11    1
    10    20    19    1
    11    18    19    1
    12    14    15    1
    13    11    10    1
    14    15    10    1
    15    10     8   am
    16     8     9    2
    17     8     7   am
    18     7     6    1
    19     6     5    1
    20     5     4   ar
    21     5    23   ar
    22     4     3   ar
    23    24    23    1
    24    23    25   ar
    25     3     2   ar
    26    25     2   ar
    27     2     1    1
