@<TRIPOS>MOLECULE
3koq_FMN_A_1.pdb
 31 33 0 0 0
SMALL
GASTEIGER

@<TRIPOS>ATOM
      1  N1         9.6370   42.2000  -10.0070 N.2   300  FMN300     -0.2887
      2  C2        10.8340   41.8560  -10.5720 C.1   300  FMN300      0.3669
      3  O2        11.5790   42.7240  -11.0260 O.2   300  FMN300     -0.1744
      4  N3        11.1710   40.4950  -10.5720 N.2   300  FMN300     -0.2300
      5  C4        10.4180   39.5070  -10.0380 C.1   300  FMN300      0.2513
      6  O4        10.8460   38.3550  -10.1000 O.2   300  FMN300     -0.2057
      7  C4A        9.1870   39.8450   -9.5020 C.2   300  FMN300      0.2706
      8  N5         8.3810   38.8180   -8.9810 N.2   300  FMN300     -0.3841
      9  C5A        7.2650   39.1820   -8.2830 C.2   300  FMN300      0.1452
     10  C6         6.6040   38.2490   -7.5130 C.2   300  FMN300      0.0252
     11  C7         5.5000   38.6310   -6.7560 C.2   300  FMN300     -0.0375
     12  C7M        4.7760   37.6010   -5.9420 C.3   300  FMN300      0.0268
     13  C8         5.1210   39.9940   -6.6840 C.3   300  FMN300      0.0417
     14  C8M        3.9780   40.3980   -5.7750 C.3   300  FMN300      0.0091
     15  C9         5.8520   40.9430   -7.4110 C.2   300  FMN300     -0.0049
     16  C9A        6.9200   40.5230   -8.1770 C.2   300  FMN300      0.0795
     17  N10        7.5960   41.5110   -8.9170 N.pl3 300  FMN300     -0.2545
     18  C10        8.8320   41.1860   -9.4890 C.2   300  FMN300      0.2449
     19  C1'        7.2180   42.9570   -8.8250 C.3   300  FMN300      0.1336
     20  C2'        5.9590   43.2190   -9.6730 C.3   300  FMN300      0.2048
     21  O2'        6.3140   43.3280  -11.0520 O.3   300  FMN300     -0.2185
     22  C3'        5.2010   44.4650   -9.1080 C.3   300  FMN300      0.2165
     23  O3'        4.8450   44.2100   -7.7610 O.3   300  FMN300     -0.2175
     24  C4'        3.9720   44.8640   -9.9270 C.3   300  FMN300      0.2147
     25  O4'        4.2970   45.1120  -11.2910 O.3   300  FMN300     -0.2176
     26  C5'        3.3110   46.0920   -9.3880 C.3   300  FMN300      0.1892
     27  O5'        4.2610   47.1360   -9.3460 O.3   300  FMN300     -0.2674
     28  P          4.4430   47.8990   -7.9870 P.3   300  FMN300      0.5327
     29  O1P        5.5020   48.9250   -8.2940 O.2   300  FMN300     -0.2224
     30  O2P        4.9630   46.8820   -6.9210 O.3   300  FMN300     -0.1145
     31  O3P        3.0670   48.5020   -7.5750 O.3   300  FMN300     -0.1145
@<TRIPOS>BOND
     1    25    24    1
     2    21    20    1
     3     3     2    2
     4     2     4    2
     5     2     1    2
     6     4     5    2
     7     6     5    2
     8     5     7    1
     9     1    18    2
    10    24    26    1
    11    24    22    1
    12    20    22    1
    13    20    19    1
    14     7    18    1
    15     7     8    2
    16    18    17    1
    17    26    27    1
    18    27    28    1
    19    22    23    1
    20     8     9    2
    21    17    19    1
    22    17    16    1
    23    29    28    2
    24     9    16    1
    25     9    10    1
    26    16    15    2
    27    28    31    1
    28    28    30    1
    29    10    11    2
    30    15    13    1
    31    11    13    1
    32    11    12    1
    33    13    14    1
