@<TRIPOS>MOLECULE
3kos_MES_A_1.pdb
 12 12 0 0 0
SMALL
GASTEIGER

@<TRIPOS>ATOM
      1  O1        56.4990   28.0580   36.0580 O.3   302  MES302     -0.3508
      2  C2        57.0730   26.7860   36.1890 C.3   302  MES302      0.1595
      3  C3        56.2210   25.6970   35.5230 C.3   302  MES302      0.1047
      4  N4        55.7060   26.1020   34.1960 N.3   302  MES302     -0.2670
      5  C5        56.3310   27.3520   33.7070 C.3   302  MES302      0.1047
      6  C6        56.2080   28.4720   34.7480 C.3   302  MES302      0.1595
      7  C7        55.6960   25.0210   33.1580 C.3   302  MES302      0.0940
      8  C8        54.3370   24.3880   33.1240 C.3   302  MES302      0.1225
      9  S         53.9950   23.0320   32.7730 S.3   302  MES302     -0.1946
     10  O1S       54.5870   22.0430   33.9200 O.3   302  MES302     -0.3074
     11  O2S       54.7540   22.9230   31.3630 O.3   302  MES302     -0.3074
     12  O3S       52.4120   22.9480   32.7030 O.3   302  MES302     -0.3074
@<TRIPOS>BOND
     1    11     9    1
     2    12     9    1
     3     9     8    1
     4     9    10    1
     5     8     7    1
     6     7     4    1
     7     5     4    1
     8     5     6    1
     9     4     3    1
    10     6     1    1
    11     3     2    1
    12     1     2    1
