@<TRIPOS>MOLECULE
3kou_2NF_A_1.pdb
 17 17 0 0 0
SMALL
GASTEIGER

@<TRIPOS>ATOM
      1  C1D        9.2890   30.1490   28.9520 C.3   503  2NF503      0.1801
      2  C2D       10.2100   28.9950   28.6030 C.3   503  2NF503      0.2229
      3  F2D       10.4630   28.7520   27.3460 F     503  2NF503     -0.2317
      4  C3D        9.8340   27.8900   29.5610 C.3   503  2NF503      0.2162
      5  O3D        9.5150   26.7490   28.8840 O.3   503  2NF503     -0.2174
      6  O4D        8.7880   29.8510   30.2310 O.3   503  2NF503     -0.3480
      7  C4D        8.8490   28.5290   30.5480 C.3   503  2NF503      0.1782
      8  C5D        9.1020   28.3070   32.0100 C.3   503  2NF503      0.1812
      9  O5D        8.7150   29.2800   32.9670 O.3   503  2NF503     -0.3111
     10  PN         7.6550   28.8100   33.9900 P.3   503  2NF503      0.2231
     11  O1N        6.8320   27.9330   33.2110 O.2   503  2NF503     -0.5169
     12  O2N        7.0680   29.9280   34.5720 O.3   503  2NF503     -0.4370
     13  O3         8.4660   27.9110   34.9600 O.3   503  2NF503     -0.2261
     14  PA         8.7460   28.1230   36.4870 P.3   503  2NF503      0.5373
     15  O1A        7.5470   28.2690   37.1370 O.3   503  2NF503     -0.1143
     16  O2A        9.4780   29.3620   36.5120 O.2   503  2NF503     -0.2221
     17  O5B        9.5170   27.0060   36.9510 O.3   503  2NF503     -0.1143
@<TRIPOS>BOND
     1     3     2    1
     2     2     1    1
     3     2     4    1
     4     5     4    1
     5     1     6    1
     6     4     7    1
     7     6     7    1
     8     7     8    1
     9     8     9    1
    10     9    10    1
    11    11    10    2
    12    10    12    1
    13    10    13    1
    14    13    14    1
    15    14    16    2
    16    14    17    1
    17    14    15    1
