@<TRIPOS>MOLECULE
3kow_PLP_A_1.pdb
 15 15 0 0 0
SMALL
GASTEIGER

@<TRIPOS>ATOM
      1  N1       -20.7590   93.0670   76.7940 N.2   1802  PLP1802    -0.2716
      2  C2       -20.0260   92.4450   75.8740 C.2   1802  PLP1802     0.0661
      3  C2A      -20.1500   90.9640   75.7330 C.3   1802  PLP1802     0.0498
      4  C3       -19.1470   93.1560   75.0630 C.3   1802  PLP1802     0.2051
      5  O3       -18.4190   92.4650   74.1420 O.3   1802  PLP1802    -0.2125
      6  C4       -19.0170   94.5080   75.1950 C.2   1802  PLP1802    -0.0124
      7  C4A      -18.0470   95.2580   74.4090 C.3   1802  PLP1802     0.0288
      8  C5       -19.7490   95.1840   76.1110 C.2   1802  PLP1802     0.0046
      9  C6       -20.6120   94.4920   76.9090 C.3   1802  PLP1802     0.1488
     10  C5A      -19.6560   96.6800   76.2340 C.3   1802  PLP1802     0.1774
     11  O4P      -20.5730   97.3700   77.0080 O.3   1802  PLP1802    -0.2656
     12  P        -19.9860   98.0630   78.2680 P.3   1802  PLP1802     0.5329
     13  O1P      -21.0100   99.0770   78.8640 O.3   1802  PLP1802    -0.1145
     14  O2P      -18.6660   98.7930   77.8920 O.2   1802  PLP1802    -0.2224
     15  O3P      -19.6280   97.0230   79.2970 O.3   1802  PLP1802    -0.1145
@<TRIPOS>BOND
     1     5     4    1
     2     7     6    1
     3     4     6    1
     4     4     2    1
     5     6     8    2
     6     3     2    1
     7     2     1    2
     8     8    10    1
     9     8     9    1
    10    10    11    1
    11     1     9    1
    12    11    12    1
    13    14    12    2
    14    12    13    1
    15    12    15    1
