@<TRIPOS>MOLECULE
3kox_Z98_A_1.pdb
 23 23 0 0 0
SMALL
GASTEIGER

@<TRIPOS>ATOM
      1  C         -7.0470   96.5030   28.6780 C.2   767  Z98767      0.3819
      2  N         -7.5090   98.9970   28.6480 N.3   767  Z98767     -0.1208
      3  O         -6.7490   95.4870   28.0050 O.co2 767  Z98767     -0.2440
      4  P         -7.1790  102.6220   19.5990 P.3   767  Z98767      0.5329
      5  N1        -5.8050   97.7550   20.7930 N.ar  767  Z98767     -0.2452
      6  C2        -6.4780   96.9120   21.5850 C.ar  767  Z98767      0.0981
      7  C3        -7.4060   97.4410   22.4920 C.ar  767  Z98767      0.2103
      8  O3        -8.1070   96.6120   23.3110 O.3   767  Z98767     -0.2853
      9  C4        -7.5960   98.8400   22.5830 C.ar  767  Z98767      0.0587
     10  C5        -6.8850   99.6670   21.7270 C.ar  767  Z98767      0.0316
     11  C6        -5.9900   99.0620   20.8590 C.ar  767  Z98767      0.0968
     12  CA        -7.7310   97.7090   27.9310 C.3   767  Z98767      0.1963
     13  CB        -7.2740   97.7710   26.4360 C.3   767  Z98767      0.0569
     14  ND        -8.4590   99.4600   24.8060 N.2   767  Z98767     -0.2687
     15  CG        -7.3070   99.1760   25.7220 C.3   767  Z98767      0.1276
     16  C2A       -6.1930   95.3900   21.4330 C.3   767  Z98767      0.0555
     17  C4A       -8.5180   99.3880   23.4750 C.2   767  Z98767      0.0961
     18  C5A       -6.9360  101.1840   21.7120 C.3   767  Z98767      0.1819
     19  OP1       -5.7890  102.9820   19.3290 O.3   767  Z98767     -0.1145
     20  OP2       -8.1920  103.8570   19.8550 O.3   767  Z98767     -0.1145
     21  OP3       -7.8420  101.6350   18.4710 O.2   767  Z98767     -0.2224
     22  OP4       -7.6270  101.5820   20.6770 O.3   767  Z98767     -0.2653
     23  OXT       -6.8430   96.6160   29.9130 O.co2 767  Z98767     -0.2440
@<TRIPOS>BOND
     1    21     4    2
     2    19     4    1
     3     4    20    1
     4     4    22    1
     5    22    18    1
     6     5    11   ar
     7     5     6   ar
     8    11    10   ar
     9    16     6    1
    10     6     7   ar
    11    18    10    1
    12    10     9   ar
    13     7     9   ar
    14     7     8    1
    15     9    17    1
    16    17    14    2
    17    14    15    1
    18    15    13    1
    19    13    12    1
    20    12     2    1
    21    12     1    1
    22     3     1   ar
    23     1    23   ar
