@<TRIPOS>MOLECULE
3koy_Z97_A_1.pdb
 24 24 0 0 0
SMALL
GASTEIGER

@<TRIPOS>ATOM
      1  C         -6.2170   97.4900   28.5990 C.2   767  Z97767      0.3822
      2  N         -8.2630   98.0780   29.9070 N.3   767  Z97767     -0.1205
      3  O         -6.1130   96.3940   29.1430 O.co2 767  Z97767     -0.2440
      4  P         -6.4750  103.1120   19.4000 P.3   767  Z97767      0.5329
      5  N1        -5.4030   98.1070   20.5430 N.ar  767  Z97767     -0.2452
      6  C2        -5.9570   97.2990   21.5760 C.ar  767  Z97767      0.0978
      7  C3        -6.7910   97.8870   22.5900 C.ar  767  Z97767      0.2065
      8  O3        -7.2950   97.1010   23.6070 O.3   767  Z97767     -0.2856
      9  C4        -7.0750   99.2310   22.5640 C.ar  767  Z97767      0.0394
     10  C5        -6.4830  100.0650   21.4680 C.ar  767  Z97767      0.0278
     11  C6        -5.6870   99.4970   20.5140 C.ar  767  Z97767      0.0965
     12  CA        -7.5130   98.2710   28.6700 C.3   767  Z97767      0.1987
     13  CB        -7.4090   99.7180   28.1660 C.3   767  Z97767      0.0580
     14  CD        -8.2820   98.9890   25.7500 C.2   767  Z97767      0.0759
     15  NE        -8.8890   99.2880   24.4420 N.pl3 767  Z97767     -0.2318
     16  CG        -8.1080  100.0790   26.8050 C.2   767  Z97767     -0.0067
     17  C2A       -5.6430   95.7980   21.5560 C.3   767  Z97767      0.0555
     18  C4A       -7.9270   99.9500   23.5990 C.3   767  Z97767      0.1416
     19  C5A       -6.7850  101.5720   21.3930 C.3   767  Z97767      0.1816
     20  OP1       -7.4350  104.2620   19.8180 O.3   767  Z97767     -0.1145
     21  OP2       -7.2840  102.1710   18.4460 O.2   767  Z97767     -0.2224
     22  OP3       -5.2690  103.6960   18.6920 O.3   767  Z97767     -0.1145
     23  OP4       -5.9050  102.3520   20.6460 O.3   767  Z97767     -0.2653
     24  OXT       -5.3920   97.7700   27.5260 O.co2 767  Z97767     -0.2440
@<TRIPOS>BOND
     1    21     4    2
     2    22     4    1
     3     4    20    1
     4     4    23    1
     5    11     5   ar
     6    11    10   ar
     7     5     6   ar
     8    23    19    1
     9    19    10    1
    10    10     9   ar
    11    17     6    1
    12     6     7   ar
    13     9     7   ar
    14     9    18    1
    15     7     8    1
    16    18    15    1
    17    15    14    1
    18    14    16    2
    19    16    13    1
    20    24     1   ar
    21    13    12    1
    22     1    12    1
    23     1     3   ar
    24    12     2    1
