@<TRIPOS>MOLECULE
3koz_Z97_A_1.pdb
 24 24 0 0 0
SMALL
GASTEIGER

@<TRIPOS>ATOM
      1  C         -6.4070   96.9150   28.9160 C.2   767  Z97767      0.3819
      2  N         -6.5070   99.2590   29.4560 N.3   767  Z97767     -0.1208
      3  O         -6.5480   96.3480   29.9840 O.co2 767  Z97767     -0.2441
      4  P         -6.4730  102.8060   19.4680 P.3   767  Z97767      0.5329
      5  N1        -5.2820   97.7880   20.5510 N.ar  767  Z97767     -0.2452
      6  C2        -5.8080   96.9610   21.5350 C.ar  767  Z97767      0.0978
      7  C3        -6.6760   97.5170   22.5370 C.ar  767  Z97767      0.2062
      8  O3        -7.1800   96.7010   23.5600 O.3   767  Z97767     -0.2856
      9  C4        -6.9970   98.8580   22.5140 C.ar  767  Z97767      0.0353
     10  C5        -6.4130   99.7000   21.4410 C.ar  767  Z97767      0.0275
     11  C6        -5.5710   99.1340   20.4910 C.ar  767  Z97767      0.0965
     12  CA        -7.1280   98.2010   28.6860 C.3   767  Z97767      0.1944
     13  CB        -7.3650   98.5350   27.2350 C.3   767  Z97767      0.0321
     14  CD        -9.0590   99.7010   25.6230 C.3   767  Z97767      0.0892
     15  NE        -8.5790   98.7960   24.5660 N.3   767  Z97767     -0.2132
     16  CG        -8.2610   99.7150   26.9340 C.3   767  Z97767      0.0209
     17  C2A       -5.4760   95.4920   21.5370 C.3   767  Z97767      0.0555
     18  C4A       -7.9420   99.5380   23.5250 C.3   767  Z97767      0.1180
     19  C5A       -6.8060  101.1740   21.4020 C.3   767  Z97767      0.1816
     20  OP1       -7.9110  103.3870   19.5710 O.3   767  Z97767     -0.1145
     21  OP2       -6.4380  101.7450   18.3140 O.2   767  Z97767     -0.2224
     22  OP3       -5.5400  103.9500   19.1720 O.3   767  Z97767     -0.1145
     23  OP4       -5.9810  102.1020   20.7920 O.3   767  Z97767     -0.2653
     24  OXT       -5.5160   96.4180   27.9720 O.co2 767  Z97767     -0.2441
@<TRIPOS>BOND
     1    21     4    2
     2    22     4    1
     3     4    20    1
     4     4    23    1
     5    11     5   ar
     6    11    10   ar
     7     5     6   ar
     8    23    19    1
     9    19    10    1
    10    10     9   ar
    11     6    17    1
    12     6     7   ar
    13     9     7   ar
    14     9    18    1
    15     7     8    1
    16    18    15    1
    17    15    14    1
    18    14    16    1
    19    16    13    1
    20    13    12    1
    21    24     1   ar
    22    12     1    1
    23    12     2    1
    24     1     3   ar
