@<TRIPOS>MOLECULE
3kp0_Z98_A_1.pdb
 23 23 0 0 0
SMALL
GASTEIGER

@<TRIPOS>ATOM
      1  C         -8.3580   97.5660   29.5370 C.2   767  Z98767      0.3819
      2  N         -7.5310   95.6250   28.4710 N.3   767  Z98767     -0.1208
      3  O         -9.2700   98.4100   29.5480 O.co2 767  Z98767     -0.2441
      4  P         -7.3190  101.6100   20.1970 P.3   767  Z98767      0.5887
      5  N1        -6.4390   96.3530   21.0910 N.2   767  Z98767     -0.2666
      6  C2        -7.1820   95.5040   22.0480 C.2   767  Z98767      0.0929
      7  C3        -8.1080   96.1160   23.0130 C.2   767  Z98767      0.2059
      8  O3        -8.7530   95.2540   23.8850 O.2   767  Z98767     -0.2856
      9  C4        -8.3010   97.6050   23.0170 C.2   767  Z98767      0.0363
     10  C5        -7.5280   98.4400   22.0290 C.2   767  Z98767      0.0401
     11  C6        -6.6130   97.8470   21.0810 C.3   767  Z98767      0.1545
     12  CA        -8.0280   96.9710   28.2440 C.3   767  Z98767      0.1958
     13  CB        -9.2570   97.2040   27.3430 C.3   767  Z98767      0.0494
     14  ND       -10.0460   97.6070   24.9180 N.3   767  Z98767     -0.2131
     15  CG        -9.1220   96.9270   25.8670 C.3   767  Z98767      0.0912
     16  C2A       -7.0150   93.9980   22.0710 C.3   767  Z98767      0.0551
     17  C4A       -9.2250   98.3250   23.9520 C.3   767  Z98767      0.1180
     18  C5A       -7.7400   99.9470   22.0520 C.2   767  Z98767      0.1806
     19  OP1       -6.9660  100.7470   18.9150 O.2   767  Z98767     -0.2114
     20  OP2       -6.5200  102.9280   20.1250 O.3   767  Z98767     -0.1039
     21  OP3       -8.8070  101.9740   20.3480 O.3   767  Z98767     -0.1039
     22  OP4       -6.8090  100.7190   21.3490 O.2   767  Z98767     -0.3969
     23  OXT       -8.0740   96.7100   30.5970 O.co2 767  Z98767     -0.2441
@<TRIPOS>BOND
     1    19     4    2
     2    20     4    1
     3     4    21    1
     4     4    22    1
     5    11     5    1
     6    11    10    1
     7     5     6    2
     8    22    18    1
     9    10    18    2
    10    10     9    1
    11     6    16    1
    12     6     7    1
    13     7     9    2
    14     7     8    1
    15     9    17    1
    16    17    14    1
    17    14    15    1
    18    15    13    1
    19    13    12    1
    20    12     2    1
    21    12     1    1
    22     1     3   ar
    23     1    23   ar
