@<TRIPOS>MOLECULE
3kp1_PLP_A_1.pdb
 15 15 0 0 0
SMALL
GASTEIGER

@<TRIPOS>ATOM
      1  N1       -19.4510   95.8530   76.2240 N.ar  1802  PLP1802    -0.2452
      2  C2       -18.7020   95.1640   75.3650 C.ar  1802  PLP1802     0.0978
      3  C2A      -18.8310   93.6840   75.2810 C.3   1802  PLP1802     0.0555
      4  C3       -17.7670   95.8280   74.5580 C.ar  1802  PLP1802     0.2049
      5  O3       -16.9840   95.1130   73.6980 O.3   1802  PLP1802    -0.2857
      6  C4       -17.6060   97.2130   74.6400 C.ar  1802  PLP1802     0.0182
      7  C4A      -16.5870   97.8900   73.7760 C.3   1802  PLP1802     0.0342
      8  C5       -18.3870   97.9180   75.5320 C.ar  1802  PLP1802     0.0261
      9  C6       -19.3060   97.2710   76.3100 C.ar  1802  PLP1802     0.0965
     10  C5A      -18.2510   99.3880   75.7060 C.3   1802  PLP1802     0.1815
     11  O4P      -19.2420   99.9300   76.4940 O.3   1802  PLP1802    -0.2653
     12  P        -18.9230  100.6940   77.8160 P.3   1802  PLP1802     0.5329
     13  O1P      -20.2680  101.0620   78.4900 O.3   1802  PLP1802    -0.1145
     14  O2P      -18.1750  102.0290   77.5120 O.2   1802  PLP1802    -0.2224
     15  O3P      -18.0900   99.8270   78.7410 O.3   1802  PLP1802    -0.1145
@<TRIPOS>BOND
     1     5     4    1
     2     7     6    1
     3     4     6   ar
     4     4     2   ar
     5     6     8   ar
     6     3     2    1
     7     2     1   ar
     8     8    10    1
     9     8     9   ar
    10    10    11    1
    11     1     9   ar
    12    11    12    1
    13    14    12    2
    14    12    13    1
    15    12    15    1
