@<TRIPOS>MOLECULE
3kp2_PNN_A_1.pdb
 23 25 0 0 0
SMALL
GASTEIGER

@<TRIPOS>ATOM
      1  O8        23.9420  -31.4090   -3.6040 O.2   5001  PNN5001    -0.2729
      2  C7        24.7730  -31.8550   -2.7960 C.2   5001  PNN5001     0.2491
      3  N4        25.1800  -31.5110   -1.5820 N.am  5001  PNN5001    -0.2594
      4  C3        25.3480  -30.7880   -0.3020 C.3   5001  PNN5001     0.1888
      5  C11       24.5570  -31.4950    0.7950 C.2   5001  PNN5001     0.3833
      6  O13       25.1900  -32.3200    1.4890 O.co2 5001  PNN5001    -0.2438
      7  O12       23.3550  -31.1790    0.9360 O.co2 5001  PNN5001    -0.2438
      8  C2        26.8400  -30.8970    0.0300 C.3   5001  PNN5001     0.0681
      9  C10       27.1510  -30.8290    1.5310 C.3   5001  PNN5001     0.0131
     10  C9        27.7090  -29.9290   -0.7740 C.3   5001  PNN5001     0.0131
     11  S1        27.2120  -32.5860   -0.5600 S.3   5001  PNN5001    -0.1184
     12  C5        25.5770  -32.9060   -1.3120 C.3   5001  PNN5001     0.1529
     13  C6        25.6770  -33.0850   -2.8220 C.3   5001  PNN5001     0.1995
     14  N14       27.0020  -32.6800   -3.3300 N.am  5001  PNN5001    -0.1949
     15  C15       27.2510  -32.2400   -4.5680 C.2   5001  PNN5001     0.2463
     16  O16       28.3740  -31.9660   -4.9860 O.2   5001  PNN5001    -0.2730
     17  C17       26.0750  -32.1450   -5.5440 C.3   5001  PNN5001     0.1131
     18  C18       26.4380  -31.0320   -6.5290 C.ar  5001  PNN5001    -0.0130
     19  C19       26.8520  -29.7900   -6.0450 C.ar  5001  PNN5001    -0.0038
     20  C20       27.0630  -28.7290   -6.9190 C.ar  5001  PNN5001    -0.0003
     21  C21       26.8720  -28.8950   -8.2890 C.ar  5001  PNN5001    -0.0000
     22  C22       26.4700  -30.1360   -8.7760 C.ar  5001  PNN5001    -0.0003
     23  C23       26.2580  -31.1960   -7.9040 C.ar  5001  PNN5001    -0.0038
@<TRIPOS>BOND
     1    22    21   ar
     2    22    23   ar
     3    21    20   ar
     4    23    18   ar
     5    20    19   ar
     6    18    19   ar
     7    18    17    1
     8    17    15    1
     9    16    15    2
    10    15    14   am
    11     1     2    2
    12    14    13    1
    13    13     2    1
    14    13    12    1
    15     2     3   am
    16     3    12    1
    17     3     4    1
    18    12    11    1
    19    10     8    1
    20    11     8    1
    21     4     8    1
    22     4     5    1
    23     8     9    1
    24     5     7   ar
    25     5     6   ar
