@<TRIPOS>MOLECULE
3kp3_AIC_B_1.pdb
 24 26 0 0 0
SMALL
GASTEIGER

@<TRIPOS>ATOM
      1  C8       -41.4250    5.5880    1.4060 C.ar  2001  AIC2001    -0.0003
      2  C5       -41.4150    4.9290   -0.9150 C.ar  2001  AIC2001     0.0038
      3  C6       -40.7140    3.8140   -7.8280 C.3   2001  AIC2001     0.0681
      4  N1       -41.3430    4.3090   -4.3580 N.am  2001  AIC2001    -0.1937
      5  C2       -38.7280    2.2500   -8.0060 C.2   2001  AIC2001     0.3833
      6  N3       -39.3080    3.5780   -5.9650 N.am  2001  AIC2001    -0.2594
      7  C4       -41.8660    3.9650   -2.0170 C.3   2001  AIC2001     0.1915
      8  C1       -41.1420    5.2350   -7.4530 C.3   2001  AIC2001     0.0131
      9  C3       -42.0960    4.7110   -3.3370 C.2   2001  AIC2001     0.2635
     10  C7       -41.8490    4.7360    0.3930 C.ar  2001  AIC2001    -0.0024
     11  C9       -40.5660    6.6420    1.1120 C.ar  2001  AIC2001    -0.0000
     12  C10      -40.1330    6.8370   -0.1970 C.ar  2001  AIC2001    -0.0003
     13  C11      -40.5550    5.9850   -1.2100 C.ar  2001  AIC2001    -0.0024
     14  C12      -39.2540    3.5770   -7.4400 C.3   2001  AIC2001     0.1888
     15  C13      -40.1730    2.4550   -5.5700 C.3   2001  AIC2001     0.1529
     16  C14      -40.3580    3.2160   -4.2630 C.3   2001  AIC2001     0.1996
     17  C15      -38.9890    3.7490   -4.6850 C.2   2001  AIC2001     0.2491
     18  C16      -41.0100    3.5110   -9.2980 C.3   2001  AIC2001     0.0131
     19  N2       -43.1080    3.3000   -1.5930 N.3   2001  AIC2001    -0.1182
     20  O1       -39.5680    1.4270   -8.4190 O.co2 2001  AIC2001    -0.2438
     21  O2       -37.4860    2.1120   -8.0600 O.co2 2001  AIC2001    -0.2438
     22  O3       -42.9630    5.5860   -3.4250 O.2   2001  AIC2001    -0.2714
     23  O4       -37.9680    4.1020   -4.0870 O.2   2001  AIC2001    -0.2729
     24  S1       -41.5580    2.5960   -6.7560 S.3   2001  AIC2001    -0.1184
@<TRIPOS>BOND
     1    18     3    1
     2    20     5   ar
     3    21     5   ar
     4     5    14    1
     5     3     8    1
     6     3    14    1
     7     3    24    1
     8    14     6    1
     9    24    15    1
    10     6    15    1
    11     6    17   am
    12    15    16    1
    13    17    16    1
    14    17    23    2
    15     4    16    1
    16     4     9   am
    17    22     9    2
    18     9     7    1
    19     7    19    1
    20     7     2    1
    21    13     2   ar
    22    13    12   ar
    23     2    10   ar
    24    12    11   ar
    25    10     1   ar
    26    11     1   ar
