@<TRIPOS>MOLECULE
3kp4_MII_A_1.pdb
 26 28 0 0 0
SMALL
GASTEIGER

@<TRIPOS>ATOM
      1  C        -27.2780  -31.8130    6.1130 C.2   2001  MII2001     0.2491
      2  N        -25.7330  -32.4110    4.3610 N.am  2001  MII2001    -0.1912
      3  O        -28.4710  -31.9860    5.8830 O.2   2001  MII2001    -0.2729
      4  CA       -26.0200  -32.6230    5.7930 C.3   2001  MII2001     0.1998
      5  CB       -25.3950  -31.6540    6.7870 C.3   2001  MII2001     0.1529
      6  CAA      -24.9830  -29.4140    1.9050 C.3   2001  MII2001     0.2525
      7  CAB      -28.5250  -34.6960    1.2250 C.3   2001  MII2001     0.2525
      8  CAC      -25.2960  -28.6130    4.8700 C.3   2001  MII2001     0.0131
      9  CAD      -24.1260  -27.9830    7.0170 C.3   2001  MII2001     0.0131
     10  OAE      -25.8830  -28.4580    9.2160 O.co2 2001  MII2001    -0.2438
     11  OAF      -27.4490  -33.7250    3.7370 O.2   2001  MII2001    -0.2681
     12  OAH      -25.5620  -30.6480    9.0480 O.co2 2001  MII2001    -0.2438
     13  CAI      -25.3710  -32.4140   -0.7000 C.ar  2001  MII2001     0.0062
     14  CAJ      -25.0240  -31.4730    0.2700 C.ar  2001  MII2001     0.0373
     15  CAK      -26.0890  -33.5430   -0.3200 C.ar  2001  MII2001     0.0373
     16  OAM      -25.0750  -30.7030    2.5260 O.3   2001  MII2001    -0.4712
     17  OAN      -27.1090  -34.8660    1.3620 O.3   2001  MII2001    -0.4712
     18  SAO      -23.9850  -30.6180    6.2430 S.3   2001  MII2001    -0.1184
     19  CAP      -25.8610  -29.5330    8.5740 C.2   2001  MII2001     0.3833
     20  CAQ      -26.4780  -33.0260    3.4460 C.2   2001  MII2001     0.2712
     21  CAS      -25.3900  -31.6510    1.5950 C.ar  2001  MII2001     0.1460
     22  CAT      -26.4490  -33.7230    1.0090 C.ar  2001  MII2001     0.1460
     23  CAU      -26.1090  -32.7860    1.9750 C.ar  2001  MII2001     0.1227
     24  CAW      -26.1950  -29.4490    7.0810 C.3   2001  MII2001     0.1888
     25  NAX      -26.5570  -30.7710    6.5410 N.am  2001  MII2001    -0.2594
     26  CAY      -24.9400  -29.0560    6.2910 C.3   2001  MII2001     0.0681
@<TRIPOS>BOND
     1    13    15   ar
     2    13    14   ar
     3    15    22   ar
     4    14    21   ar
     5    22    17    1
     6    22    23   ar
     7     7    17    1
     8    21    23   ar
     9    21    16    1
    10     6    16    1
    11    23    20    1
    12    20    11    2
    13    20     2   am
    14     2     4    1
    15     8    26    1
    16     4     1    1
    17     4     5    1
    18     3     1    2
    19     1    25   am
    20    18    26    1
    21    18     5    1
    22    26     9    1
    23    26    24    1
    24    25     5    1
    25    25    24    1
    26    24    19    1
    27    19    12   ar
    28    19    10   ar
