@<TRIPOS>MOLECULE
3kp5_KAN_A_1.pdb
 33 35 0 0 0
SMALL
GASTEIGER

@<TRIPOS>ATOM
      1  C1       -25.6970  -27.9210    4.0830 C.3   2001  KAN2001     0.2695
      2  C2       -24.2180  -28.2790    3.8960 C.3   2001  KAN2001     0.2406
      3  C3       -23.3090  -27.1600    4.3990 C.3   2001  KAN2001     0.2198
      4  C4       -23.7350  -25.8200    3.7970 C.3   2001  KAN2001     0.2133
      5  C5       -25.2380  -25.6380    4.0330 C.3   2001  KAN2001     0.1696
      6  C6       -25.8340  -24.3220    3.5340 C.3   2001  KAN2001     0.1415
      7  C7       -26.1680  -31.6970    6.9530 C.3   2001  KAN2001     0.1231
      8  C8       -26.8030  -31.4800    5.5790 C.3   2001  KAN2001     0.1680
      9  C9       -26.1730  -30.1720    5.1060 C.3   2001  KAN2001     0.2088
     10  C10      -26.6370  -28.9940    5.9670 C.3   2001  KAN2001     0.1680
     11  C11      -26.1500  -29.2280    7.4020 C.3   2001  KAN2001     0.1231
     12  C12      -26.6080  -30.5930    7.9200 C.3   2001  KAN2001     0.0432
     13  C13      -27.3200  -33.5940    4.6820 C.3   2001  KAN2001     0.2684
     14  C14      -26.9920  -34.6090    3.5870 C.3   2001  KAN2001     0.2279
     15  C15      -27.2660  -33.9740    2.2230 C.3   2001  KAN2001     0.1599
     16  C16      -28.7650  -33.6710    2.1860 C.3   2001  KAN2001     0.2017
     17  C17      -29.0480  -32.6220    3.2560 C.3   2001  KAN2001     0.1824
     18  C18      -30.5520  -32.3310    3.2990 C.3   2001  KAN2001     0.2142
     19  N1       -27.2430  -24.2630    3.9500 N.3   2001  KAN2001    -0.1286
     20  N2       -26.6810  -28.1950    8.3020 N.3   2001  KAN2001    -0.1302
     21  N3       -26.5770  -33.0030    7.4900 N.3   2001  KAN2001    -0.1302
     22  N4       -26.8630  -34.8570    1.1190 N.3   2001  KAN2001    -0.1272
     23  O5       -25.9630  -26.6950    3.3870 O.3   2001  KAN2001    -0.3268
     24  O6       -23.8680  -29.4950    4.5620 O.3   2001  KAN2001    -0.2149
     25  O7       -21.9640  -27.4710    4.0220 O.3   2001  KAN2001    -0.2174
     26  O8       -23.0000  -24.7910    4.4700 O.3   2001  KAN2001    -0.2176
     27  O9       -26.1000  -27.7670    5.4560 O.3   2001  KAN2001    -0.3269
     28  O10      -26.4270  -29.9750    3.7110 O.3   2001  KAN2001    -0.2178
     29  O11      -26.4060  -32.4900    4.6350 O.3   2001  KAN2001    -0.3269
     30  O12      -28.6700  -33.1170    4.5550 O.3   2001  KAN2001    -0.3257
     31  O13      -25.6320  -35.0450    3.6730 O.3   2001  KAN2001    -0.2161
     32  O14      -29.1430  -33.2040    0.8830 O.3   2001  KAN2001    -0.2188
     33  O15      -31.0410  -31.9750    2.0030 O.3   2001  KAN2001    -0.2176
@<TRIPOS>BOND
     1    32    16    1
     2    22    15    1
     3    33    18    1
     4    16    15    1
     5    16    17    1
     6    15    14    1
     7    17    18    1
     8    17    30    1
     9    23     5    1
    10    23     1    1
    11     6    19    1
    12     6     5    1
    13    14    31    1
    14    14    13    1
    15    28     9    1
    16     4     5    1
    17     4     3    1
    18     4    26    1
    19     2     1    1
    20     2     3    1
    21     2    24    1
    22    25     3    1
    23     1    27    1
    24    30    13    1
    25    29    13    1
    26    29     8    1
    27     9     8    1
    28     9    10    1
    29    27    10    1
    30     8     7    1
    31    10    11    1
    32     7    21    1
    33     7    12    1
    34    11    12    1
    35    11    20    1
