@<TRIPOS>MOLECULE
3kp9_U10_A_1.pdb
 33 33 0 0 0
SMALL
GASTEIGER

@<TRIPOS>ATOM
      1  C1        41.0100   69.0000   17.8130 C.3   501  U10501      0.0672
      2  C2        40.9330   70.2220   18.5020 C.2   501  U10501      0.1804
      3  C3        42.0760   70.8120   19.0520 C.3   501  U10501      0.2061
      4  C4        43.3070   70.1990   18.8150 C.3   501  U10501      0.2061
      5  C5        43.3790   68.9920   18.1110 C.2   501  U10501      0.1804
      6  C6        42.2490   68.3600   17.5920 C.3   501  U10501      0.0672
      7  C1M       39.7040   68.4250   17.3170 C.3   501  U10501      0.0083
      8  C3M       41.5610   72.6300   20.4640 C.3   501  U10501      0.1747
      9  C4M       44.7500   71.1990   20.3560 C.3   501  U10501      0.1747
     10  C7        42.4920   67.3030   16.5060 C.3   501  U10501      0.0078
     11  C8        41.4490   66.2120   16.3440 C.3   501  U10501      0.0004
     12  C9        41.3440   65.0260   17.2250 C.3   501  U10501      0.0000
     13  C10       42.1230   63.7840   16.9250 C.3   501  U10501      0.0000
     14  C11       40.4420   65.0030   18.4500 C.3   501  U10501      0.0000
     15  C12       38.9890   64.5860   18.1390 C.3   501  U10501      0.0000
     16  C13       38.4580   63.5850   19.1530 C.3   501  U10501      0.0000
     17  C14       39.1310   62.2890   19.3150 C.3   501  U10501      0.0000
     18  C15       39.1990   61.3940   18.1230 C.3   501  U10501      0.0000
     19  C16       39.7490   61.8760   20.6330 C.3   501  U10501      0.0000
     20  C17       39.7400   60.3600   20.8720 C.3   501  U10501      0.0000
     21  C18       39.1800   60.0310   22.2460 C.3   501  U10501      0.0000
     22  C19       39.4290   58.7170   22.8640 C.3   501  U10501      0.0000
     23  C20       38.4400   57.6200   22.6460 C.3   501  U10501      0.0000
     24  C21       40.6660   58.4550   23.6970 C.3   501  U10501      0.0000
     25  C22       40.2940   57.9900   25.1010 C.3   501  U10501      0.0000
     26  C23       40.9250   58.9110   26.1270 C.3   501  U10501      0.0000
     27  C24       41.6770   58.4010   27.2970 C.3   501  U10501      0.0000
     28  C25       42.9980   57.6980   27.1100 C.3   501  U10501      0.0000
     29  C26       41.1220   58.5800   28.6960 C.3   501  U10501      0.0000
     30  O2        40.0550   71.0130   18.1290 O.2   501  U10501     -0.2934
     31  O3        41.9430   71.2920   20.1960 O.3   501  U10501     -0.3432
     32  O4        44.3540   70.8280   19.0470 O.3   501  U10501     -0.3432
     33  O5        44.4800   68.6100   17.7340 O.2   501  U10501     -0.2934
@<TRIPOS>BOND
     1    11    10    1
     2    11    12    1
     3    10     6    1
     4    13    12    1
     5    12    14    1
     6     7     1    1
     7     6     1    1
     8     6     5    1
     9    33     5    2
    10     1     2    1
    11     5     4    1
    12    18    17    1
    13    30     2    2
    14    15    14    1
    15    15    16    1
    16     2     3    1
    17     4    32    1
    18     4     3    1
    19    32     9    1
    20     3    31    1
    21    16    17    1
    22    17    19    1
    23    31     8    1
    24    19    20    1
    25    20    21    1
    26    21    22    1
    27    23    22    1
    28    22    24    1
    29    24    25    1
    30    25    26    1
    31    26    27    1
    32    28    27    1
    33    27    29    1
