@<TRIPOS>MOLECULE
3kpb_SAM_A_1.pdb
 27 29 0 0 0
SMALL
GASTEIGER

@<TRIPOS>ATOM
      1  N         -5.4110   17.3870   -3.4830 N.3   1000  SAM1000    -0.1208
      2  CA        -5.9110   16.7610   -2.2490 C.3   1000  SAM1000     0.1952
      3  C         -7.3840   16.3790   -2.4230 C.2   1000  SAM1000     0.3819
      4  O         -7.8030   15.9170   -3.4880 O.co2 1000  SAM1000    -0.2441
      5  OXT       -8.1920   16.5140   -1.5000 O.co2 1000  SAM1000    -0.2441
      6  CB        -5.7720   17.7460   -1.0850 C.3   1000  SAM1000     0.0414
      7  CG        -5.4650   17.0130    0.2230 C.3   1000  SAM1000     0.0503
      8  SD        -6.6670   17.3890    1.5490 S.3   1000  SAM1000    -0.1761
      9  CE        -6.3040   16.0630    2.6780 C.3   1000  SAM1000     0.0590
     10  C5'       -8.3410   16.8950    1.0030 C.3   1000  SAM1000     0.0806
     11  C4'       -9.3290   18.0600    1.0100 C.3   1000  SAM1000     0.1622
     12  O4'       -8.8840   19.0920    0.1170 O.3   1000  SAM1000    -0.3153
     13  C3'      -10.6500   17.5760    0.4190 C.3   1000  SAM1000     0.2168
     14  O3'      -11.5720   17.3870    1.4890 O.3   1000  SAM1000    -0.2175
     15  C2'      -11.1130   18.7270   -0.4710 C.3   1000  SAM1000     0.2569
     16  O2'      -12.4130   19.1550   -0.0490 O.3   1000  SAM1000    -0.2130
     17  C1'      -10.0770   19.8220   -0.2010 C.3   1000  SAM1000     0.3185
     18  N9        -9.8660   20.5950   -1.4430 N.pl3 1000  SAM1000    -0.1439
     19  C8        -9.4470   20.1090   -2.6140 C.3   1000  SAM1000     0.3377
     20  N7        -9.3820   21.1010   -3.5050 N.2   1000  SAM1000    -0.2095
     21  C5        -9.7590   22.2230   -2.8960 C.2   1000  SAM1000     0.2526
     22  C6        -9.8920   23.5440   -3.3040 C.2   1000  SAM1000     0.4393
     23  N6        -9.6080   23.9110   -4.5500 N.pl3 1000  SAM1000     0.2180
     24  N1       -10.3110   24.4570   -2.4150 N.2   1000  SAM1000     0.0021
     25  C2       -10.5980   24.1130   -1.1700 C.3   1000  SAM1000     0.5254
     26  N3       -10.4830   22.8620   -0.7500 N.2   1000  SAM1000    -0.0055
     27  C4       -10.0700   21.9010   -1.5890 C.2   1000  SAM1000     0.3518
@<TRIPOS>BOND
     1    23    22    1
     2    20    21    2
     3    20    19    1
     4     4     3   ar
     5     1     2    1
     6    22    21    1
     7    22    24    2
     8    21    27    1
     9    19    18    1
    10     3     2    1
    11     3     5   ar
    12    24    25    1
    13     2     6    1
    14    27    18    1
    15    27    26    2
    16    18    17    1
    17    25    26    1
    18     6     7    1
    19    15    17    1
    20    15    16    1
    21    15    13    1
    22    17    12    1
    23    12    11    1
    24     7     8    1
    25    13    11    1
    26    13    14    1
    27    10    11    1
    28    10     8    1
    29     8     9    1
