@<TRIPOS>MOLECULE
3kpc_MTA_A_1.pdb
 20 22 0 0 0
SMALL
GASTEIGER

@<TRIPOS>ATOM
      1  CS         6.5680  -16.1740  -23.2990 C.3   3615  MTA3615     0.0693
      2  S5'        7.4050  -15.1430  -22.1230 S.3   3615  MTA3615    -0.1367
      3  C5'        6.2920  -13.6660  -22.2170 C.3   3615  MTA3615     0.0899
      4  C4'        5.4160  -13.3970  -20.9450 C.3   3615  MTA3615     0.1630
      5  O4'        4.0330  -13.1600  -21.3510 O.3   3615  MTA3615    -0.3153
      6  C2'        4.0180  -15.1860  -20.0390 C.3   3615  MTA3615     0.2569
      7  O2'        3.3960  -15.2870  -18.6890 O.3   3615  MTA3615    -0.2130
      8  C3'        5.4270  -14.5930  -19.9830 C.3   3615  MTA3615     0.2168
      9  O3'        5.7610  -14.1500  -18.6100 O.3   3615  MTA3615    -0.2175
     10  C1'        3.2040  -14.3010  -20.9760 C.3   3615  MTA3615     0.3185
     11  N9         2.8480  -15.2700  -22.0660 N.pl3 3615  MTA3615    -0.1439
     12  C8         3.6660  -16.1250  -22.6890 C.3   3615  MTA3615     0.3377
     13  N7         2.9900  -16.8410  -23.5860 N.2   3615  MTA3615    -0.2095
     14  C5         1.7240  -16.4490  -23.5310 C.2   3615  MTA3615     0.2526
     15  C6         0.5710  -16.8200  -24.2060 C.2   3615  MTA3615     0.4393
     16  N6         0.6060  -17.7700  -25.1410 N.pl3 3615  MTA3615     0.2180
     17  N1        -0.5860  -16.2140  -23.8900 N.2   3615  MTA3615     0.0021
     18  C2        -0.6340  -15.2620  -22.9690 C.3   3615  MTA3615     0.5254
     19  N3         0.4470  -14.8870  -22.3030 N.2   3615  MTA3615    -0.0055
     20  C4         1.6340  -15.4580  -22.5640 C.2   3615  MTA3615     0.3518
@<TRIPOS>BOND
     1    16    15    1
     2    15    17    2
     3    15    14    1
     4    17    18    1
     5    13    14    2
     6    13    12    1
     7    14    20    1
     8     1     2    1
     9    18    19    1
    10    12    11    1
    11    20    19    2
    12    20    11    1
    13     3     2    1
    14     3     4    1
    15    11    10    1
    16     5    10    1
    17     5     4    1
    18    10     6    1
    19     4     8    1
    20     6     8    1
    21     6     7    1
    22     8     9    1
