@<TRIPOS>MOLECULE
3kpc_SAM_A_1.pdb
 27 29 0 0 0
SMALL
GASTEIGER

@<TRIPOS>ATOM
      1  N         15.8270  -24.7750  -22.5380 N.3   1000  SAM1000    -0.1208
      2  CA        15.6020  -24.2300  -23.9120 C.3   1000  SAM1000     0.1952
      3  C         14.1270  -23.8290  -24.0960 C.2   1000  SAM1000     0.3819
      4  O         13.3130  -23.9430  -23.1790 O.co2 1000  SAM1000    -0.2441
      5  OXT       13.7190  -23.3850  -25.1700 O.co2 1000  SAM1000    -0.2441
      6  CB        16.0230  -25.2500  -24.9900 C.3   1000  SAM1000     0.0414
      7  CG        15.5970  -26.6870  -24.6690 C.3   1000  SAM1000     0.0503
      8  SD        13.7990  -26.9870  -24.8340 S.3   1000  SAM1000    -0.1761
      9  CE        13.8050  -28.7690  -24.7110 C.3   1000  SAM1000     0.0590
     10  C5'       13.2870  -26.7430  -26.5780 C.3   1000  SAM1000     0.0806
     11  C4'       11.9110  -27.3470  -26.8720 C.3   1000  SAM1000     0.1622
     12  O4'       11.1040  -27.1520  -25.6920 O.3   1000  SAM1000    -0.3153
     13  C3'       11.1260  -26.6700  -28.0040 C.3   1000  SAM1000     0.2168
     14  O3'       11.0020  -27.6020  -29.0840 O.3   1000  SAM1000    -0.2175
     15  C2'        9.7580  -26.3860  -27.3760 C.3   1000  SAM1000     0.2569
     16  O2'        8.6790  -26.7400  -28.2570 O.3   1000  SAM1000    -0.2130
     17  C1'        9.7810  -27.3250  -26.1690 C.3   1000  SAM1000     0.3185
     18  N9         8.8190  -26.9090  -25.1220 N.pl3 1000  SAM1000    -0.1439
     19  C8         8.6240  -25.6760  -24.6520 C.3   1000  SAM1000     0.3377
     20  N7         7.6700  -25.6980  -23.7180 N.2   1000  SAM1000    -0.2095
     21  C5         7.2590  -26.9580  -23.5920 C.2   1000  SAM1000     0.2526
     22  C6         6.3080  -27.6040  -22.8040 C.2   1000  SAM1000     0.4393
     23  N6         5.5710  -26.9250  -21.9250 N.pl3 1000  SAM1000     0.2180
     24  N1         6.1370  -28.9330  -22.9330 N.2   1000  SAM1000     0.0021
     25  C2         6.8580  -29.6350  -23.7990 C.3   1000  SAM1000     0.5254
     26  N3         7.7700  -29.0500  -24.5640 N.2   1000  SAM1000    -0.0055
     27  C4         7.9890  -27.7250  -24.4850 C.2   1000  SAM1000     0.3518
@<TRIPOS>BOND
     1    14    13    1
     2    16    15    1
     3    13    15    1
     4    13    11    1
     5    15    17    1
     6    11    10    1
     7    11    12    1
     8    10     8    1
     9    17    12    1
    10    17    18    1
    11     5     3   ar
    12    18    19    1
    13    18    27    1
    14     6     7    1
    15     6     2    1
    16     8     9    1
    17     8     7    1
    18    19    20    1
    19    26    27    2
    20    26    25    1
    21    27    21    1
    22     3     2    1
    23     3     4   ar
    24     2     1    1
    25    25    24    1
    26    20    21    2
    27    21    22    1
    28    24    22    2
    29    22    23    1
