@<TRIPOS>MOLECULE
3kpd_MTA_A_1.pdb
 20 22 0 0 0
SMALL
GASTEIGER

@<TRIPOS>ATOM
      1  CS        23.6720   16.0810  -37.9520 C.3     1  MTA1        0.0693
      2  S5'       23.6680   17.2760  -39.2610 S.3     1  MTA1       -0.1367
      3  C5'       22.4410   16.8000  -40.4490 C.3     1  MTA1        0.0899
      4  C4'       21.0130   17.1710  -40.0050 C.3     1  MTA1        0.1630
      5  O4'       20.3540   16.1490  -39.2560 O.3     1  MTA1       -0.3153
      6  C2'       20.2050   17.9900  -37.8800 C.3     1  MTA1        0.2569
      7  O2'       19.3140   18.9890  -37.3580 O.3     1  MTA1       -0.2130
      8  C3'       20.9230   18.4230  -39.1500 C.3     1  MTA1        0.2168
      9  O3'       20.1470   19.3230  -39.9380 O.3     1  MTA1       -0.2175
     10  C1'       19.4360   16.7860  -38.3730 C.3     1  MTA1        0.3185
     11  N9        19.0210   15.8180  -37.3390 N.pl3   1  MTA1       -0.1439
     12  C8        19.7580   15.3050  -36.3380 C.3     1  MTA1        0.3377
     13  N7        19.0490   14.4160  -35.5990 N.2     1  MTA1       -0.2095
     14  C5        17.8330   14.3440  -36.1440 C.2     1  MTA1        0.2526
     15  C6        16.5870   13.6020  -35.8670 C.2     1  MTA1        0.4393
     16  N6        16.5260   12.7340  -34.8410 N.pl3   1  MTA1        0.2180
     17  N1        15.5270   13.7970  -36.6820 N.2     1  MTA1        0.0021
     18  C2        15.5850   14.6630  -37.7210 C.3     1  MTA1        0.5254
     19  N3        16.6790   15.3810  -38.0350 N.2     1  MTA1       -0.0055
     20  C4        17.8170   15.2570  -37.2990 C.2     1  MTA1        0.3518
@<TRIPOS>BOND
     1     3     4    1
     2     3     2    1
     3     4     5    1
     4     4     8    1
     5     9     8    1
     6     2     1    1
     7     5    10    1
     8     8     6    1
     9    10     6    1
    10    10    11    1
    11    19    18    1
    12    19    20    2
    13     6     7    1
    14    18    17    1
    15    11    20    1
    16    11    12    1
    17    20    14    1
    18    17    15    2
    19    12    13    1
    20    14    15    1
    21    14    13    2
    22    15    16    1
