@<TRIPOS>MOLECULE
3kpd_SAM_B_1.pdb
 27 29 0 0 0
SMALL
GASTEIGER

@<TRIPOS>ATOM
      1  N         -8.0540   38.2740  -19.6500 N.3   1000  SAM1000    -0.1269
      2  CA        -7.8520   37.2300  -18.6280 C.3   1000  SAM1000     0.1287
      3  C         -6.3770   36.8860  -18.4550 C.2   1000  SAM1000     0.0678
      4  O         -5.5130   37.6040  -18.9710 O.co2 1000  SAM1000    -0.5477
      5  OXT       -6.0260   35.8970  -17.8030 O.co2 1000  SAM1000    -0.5477
      6  CB        -8.6340   35.9450  -18.8940 C.3   1000  SAM1000     0.0355
      7  CG        -8.7220   35.5410  -20.3620 C.3   1000  SAM1000     0.0501
      8  SD        -7.4580   34.3500  -20.8790 S.3   1000  SAM1000    -0.1761
      9  CE        -8.1350   33.9040  -22.5040 C.3   1000  SAM1000     0.0590
     10  C5'       -7.9580   32.9120  -19.8830 C.3   1000  SAM1000     0.0806
     11  C4'       -7.0140   31.7190  -19.9250 C.3   1000  SAM1000     0.1622
     12  O4'       -5.6740   32.1550  -19.9130 O.3   1000  SAM1000    -0.3153
     13  C3'       -7.1570   30.8760  -18.6630 C.3   1000  SAM1000     0.2168
     14  O3'       -7.8800   29.6840  -18.8850 O.3   1000  SAM1000    -0.2175
     15  C2'       -5.7410   30.5970  -18.1870 C.3   1000  SAM1000     0.2569
     16  O2'       -5.5440   29.2160  -17.9430 O.3   1000  SAM1000    -0.2130
     17  C1'       -4.9080   31.1250  -19.3420 C.3   1000  SAM1000     0.3185
     18  N9        -3.5510   31.5490  -18.9600 N.pl3 1000  SAM1000    -0.1439
     19  C8        -3.1550   32.2880  -17.8800 C.3   1000  SAM1000     0.3377
     20  N7        -1.8030   32.4410  -17.9300 N.2   1000  SAM1000    -0.2095
     21  C5        -1.3300   31.7990  -19.0160 C.2   1000  SAM1000     0.2526
     22  C6        -0.0490   31.6210  -19.5240 C.2   1000  SAM1000     0.4393
     23  N6         0.9880   32.1520  -18.8960 N.pl3 1000  SAM1000     0.2180
     24  N1         0.1650   30.9020  -20.6760 N.2   1000  SAM1000     0.0021
     25  C2        -0.9300   30.3650  -21.3190 C.3   1000  SAM1000     0.5254
     26  N3        -2.2150   30.5320  -20.8160 N.2   1000  SAM1000    -0.0055
     27  C4        -2.4140   31.2360  -19.6730 C.2   1000  SAM1000     0.3518
@<TRIPOS>UNITY_ATOM_ATTR
5 1
charge -1
@<TRIPOS>BOND
     1     9     8    1
     2    25    26    1
     3    25    24    1
     4     8     7    1
     5     8    10    1
     6    26    27    2
     7    24    22    2
     8     7     6    1
     9    11    12    1
    10    11    10    1
    11    11    13    1
    12    12    17    1
    13    27    21    1
    14    27    18    1
    15     1     2    1
    16    22    21    1
    17    22    23    1
    18    17    18    1
    19    17    15    1
    20    21    20    2
    21     4     3   ar
    22    18    19    1
    23     6     2    1
    24    14    13    1
    25    13    15    1
    26     2     3    1
    27     3     5   ar
    28    15    16    1
    29    20    19    1
