@<TRIPOS>MOLECULE
3kpe_TM3_A_1.pdb
 41 45 0 0 0
SMALL
GASTEIGER

@<TRIPOS>ATOM
      1  C1        27.9380  -10.3130   -9.9070 C.3     1  TM31        0.1595
      2  C2        26.5110   -9.8880   -9.5310 C.3     1  TM31        0.1046
      3  N3        26.2180  -10.3350   -8.1560 N.3     1  TM31       -0.2684
      4  C4        27.2500   -9.7560   -7.2680 C.3     1  TM31        0.1046
      5  C5        28.6370  -10.2790   -7.6300 C.3     1  TM31        0.1595
      6  O6        28.9240   -9.8500   -8.9580 O.3     1  TM31       -0.3508
      7  C13       24.8440   -9.9310   -7.7310 C.3     1  TM31        0.0741
      8  C14       24.2900  -10.7880   -6.5910 C.3     1  TM31        0.0408
      9  C15       22.8000  -10.6280   -6.3790 C.3     1  TM31        0.1176
     10  N16       22.5080   -9.3010   -5.8180 N.pl3   1  TM31       -0.1963
     11  C17       22.3160   -9.0890   -4.5020 C.cat   1  TM31        0.2620
     12  N23       22.4170  -10.0710   -3.5970 N.2     1  TM31       -0.3703
     13  C24       22.1500   -9.4740   -2.3940 C.ar    1  TM31        0.1481
     14  C25       21.8910   -8.1160   -2.6070 C.ar    1  TM31        0.0849
     15  N26       21.9890   -7.9140   -3.9570 N.pl3   1  TM31       -0.2400
     16  C32       21.5720   -7.2240   -1.5660 C.ar    1  TM31        0.0189
     17  C33       21.5280   -7.7630   -0.2690 C.ar    1  TM31        0.0179
     18  C34       21.8320   -9.1310   -0.0430 C.ar    1  TM31        0.0040
     19  C35       22.1320   -9.9870   -1.0970 C.ar    1  TM31        0.0335
     20  C41       21.7110   -6.6600   -4.6920 C.3     1  TM31        0.1613
     21  C42       22.5890   -5.5220   -4.3510 C.2     1  TM31        0.1668
     22  C45       23.9430   -5.6080   -4.4570 C.2     1  TM31        0.2187
     23  C46       24.7330   -4.5150   -4.1790 C.2     1  TM31        0.0254
     24  C47       24.0560   -3.3550   -3.7250 C.3     1  TM31        0.0837
     25  C48       22.6810   -3.3120   -3.6310 C.2     1  TM31        0.0913
     26  N49       21.9380   -4.3950   -3.9170 N.2     1  TM31       -0.4095
     27  O56       24.4550   -6.7870   -4.9240 O.2     1  TM31       -0.2845
     28  C58       21.9560   -2.0700   -3.1610 C.3     1  TM31        0.0618
     29  C60       21.2230   -6.9120    0.9390 C.2     1  TM31        0.0856
     30  N61       20.8930   -5.4960    0.6550 N.pl3   1  TM31       -0.2115
     31  C62       20.7370   -4.5800    1.6650 C.ar    1  TM31        0.0662
     32  C66       20.8950   -4.9760    3.0030 C.ar    1  TM31        0.0119
     33  C67       20.7530   -4.0680    4.0540 C.ar    1  TM31       -0.0206
     34  C68       20.4300   -2.7470    3.7720 C.ar    1  TM31       -0.0045
     35  C69       20.2990   -2.3400    2.4600 C.ar    1  TM31       -0.0033
     36  C70       20.4180   -3.2480    1.4140 C.ar    1  TM31       -0.0069
     37  C77       20.8970   -4.5140    5.4950 C.3     1  TM31        0.0311
     38  C79       20.2580   -2.7220   -0.0070 C.3     1  TM31        0.0304
     39  C80       18.8090   -2.6640   -0.4990 C.3     1  TM31        0.0403
     40  C81       18.0360   -3.9960   -0.4090 C.3     1  TM31        0.1825
     41  O82       18.7000   -5.0060   -1.1860 O.3     1  TM31       -0.2204
@<TRIPOS>BOND
     1     1     2    1
     2     1     6    1
     3     2     3    1
     4     6     5    1
     5     3     7    1
     6     3     4    1
     7     7     8    1
     8     5     4    1
     9     8     9    1
    10     9    10    1
    11    10    11    1
    12    27    22    1
    13    20    21    1
    14    20    15    1
    15    11    15    1
    16    11    12    2
    17    22    21    1
    18    22    23    2
    19    21    26    2
    20    23    24    1
    21    15    14    1
    22    26    25    2
    23    24    25    1
    24    25    28    1
    25    12    13    2
    26    14    13   ar
    27    14    16   ar
    28    13    19   ar
    29    16    17   ar
    30    41    40    1
    31    19    18   ar
    32    39    40    1
    33    39    38    1
    34    17    18   ar
    35    17    29    2
    36    38    36    1
    37    30    29    1
    38    30    31    1
    39    36    31   ar
    40    36    35   ar
    41    31    32   ar
    42    35    34   ar
    43    32    33   ar
    44    34    33   ar
    45    33    37    1
