@<TRIPOS>MOLECULE
3kpj_SAH_A_1.pdb
 26 28 0 0 0
SMALL
GASTEIGER

@<TRIPOS>ATOM
      1  N         27.0980   53.1900   18.4470 N.3   3001  SAH3001    -0.1208
      2  CA        28.2360   52.5840   17.7520 C.3   3001  SAH3001     0.1952
      3  CB        29.3840   52.2220   18.6920 C.3   3001  SAH3001     0.0422
      4  CG        29.0030   51.5180   19.9980 C.3   3001  SAH3001     0.0597
      5  SD        30.4410   50.9030   20.9220 S.3   3001  SAH3001    -0.1375
      6  C         27.8180   51.3530   16.9530 C.2   3001  SAH3001     0.3819
      7  O         28.6770   50.6370   16.4500 O.co2 3001  SAH3001    -0.2441
      8  OXT       26.6300   51.0470   16.7950 O.co2 3001  SAH3001    -0.2441
      9  C5'       29.9010   51.5800   22.5210 C.3   3001  SAH3001     0.0899
     10  C4'       30.3580   53.0240   22.7050 C.3   3001  SAH3001     0.1630
     11  O4'       29.9850   53.5230   23.9740 O.3   3001  SAH3001    -0.3153
     12  C3'       31.8680   53.2030   22.6000 C.3   3001  SAH3001     0.2168
     13  O3'       32.1930   53.9190   21.4310 O.3   3001  SAH3001    -0.2175
     14  C2'       32.2440   54.0020   23.8330 C.3   3001  SAH3001     0.2569
     15  O2'       33.1420   55.0580   23.5740 O.3   3001  SAH3001    -0.2130
     16  C1'       30.9120   54.5250   24.3230 C.3   3001  SAH3001     0.3185
     17  N9        30.9320   54.7330   25.7720 N.pl3 3001  SAH3001    -0.1439
     18  C8        31.8310   54.2230   26.6710 C.3   3001  SAH3001     0.3377
     19  N7        31.4840   54.6630   27.9010 N.2   3001  SAH3001    -0.2095
     20  C5        30.3840   55.4410   27.7950 C.2   3001  SAH3001     0.2526
     21  C6        29.6280   56.1350   28.7260 C.2   3001  SAH3001     0.4393
     22  N6        29.9490   56.1060   30.0170 N.pl3 3001  SAH3001     0.2180
     23  N1        28.5340   56.8610   28.3080 N.2   3001  SAH3001     0.0021
     24  C2        28.2050   56.8990   26.9680 C.3   3001  SAH3001     0.5254
     25  N3        28.9660   56.2120   26.0450 N.2   3001  SAH3001    -0.0055
     26  C4        30.0310   55.4930   26.4580 C.2   3001  SAH3001     0.3518
@<TRIPOS>BOND
     1     7     6   ar
     2     8     6   ar
     3     6     2    1
     4     2     1    1
     5     2     3    1
     6     3     4    1
     7     4     5    1
     8     5     9    1
     9    13    12    1
    10     9    10    1
    11    12    10    1
    12    12    14    1
    13    10    11    1
    14    15    14    1
    15    14    16    1
    16    11    16    1
    17    16    17    1
    18    17    26    1
    19    17    18    1
    20    25    26    2
    21    25    24    1
    22    26    20    1
    23    18    19    1
    24    24    23    1
    25    20    19    2
    26    20    21    1
    27    23    21    2
    28    21    22    1
