@<TRIPOS>MOLECULE
3kpu_SAH_A_1.pdb
 26 28 0 0 0
SMALL
GASTEIGER

@<TRIPOS>ATOM
      1  N         26.8240   53.3110   17.7820 N.3   2001  SAH2001    -0.1208
      2  CA        27.9840   52.4800   17.4570 C.3   2001  SAH2001     0.1952
      3  CB        28.3690   51.6810   18.7120 C.3   2001  SAH2001     0.0422
      4  CG        29.8130   51.9970   19.0950 C.3   2001  SAH2001     0.0597
      5  SD        30.3150   50.7670   20.3350 S.3   2001  SAH2001    -0.1375
      6  C         27.5900   51.4590   16.3780 C.2   2001  SAH2001     0.3819
      7  O         26.4350   51.2720   16.1500 O.co2 2001  SAH2001    -0.2441
      8  OXT       28.5240   50.4740   16.0410 O.co2 2001  SAH2001    -0.2441
      9  C5'       29.7830   51.3200   21.9830 C.3   2001  SAH2001     0.0899
     10  C4'       29.9880   52.8400   22.0930 C.3   2001  SAH2001     0.1630
     11  O4'       29.5670   53.2970   23.4130 O.3   2001  SAH2001    -0.3153
     12  C3'       31.4700   53.2260   21.9500 C.3   2001  SAH2001     0.2168
     13  O3'       31.6540   54.1290   20.8900 O.3   2001  SAH2001    -0.2175
     14  C2'       31.7850   53.8910   23.2690 C.3   2001  SAH2001     0.2569
     15  O2'       32.7580   54.8980   23.1520 O.3   2001  SAH2001    -0.2130
     16  C1'       30.4340   54.4360   23.7220 C.3   2001  SAH2001     0.3185
     17  N9        30.5080   54.5950   25.1670 N.pl3 2001  SAH2001    -0.1439
     18  C8        31.5550   53.9890   26.0440 C.3   2001  SAH2001     0.3377
     19  N7        31.2740   54.3910   27.4090 N.2   2001  SAH2001    -0.2095
     20  C5        30.0730   55.2320   27.4010 C.2   2001  SAH2001     0.2526
     21  C6        29.3290   55.9150   28.5130 C.2   2001  SAH2001     0.4393
     22  N6        29.7880   55.7750   29.8880 N.pl3 2001  SAH2001     0.2180
     23  N1        28.1410   56.7010   28.2010 N.2   2001  SAH2001     0.0021
     24  C2        27.6620   56.8290   26.7780 C.3   2001  SAH2001     0.5254
     25  N3        28.4060   56.1560   25.6870 N.2   2001  SAH2001    -0.0055
     26  C4        29.6040   55.3600   26.0010 C.2   2001  SAH2001     0.3518
@<TRIPOS>BOND
     1     8     6   ar
     2     7     6   ar
     3     6     2    1
     4     2     1    1
     5     2     3    1
     6     3     4    1
     7     4     5    1
     8     5     9    1
     9    13    12    1
    10    12    10    1
    11    12    14    1
    12     9    10    1
    13    10    11    1
    14    15    14    1
    15    14    16    1
    16    11    16    1
    17    16    17    1
    18    17    26    1
    19    17    18    1
    20    25    26    2
    21    25    24    1
    22    26    20    1
    23    18    19    1
    24    24    23    1
    25    20    19    2
    26    20    21    1
    27    23    21    2
    28    21    22    1
