@<TRIPOS>MOLECULE
3kpu_ES1_A_1.pdb
 11 12 0 0 0
SMALL
GASTEIGER

@<TRIPOS>ATOM
      1  O01       26.9670   45.3550   14.0670 O.2   290  ES1290     -0.2868
      2  CAD       28.1580   46.2410   15.9680 C.2   290  ES1290      0.0420
      3  CAE       28.8340   46.0330   17.1960 C.3   290  ES1290      0.1545
      4  CAF       27.6540   45.1590   15.2670 C.2   290  ES1290      0.1945
      5  CAG       27.4470   41.4590   15.5190 C.2   290  ES1290     -0.0040
      6  NAH       28.9900   44.7450   17.6850 N.2   290  ES1290     -0.2694
      7  CAI       27.2890   42.7680   15.0160 C.2   290  ES1290      0.0040
      8  CAJ       28.6440   42.3440   17.4790 C.3   290  ES1290      0.0714
      9  CAK       28.1230   41.2470   16.7480 C.2   290  ES1290     -0.0198
     10  CAL       27.8100   43.8660   15.7570 C.2   290  ES1290      0.0521
     11  CAM       28.4810   43.6560   16.9800 C.2   290  ES1290      0.0615
@<TRIPOS>BOND
     1     1     4    1
     2     7     5    1
     3     7    10    2
     4     4    10    1
     5     4     2    2
     6     5     9    2
     7    10    11    1
     8     2     3    1
     9     9     8    1
    10    11     8    1
    11    11     6    2
    12     3     6    1
