@<TRIPOS>MOLECULE
3kpv_ADE_A_1.pdb
 10 11 0 0 0
SMALL
GASTEIGER

@<TRIPOS>ATOM
      1  N9        28.2590   45.3430   16.1790 N.2   290  ADE290     -0.1914
      2  C8        28.5660   46.5490   16.7330 C.3   290  ADE290      0.2618
      3  N7        28.9370   46.3470   18.0350 N.2   290  ADE290     -0.2267
      4  C5        28.8680   45.0270   18.2850 C.2   290  ADE290      0.2303
      5  C6        29.1290   44.2840   19.4420 C.2   290  ADE290      0.4393
      6  N6        29.5440   44.9430   20.6830 N.pl3 290  ADE290      0.2185
      7  N1        28.9710   42.9390   19.4110 N.2   290  ADE290     -0.0265
      8  C2        28.5460   42.3150   18.2520 C.3   290  ADE290      0.4008
      9  N3        28.2850   43.0520   17.1080 N.2   290  ADE290     -0.1640
     10  C4        28.4480   44.4030   17.1310 C.1   290  ADE290      0.0579
@<TRIPOS>BOND
     1     1     2    1
     2     1    10    2
     3     2     3    1
     4     9    10    2
     5     9     8    1
     6    10     4    1
     7     3     4    2
     8     8     7    1
     9     4     5    1
    10     7     5    2
    11     5     6    1
