@<TRIPOS>MOLECULE
3kpv_SAH_A_1.pdb
 26 28 0 0 0
SMALL
GASTEIGER

@<TRIPOS>ATOM
      1  N         26.6490   53.0720   17.6680 N.3   2001  SAH2001    -0.1208
      2  CA        27.8290   52.2720   17.3540 C.3   2001  SAH2001     0.1952
      3  CB        28.2240   51.5260   18.6410 C.3   2001  SAH2001     0.0422
      4  CG        29.6250   51.9530   19.0680 C.3   2001  SAH2001     0.0597
      5  SD        30.2100   50.7470   20.2970 S.3   2001  SAH2001    -0.1375
      6  C         27.4300   51.2310   16.2940 C.2   2001  SAH2001     0.3819
      7  O         26.2780   51.0540   16.0580 O.co2 2001  SAH2001    -0.2441
      8  OXT       28.3540   50.2500   15.9180 O.co2 2001  SAH2001    -0.2441
      9  C5'       29.7310   51.3000   21.9630 C.3   2001  SAH2001     0.0899
     10  C4'       29.8860   52.8270   22.0660 C.3   2001  SAH2001     0.1630
     11  O4'       29.5200   53.3000   23.3990 O.3   2001  SAH2001    -0.3153
     12  C3'       31.3450   53.2570   21.8550 C.3   2001  SAH2001     0.2168
     13  O3'       31.4130   54.2360   20.8450 O.3   2001  SAH2001    -0.2175
     14  C2'       31.7310   53.8440   23.1900 C.3   2001  SAH2001     0.2569
     15  O2'       32.7330   54.8210   23.0700 O.3   2001  SAH2001    -0.2130
     16  C1'       30.4100   54.4300   23.6710 C.3   2001  SAH2001     0.3185
     17  N9        30.4760   54.5830   25.1120 N.pl3 2001  SAH2001    -0.1439
     18  C8        31.4700   53.9290   26.0120 C.3   2001  SAH2001     0.3377
     19  N7        31.1400   54.3120   27.3800 N.2   2001  SAH2001    -0.2095
     20  C5        29.9560   55.1840   27.3410 C.2   2001  SAH2001     0.2526
     21  C6        29.1790   55.8690   28.4320 C.2   2001  SAH2001     0.4393
     22  N6        29.5690   55.7040   29.8280 N.pl3 2001  SAH2001     0.2180
     23  N1        28.0240   56.6870   28.0860 N.2   2001  SAH2001     0.0021
     24  C2        27.6140   56.8470   26.6500 C.3   2001  SAH2001     0.5254
     25  N3        28.3900   56.1750   25.5750 N.2   2001  SAH2001    -0.0055
     26  C4        29.5540   55.3470   25.9250 C.2   2001  SAH2001     0.3518
@<TRIPOS>BOND
     1     8     6   ar
     2     7     6   ar
     3     6     2    1
     4     2     1    1
     5     2     3    1
     6     3     4    1
     7     4     5    1
     8     5     9    1
     9    13    12    1
    10    12    10    1
    11    12    14    1
    12     9    10    1
    13    10    11    1
    14    15    14    1
    15    14    16    1
    16    11    16    1
    17    16    17    1
    18    17    26    1
    19    17    18    1
    20    25    26    2
    21    25    24    1
    22    26    20    1
    23    18    19    1
    24    24    23    1
    25    20    19    2
    26    20    21    1
    27    23    21    2
    28    21    22    1
