@<TRIPOS>MOLECULE
3kpw_SAH_A_1.pdb
 26 28 0 0 0
SMALL
GASTEIGER

@<TRIPOS>ATOM
      1  N         26.8380   53.1330   17.7680 N.3   2001  SAH2001    -0.1208
      2  CA        28.0140   52.3180   17.4740 C.3   2001  SAH2001     0.1952
      3  CB        28.3600   51.5380   18.7460 C.3   2001  SAH2001     0.0422
      4  CG        29.7630   51.9160   19.2050 C.3   2001  SAH2001     0.0597
      5  SD        30.1920   50.6730   20.4600 S.3   2001  SAH2001    -0.1375
      6  C         27.6060   51.2420   16.4540 C.2   2001  SAH2001     0.3819
      7  O         26.4690   50.8980   16.3980 O.co2 2001  SAH2001    -0.2441
      8  OXT       28.5730   50.3290   16.0540 O.co2 2001  SAH2001    -0.2441
      9  C5'       29.8090   51.2580   22.1410 C.3   2001  SAH2001     0.0899
     10  C4'       30.0720   52.7660   22.2950 C.3   2001  SAH2001     0.1630
     11  O4'       29.7440   53.2090   23.6500 O.3   2001  SAH2001    -0.3153
     12  C3'       31.5410   53.1640   22.0620 C.3   2001  SAH2001     0.2168
     13  O3'       31.5890   54.1260   21.0440 O.3   2001  SAH2001    -0.2175
     14  C2'       31.9350   53.7860   23.3820 C.3   2001  SAH2001     0.2569
     15  O2'       32.9800   54.7250   23.3340 O.3   2001  SAH2001    -0.2130
     16  C1'       30.6220   54.3560   23.8970 C.3   2001  SAH2001     0.3185
     17  N9        30.7180   54.5930   25.3310 N.pl3 2001  SAH2001    -0.1439
     18  C8        31.7440   54.0200   26.2510 C.3   2001  SAH2001     0.3377
     19  N7        31.4220   54.4790   27.5960 N.2   2001  SAH2001    -0.2095
     20  C5        30.2140   55.3090   27.5330 C.2   2001  SAH2001     0.2526
     21  C6        29.4410   56.0290   28.6010 C.2   2001  SAH2001     0.4393
     22  N6        29.8550   55.9440   30.0020 N.pl3 2001  SAH2001     0.2180
     23  N1        28.2570   56.7940   28.2290 N.2   2001  SAH2001     0.0021
     24  C2        27.8180   56.8650   26.7900 C.3   2001  SAH2001     0.5254
     25  N3        28.5980   56.1620   25.7340 N.2   2001  SAH2001    -0.0055
     26  C4        29.7830   55.3740   26.1180 C.2   2001  SAH2001     0.3518
@<TRIPOS>BOND
     1     8     6   ar
     2     7     6   ar
     3     6     2    1
     4     2     1    1
     5     2     3    1
     6     3     4    1
     7     4     5    1
     8     5     9    1
     9    13    12    1
    10    12    10    1
    11    12    14    1
    12     9    10    1
    13    10    11    1
    14    15    14    1
    15    14    16    1
    16    11    16    1
    17    16    17    1
    18    17    26    1
    19    17    18    1
    20    25    26    2
    21    25    24    1
    22    26    20    1
    23    18    19    1
    24    24    23    1
    25    20    19    2
    26    20    21    1
    27    23    21    2
    28    21    22    1
