@<TRIPOS>MOLECULE
3kpw_1SQ_A_1.pdb
 11 12 0 0 0
SMALL
GASTEIGER

@<TRIPOS>ATOM
      1  N1        28.3520   42.0070   18.5620 N.pl3 290  1SQ290     -0.1072
      2  C2        28.5190   43.3900   18.1450 C.ar  290  1SQ290      0.1696
      3  N3        29.0180   44.3650   19.0470 N.ar  290  1SQ290     -0.2259
      4  C4        29.1690   45.7260   18.6290 C.ar  290  1SQ290      0.1004
      5  C5        28.8270   46.0980   17.2890 C.ar  290  1SQ290      0.0208
      6  C6        28.3180   45.1030   16.3790 C.ar  290  1SQ290      0.0043
      7  C7        27.9620   45.4560   15.0350 C.ar  290  1SQ290      0.0001
      8  C8        27.4480   44.4300   14.1030 C.ar  290  1SQ290      0.0000
      9  C9        27.2920   43.0780   14.5200 C.ar  290  1SQ290      0.0001
     10  C10       27.6370   42.7290   15.8480 C.ar  290  1SQ290      0.0029
     11  C11       28.1620   43.7700   16.7880 C.ar  290  1SQ290      0.0348
@<TRIPOS>BOND
     1     8     9   ar
     2     8     7   ar
     3     9    10   ar
     4     7     6   ar
     5    10    11   ar
     6     6    11   ar
     7     6     5   ar
     8    11     2   ar
     9     5     4   ar
    10     2     1    1
    11     2     3   ar
    12     4     3   ar
