@<TRIPOS>MOLECULE
3kpx_CZH_A_1.pdb
 33 37 0 0 0
SMALL
GASTEIGER

@<TRIPOS>ATOM
      1  N1        10.4090   16.3650   43.4160 N.2   201  CZH201     -0.0326
      2  C2        10.9710   17.4420   42.6930 C.3   201  CZH201      0.3674
      3  C3        12.0210   18.1160   43.5930 C.3   201  CZH201      0.3876
      4  N4        11.8260   17.5850   44.9200 N.pl3 201  CZH201     -0.1535
      5  C5        12.5000   17.8510   46.2730 C.3   201  CZH201      0.2638
      6  C6        12.0980   16.8600   47.4300 C.2   201  CZH201      0.1559
      7  N7        11.1460   15.6660   47.2890 N.2   201  CZH201     -0.3986
      8  C8        10.5360   15.4510   45.9860 C.2   201  CZH201      0.1943
      9  C9        10.9120   16.4430   44.7720 C.2   201  CZH201      0.3493
     10  C10       11.6020   16.7920   41.5170 C.3   201  CZH201      0.1149
     11  C11       12.2470   17.9250   40.7250 C.ar  201  CZH201     -0.0149
     12  C12       11.3350   18.7380   39.7770 C.ar  201  CZH201     -0.0008
     13  C13       11.9820   19.9300   38.9670 C.ar  201  CZH201      0.0417
     14  C14       13.5280   20.2400   39.1520 C.ar  201  CZH201      0.1957
     15  C15       14.4280   19.4100   40.1230 C.ar  201  CZH201      0.0417
     16  C16       13.7970   18.2350   40.9380 C.ar  201  CZH201     -0.0008
     17  O17       14.1020   21.2850   38.4240 O.3   201  CZH201     -0.2866
     18  O18       11.9600   19.5050   43.5640 O.3   201  CZH201     -0.1636
     19  C19       12.6920   17.0440   48.7910 C.ar  201  CZH201      0.0297
     20  C20       12.6370   15.8100   49.7250 C.ar  201  CZH201      0.0056
     21  C21       13.2360   15.9710   51.1870 C.ar  201  CZH201      0.0421
     22  C22       13.8800   17.3250   51.5820 C.ar  201  CZH201      0.1957
     23  C23       13.9390   18.5660   50.6150 C.ar  201  CZH201      0.0421
     24  C24       13.3140   18.4280   49.1750 C.ar  201  CZH201      0.0056
     25  O25       14.4120   17.4460   52.8340 O.3   201  CZH201     -0.2866
     26  C26        9.5210   14.3170   45.6870 C.3   201  CZH201      0.0930
     27  C27       10.3440   13.0380   45.5460 C.ar  201  CZH201     -0.0149
     28  C28       10.3330   12.2630   44.1940 C.ar  201  CZH201     -0.0038
     29  C29       11.2180   10.9500   44.1070 C.ar  201  CZH201     -0.0003
     30  C30       12.0410   10.4450   45.3690 C.ar  201  CZH201     -0.0000
     31  C31       12.0310   11.2340   46.7160 C.ar  201  CZH201     -0.0003
     32  C32       11.1600   12.5640   46.8110 C.ar  201  CZH201     -0.0038
     33  O33       10.0320   18.3920   42.4280 O.3   201  CZH201     -0.1651
@<TRIPOS>BOND
     1    17    14    1
     2    13    14   ar
     3    13    12   ar
     4    14    15   ar
     5    12    11   ar
     6    15    16   ar
     7    11    16   ar
     8    11    10    1
     9    10     2    1
    10    33     2    1
    11     2     1    1
    12     2     3    1
    13     1     9    2
    14    18     3    1
    15     3     4    1
    16    29    28   ar
    17    29    30   ar
    18    28    27   ar
    19     9     4    1
    20     9     8    1
    21     4     5    1
    22    30    31   ar
    23    27    26    1
    24    27    32   ar
    25    26     8    1
    26     8     7    2
    27     5     6    1
    28    31    32   ar
    29     7     6    2
    30     6    19    1
    31    19    24   ar
    32    19    20   ar
    33    24    23   ar
    34    20    21   ar
    35    23    22   ar
    36    21    22   ar
    37    22    25    1
