@<TRIPOS>MOLECULE
3kpy_ES2_A_1.pdb
 11 12 0 0 0
SMALL
GASTEIGER

@<TRIPOS>ATOM
      1  C10       28.2010   43.9630   16.8100 C.2   290  ES2290      0.1272
      2 CL01       29.7800   44.5130   20.5810 Cl    290  ES2290     -0.0822
      3  C02       29.1530   44.8040   18.9390 C.2   290  ES2290      0.0596
      4  C03       29.0790   46.1920   18.4300 C.2   290  ES2290      0.0073
      5  C04       28.5680   46.4500   17.1170 C.2   290  ES2290     -0.0174
      6  C05       28.1260   45.3520   16.3000 C.3   290  ES2290      0.0929
      7  C06       27.5190   45.3030   14.8990 C.3   290  ES2290      0.1461
      8  C07       27.0410   43.8710   14.7250 C.1   290  ES2290      0.1806
      9  O08       26.7690   43.4810   13.6470 O.2   290  ES2290     -0.2141
     10  N09       27.6840   43.0680   15.7610 N.2   290  ES2290     -0.3404
     11  C11       28.7120   43.6970   18.1170 C.2   290  ES2290      0.0402
@<TRIPOS>BOND
     1     9     8    2
     2     8     7    1
     3     8    10    2
     4     7     6    1
     5    10     1    2
     6     6     1    1
     7     6     5    1
     8     1    11    1
     9     5     4    2
    10    11     3    2
    11     4     3    1
    12     3     2    1
