@<TRIPOS>MOLECULE
3kpy_SAH_A_1.pdb
 26 28 0 0 0
SMALL
GASTEIGER

@<TRIPOS>ATOM
      1  N         26.9640   53.2360   17.6010 N.3   2001  SAH2001    -0.1208
      2  CA        28.0560   52.2950   17.3940 C.3   2001  SAH2001     0.1952
      3  CB        28.3410   51.5860   18.7330 C.3   2001  SAH2001     0.0422
      4  CG        29.7100   52.0290   19.2530 C.3   2001  SAH2001     0.0597
      5  SD        30.2930   50.7730   20.4340 S.3   2001  SAH2001    -0.1375
      6  C         27.5850   51.2360   16.3850 C.2   2001  SAH2001     0.3819
      7  O         26.4230   51.0290   16.2630 O.co2 2001  SAH2001    -0.2441
      8  OXT       28.4960   50.2790   15.9320 O.co2 2001  SAH2001    -0.2441
      9  C5'       29.9530   51.3140   22.1370 C.3   2001  SAH2001     0.0899
     10  C4'       30.0950   52.8390   22.2420 C.3   2001  SAH2001     0.1630
     11  O4'       29.7060   53.2950   23.5770 O.3   2001  SAH2001    -0.3153
     12  C3'       31.5460   53.2910   22.0110 C.3   2001  SAH2001     0.2168
     13  O3'       31.5990   54.2530   20.9850 O.3   2001  SAH2001    -0.2175
     14  C2'       31.9050   53.8910   23.3450 C.3   2001  SAH2001     0.2569
     15  O2'       32.9300   54.8480   23.3370 O.3   2001  SAH2001    -0.2130
     16  C1'       30.5840   54.4240   23.8780 C.3   2001  SAH2001     0.3185
     17  N9        30.7060   54.5750   25.3190 N.pl3 2001  SAH2001    -0.1439
     18  C8        31.7530   53.9530   26.1810 C.3   2001  SAH2001     0.3377
     19  N7        31.4720   54.3260   27.5630 N.2   2001  SAH2001    -0.2095
     20  C5        30.2650   55.1650   27.5680 C.2   2001  SAH2001     0.2526
     21  C6        29.5140   55.8280   28.6850 C.2   2001  SAH2001     0.4393
     22  N6        29.9710   55.6710   30.0610 N.pl3 2001  SAH2001     0.2180
     23  N1        28.3210   56.6130   28.3810 N.2   2001  SAH2001     0.0021
     24  C2        27.8420   56.7620   26.9640 C.3   2001  SAH2001     0.5254
     25  N3        28.5930   56.1090   25.8570 N.2   2001  SAH2001    -0.0055
     26  C4        29.7970   55.3130   26.1690 C.2   2001  SAH2001     0.3518
@<TRIPOS>BOND
     1     8     6   ar
     2     7     6   ar
     3     6     2    1
     4     2     1    1
     5     2     3    1
     6     3     4    1
     7     4     5    1
     8     5     9    1
     9    13    12    1
    10    12    10    1
    11    12    14    1
    12     9    10    1
    13    10    11    1
    14    15    14    1
    15    14    16    1
    16    11    16    1
    17    16    17    1
    18    17    26    1
    19    17    18    1
    20    25    26    2
    21    25    24    1
    22    26    20    1
    23    18    19    1
    24    24    23    1
    25    19    20    2
    26    20    21    1
    27    23    21    2
    28    21    22    1
