@<TRIPOS>MOLECULE
3kpz_ZNE_A_1.pdb
 33 36 0 0 0
SMALL
GASTEIGER

@<TRIPOS>ATOM
      1  C1        14.2050   17.4630   35.4920 C.3   525  ZNE525      0.1582
      2  N1         4.4730   23.3630   33.2760 N.ar  525  ZNE525     -0.2386
      3  O1        13.1600   16.9470   36.3920 O.3   525  ZNE525     -0.2227
      4  S1         2.9200   24.9660   34.4570 S.2   525  ZNE525     -0.0677
      5  C2        14.8380   16.3070   34.6130 C.3   525  ZNE525      0.0664
      6  O2        17.1090   17.5140   34.4130 O.3   525  ZNE525     -0.2227
      7  C3        15.9900   16.9410   33.6170 C.3   525  ZNE525      0.1586
      8  O3         4.9860   26.7920   34.6170 O.3   525  ZNE525     -0.2161
      9  C4        15.4160   18.1130   32.7260 C.3   525  ZNE525      0.0550
     10  C5        14.6500   19.2180   33.5360 C.2   525  ZNE525     -0.0396
     11  C6        14.8560   20.5600   33.3680 C.2   525  ZNE525     -0.0090
     12  C7        14.2650   21.7510   34.0050 C.2   525  ZNE525     -0.0091
     13  C8        14.0480   22.9050   33.4880 C.2   525  ZNE525     -0.0446
     14  C9        14.3880   23.3230   31.9630 C.3   525  ZNE525      0.0220
     15  C10       13.5940   18.5880   34.5890 C.3   525  ZNE525      0.0489
     16  C11       13.0510   23.8250   31.1070 C.3   525  ZNE525      0.0044
     17  C12       12.0860   24.8150   31.9660 C.3   525  ZNE525      0.0006
     18  C13       12.0170   24.5300   33.6170 C.3   525  ZNE525      0.0034
     19  C14       13.4280   24.0560   34.2610 C.3   525  ZNE525      0.0183
     20  C15       12.9740   23.8270   35.8900 C.3   525  ZNE525      0.0040
     21  C16       11.8590   24.9340   36.0610 C.3   525  ZNE525      0.0003
     22  C17       11.7660   25.7190   34.6310 C.3   525  ZNE525      0.0003
     23  C18       10.8860   23.1730   33.5030 C.3   525  ZNE525      0.0003
     24  C19       12.2300   18.9920   34.6970 C.3   525  ZNE525      0.0070
     25  C20       10.3070   26.3480   34.0180 C.3   525  ZNE525      0.0000
     26  C21       10.5160   27.4280   35.2280 C.3   525  ZNE525      0.0000
     27  C22        8.9300   25.8440   34.5090 C.3   525  ZNE525      0.0001
     28  C23        7.8200   26.5680   33.7840 C.3   525  ZNE525      0.0030
     29  C24        6.8630   25.7170   33.1960 C.3   525  ZNE525      0.0397
     30  C25        5.4570   25.6830   33.8360 C.3   525  ZNE525      0.1977
     31  C26        4.4620   24.6170   33.7720 C.ar  525  ZNE525      0.1186
     32  C27        3.2880   22.7060   33.4400 C.ar  525  ZNE525      0.1061
     33  C31        2.2770   23.4180   34.0790 C.ar  525  ZNE525      0.0573
@<TRIPOS>BOND
     1    16    14    1
     2    16    17    1
     3    14    13    1
     4    17    18    1
     5     9    10    1
     6     9     7    1
     7    29    28    1
     8    29    30    1
     9     2    32   ar
    10     2    31   ar
    11    11    10    2
    12    11    12    1
    13    32    33   ar
    14    13    12    2
    15    13    19    1
    16    23    18    1
    17    10    15    1
    18     7     6    1
    19     7     5    1
    20    18    19    1
    21    18    22    1
    22    31    30    1
    23    31     4   ar
    24    28    27    1
    25    30     8    1
    26    25    27    1
    27    25    22    1
    28    25    26    1
    29    33     4   ar
    30    19    20    1
    31    15    24    1
    32    15     1    1
    33     5     1    1
    34    22    21    1
    35     1     3    1
    36    20    21    1
