@<TRIPOS>MOLECULE
3kq7_KQ7_A_1.pdb
 40 44 0 0 0
SMALL
GASTEIGER

@<TRIPOS>ATOM
      1  C1        17.0650   16.4170   21.7330 C.3   361  KQ7361      0.1242
      2  N2        16.9570   15.2420   22.5950 N.pl3 361  KQ7361     -0.2881
      3  C3        17.9100   14.1630   22.2750 C.3   361  KQ7361      0.1242
      4  C4        17.6930   13.8180   20.7930 C.3   361  KQ7361      0.1636
      5  O5        17.9020   14.9640   19.9450 O.3   361  KQ7361     -0.3501
      6  C6        16.9540   16.0230   20.2380 C.3   361  KQ7361      0.1636
      7  C7        16.7850   15.5160   23.9640 C.ar  361  KQ7361      0.1320
      8  N8        16.2990   16.7260   24.3220 N.ar  361  KQ7361     -0.2292
      9  C9        16.0800   17.1250   25.6020 C.ar  361  KQ7361      0.1005
     10  C10       16.3820   16.2140   26.6290 C.ar  361  KQ7361      0.0253
     11  C11       16.9470   14.9470   26.2630 C.ar  361  KQ7361      0.0597
     12  C12       17.1740   14.5620   24.9480 C.ar  361  KQ7361      0.0389
     13  C13       17.3420   13.9010   27.3050 C.2   361  KQ7361      0.2691
     14  O14       18.2430   13.0830   27.0350 O.2   361  KQ7361     -0.2680
     15  N15       16.6820   13.9240   28.4530 N.am  361  KQ7361     -0.1754
     16  C16       16.7540   12.9850   29.5220 C.ar  361  KQ7361      0.0750
     17  C17       15.6140   12.8750   30.3640 C.ar  361  KQ7361      0.0164
     18  C18       15.6540   11.9630   31.4730 C.ar  361  KQ7361     -0.0016
     19  C19       16.7970   11.1210   31.6570 C.ar  361  KQ7361     -0.0064
     20  C20       17.9330   11.2500   30.8050 C.ar  361  KQ7361      0.0710
     21  C21       17.8980   12.1810   29.7180 C.ar  361  KQ7361      0.0329
     22  C22       16.8010   10.1510   32.8220 C.3   361  KQ7361      0.0324
     23  N23       19.0280   10.4060   31.0160 N.am  361  KQ7361     -0.1757
     24  C24       20.0680   10.9350   31.6820 C.2   361  KQ7361      0.2705
     25  O25       20.1250   12.1140   31.9840 O.2   361  KQ7361     -0.2680
     26  C26       21.2250   10.0530   32.0090 C.ar  361  KQ7361      0.0746
     27  C27       22.1240   10.4890   32.9850 C.ar  361  KQ7361      0.0091
     28  C28       23.2220    9.6510   33.3110 C.ar  361  KQ7361      0.0359
     29  C29       23.3350    8.4360   32.6430 C.ar  361  KQ7361      0.1475
     30  N30       22.3810    8.0460   31.7280 N.ar  361  KQ7361     -0.2276
     31  C31       21.3050    8.8220   31.3870 C.ar  361  KQ7361      0.1049
     32  N32       24.3720    7.5550   32.9070 N.pl3 361  KQ7361     -0.2203
     33  C33       25.3840    7.8900   33.9280 C.3   361  KQ7361      0.1152
     34  C34       26.8320    7.9290   33.3820 C.3   361  KQ7361      0.0393
     35  C35       27.2640    8.9930   32.3780 C.3   361  KQ7361      0.0594
     36  C36       26.4740    8.9040   31.0500 C.3   361  KQ7361      0.0174
     37  C37       27.4410    9.2740   29.9140 C.3   361  KQ7361      0.0187
     38  C38       28.8090    9.4280   30.5990 C.3   361  KQ7361      0.0721
     39  N39       28.6820    8.7830   31.9330 N.3   361  KQ7361     -0.2727
     40  C40       29.7640    9.1370   32.9080 C.3   361  KQ7361      0.0896
@<TRIPOS>BOND
     1     5     6    1
     2     5     4    1
     3     6     1    1
     4     4     3    1
     5     1     2    1
     6     3     2    1
     7     2     7    1
     8     7     8   ar
     9     7    12   ar
    10     8     9   ar
    11    12    11   ar
    12     9    10   ar
    13    11    10   ar
    14    11    13    1
    15    14    13    2
    16    13    15   am
    17    15    16    1
    18    16    21   ar
    19    16    17   ar
    20    21    20   ar
    21    37    38    1
    22    37    36    1
    23    17    18   ar
    24    38    39    1
    25    20    23    1
    26    20    19   ar
    27    23    24   am
    28    36    35    1
    29    31    30   ar
    30    31    26   ar
    31    18    19   ar
    32    19    22    1
    33    24    25    2
    34    24    26    1
    35    30    29   ar
    36    39    35    1
    37    39    40    1
    38    26    27   ar
    39    35    34    1
    40    29    32    1
    41    29    28   ar
    42    32    33    1
    43    27    28   ar
    44    34    33    1
