@<TRIPOS>MOLECULE
3kqa_TR9_A_1.pdb
 11 11 0 0 0
SMALL
GASTEIGER

@<TRIPOS>ATOM
      1  C1       -16.5940  -51.1870 -132.5800 C.3   500  TR9500      0.1134
      2  C2       -16.2260  -49.7350 -132.2370 C.3   500  TR9500      0.2205
      3  C3       -15.0640  -49.2420 -133.0850 C.2   500  TR9500      0.2028
      4  C4       -13.9550  -50.2130 -133.4000 C.2   500  TR9500      0.0571
      5  C5       -14.0860  -51.6240 -132.8380 C.2   500  TR9500      0.2289
      6  C6       -15.3220  -52.0940 -132.4350 C.2   500  TR9500      0.2144
      7  C7       -12.8650  -49.8140 -134.1550 C.3   500  TR9500      0.0376
      8  O1       -12.9480  -52.3990 -132.7360 O.2   500  TR9500     -0.2837
      9  O2       -17.3660  -48.9230 -132.3900 O.3   500  TR9500     -0.2143
     10  O3       -15.0320  -47.9570 -133.5290 O.2   500  TR9500     -0.2889
     11  O4       -15.4180  -53.3610 -131.9150 O.2   500  TR9500     -0.2878
@<TRIPOS>BOND
     1     7     4    1
     2    10     3    1
     3     4     3    2
     4     4     5    1
     5     3     2    1
     6     5     8    1
     7     5     6    2
     8     1     6    1
     9     1     2    1
    10     6    11    1
    11     9     2    1
