@<TRIPOS>MOLECULE
3kqb_LGJ_A_1.pdb
 41 45 0 0 0
SMALL
GASTEIGER

@<TRIPOS>ATOM
      1  C1        38.9190   35.7510   21.2720 C.ar  301  LGJ301      0.0001
      2  C2        38.2440   36.2550   22.3950 C.ar  301  LGJ301      0.0013
      3  C3        38.6930   26.7360   14.6070 C.ar  301  LGJ301      0.0023
      4  C4        38.2750   34.8280   20.4390 C.ar  301  LGJ301      0.0013
      5  C5        36.4510   32.0370   19.9900 C.ar  301  LGJ301      0.0015
      6  C6        39.2180   27.4260   13.4950 C.ar  301  LGJ301      0.0112
      7  C7        37.3450   26.8990   14.9730 C.ar  301  LGJ301      0.0192
      8  C8        35.8950   31.1360   19.0560 C.ar  301  LGJ301      0.0189
      9  C9        36.9400   35.8220   22.6710 C.ar  301  LGJ301      0.0183
     10  C10       35.7750   33.9240   18.6160 C.ar  301  LGJ301      0.0310
     11  C11       37.0420   28.4310   13.1100 C.ar  301  LGJ301      0.0302
     12  C12       33.2470   28.6910   15.2880 C.ar  301  LGJ301      0.0487
     13  C13       36.3820   33.4310   19.7730 C.ar  301  LGJ301      0.0036
     14  C14       36.9620   34.3880   20.7100 C.ar  301  LGJ301      0.0172
     15  C15       38.3830   28.2770   12.7510 C.ar  301  LGJ301      0.0780
     16  C16       36.5250   27.7630   14.2190 C.ar  301  LGJ301      0.0837
     17  C17       35.2700   31.6520   17.9000 C.ar  301  LGJ301      0.1011
     18  C18       35.2200   33.0360   17.6950 C.ar  301  LGJ301      0.1553
     19  C19       36.2820   34.8950   21.8310 C.ar  301  LGJ301      0.1057
     20  C20       34.6110   28.8150   15.4440 C.ar  301  LGJ301      0.1394
     21  C21       33.1070   27.7780   14.2230 C.ar  301  LGJ301      0.1741
     22  C22       38.8780   28.9660   11.5720 C.1   301  LGJ301      0.1218
     23  C23       38.7380   30.1840    9.7610 C.1   301  LGJ301      0.3285
     24  C24       35.3560   29.6420   16.4190 C.2   301  LGJ301      0.2869
     25  C25       34.1500   35.5420   23.5310 C.3   301  LGJ301      0.1816
     26  C26       31.8610   27.2770   13.6040 C.3   301  LGJ301      0.4366
     27  N27       34.2780   27.3450   13.7420 N.ar  301  LGJ301     -0.1610
     28  N28       40.0900   28.9300   11.1240 N.2   301  LGJ301     -0.0686
     29  N29       35.1710   27.9790   14.5030 N.ar  301  LGJ301     -0.2252
     30  N30       38.0050   29.6770   10.8090 N.2   301  LGJ301     -0.2602
     31  N31       40.0330   29.7040    9.9920 N.2   301  LGJ301     -0.0353
     32  N32       34.7260   30.7960   16.9360 N.am  301  LGJ301     -0.1719
     33  O33       38.3580   30.8980    8.8320 O.2   301  LGJ301     -0.1863
     34  O34       36.4830   29.3160   16.7620 O.2   301  LGJ301     -0.2663
     35  O35       33.7780   34.6220   21.0970 O.2   301  LGJ301     -0.1686
     36  O36       34.6910   33.0830   22.8820 O.2   301  LGJ301     -0.1686
     37  F37       34.6310   33.5280   16.6040 F     301  LGJ301     -0.2028
     38  F38       31.2780   28.1370   12.7110 F     301  LGJ301     -0.1643
     39  F39       32.0090   26.1490   12.8290 F     301  LGJ301     -0.1643
     40  F40       30.8880   27.0000   14.5180 F     301  LGJ301     -0.1643
     41  S41       34.6300   34.4100   22.2560 S.O2  301  LGJ301      0.0104
@<TRIPOS>BOND
     1    33    23    2
     2    23    31    2
     3    23    30    2
     4    31    28    1
     5    30    22    2
     6    28    22    2
     7    22    15    1
     8    38    26    1
     9    15    11   ar
    10    15     6   ar
    11    39    26    1
    12    11    16   ar
    13     6     3   ar
    14    26    21    1
    15    26    40    1
    16    27    21   ar
    17    27    29   ar
    18    16    29    1
    19    16     7   ar
    20    21    12   ar
    21    29    20   ar
    22     3     7   ar
    23    12    20   ar
    24    20    24    1
    25    24    34    2
    26    24    32   am
    27    37    18    1
    28    32    17    1
    29    18    17   ar
    30    18    10   ar
    31    17     8   ar
    32    10    13   ar
    33     8     5   ar
    34    13     5   ar
    35    13    14    1
    36     4    14   ar
    37     4     1   ar
    38    14    19   ar
    39    35    41    2
    40     1     2   ar
    41    19    41    1
    42    19     9   ar
    43    41    36    2
    44    41    25    1
    45     2     9   ar
