@<TRIPOS>MOLECULE
3kqc_LGK_A_1.pdb
 42 47 0 0 0
SMALL
GASTEIGER

@<TRIPOS>ATOM
      1  C1        38.8060   35.5110   21.2140 C.ar  301  LGK301      0.0001
      2  C2        38.1360   36.0380   22.3230 C.ar  301  LGK301      0.0013
      3  C3        38.6250   26.7870   14.6130 C.ar  301  LGK301      0.0023
      4  C4        38.1490   34.5930   20.3890 C.ar  301  LGK301      0.0013
      5  C5        36.2260   31.8540   20.0390 C.ar  301  LGK301      0.0013
      6  C6        35.6110   33.6900   18.5630 C.ar  301  LGK301      0.0013
      7  C7        39.1210   27.4680   13.4790 C.ar  301  LGK301      0.0112
      8  C8        37.2630   26.9000   14.9910 C.ar  301  LGK301      0.0192
      9  C9        35.6390   30.9320   19.1630 C.ar  301  LGK301      0.0149
     10  C10       35.0190   32.7720   17.6880 C.ar  301  LGK301      0.0149
     11  C11       36.8210   35.6390   22.5940 C.ar  301  LGK301      0.0183
     12  C12       36.8950   28.3470   13.0850 C.ar  301  LGK301      0.0302
     13  C13       36.2140   33.2320   19.7420 C.ar  301  LGK301      0.0013
     14  C14       36.8310   34.1920   20.6510 C.ar  301  LGK301      0.0171
     15  C15       38.2350   28.2420   12.7020 C.ar  301  LGK301      0.0780
     16  C16       33.1800   28.7690   15.1690 C.ar  301  LGK301      0.0251
     17  C17       36.4080   27.6800   14.2050 C.ar  301  LGK301      0.0836
     18  C18       35.0160   31.4010   17.9980 C.ar  301  LGK301      0.0542
     19  C19       36.1570   34.7170   21.7660 C.ar  301  LGK301      0.1057
     20  C20       34.5420   28.8260   15.3320 C.ar  301  LGK301      0.1339
     21  C21       32.9930   27.8120   14.1630 C.ar  301  LGK301      0.1702
     22  C22       38.6940   28.9320   11.5070 C.1   301  LGK301      0.1218
     23  C23       35.2320   29.6730   16.2750 C.2   301  LGK301      0.2702
     24  C24       38.5710   30.1520    9.6870 C.1   301  LGK301      0.3285
     25  C25       32.2690   29.6120   15.9800 C.3   301  LGK301      0.0514
     26  C26       33.0350   30.8460   16.5230 C.3   301  LGK301      0.1033
     27  C27       34.5260   32.6540   22.8680 C.3   301  LGK301      0.1816
     28  C28       31.7390   27.3570   13.5520 C.3   301  LGK301      0.4362
     29  N29       34.1410   27.3020   13.7130 N.ar  301  LGK301     -0.1613
     30  N30       39.9120   28.9120   11.0650 N.2   301  LGK301     -0.0686
     31  N31       35.0640   27.9060   14.4660 N.ar  301  LGK301     -0.2256
     32  N32       37.8180   29.6410   10.7330 N.2   301  LGK301     -0.2602
     33  N33       39.8640   29.6790    9.9300 N.2   301  LGK301     -0.0353
     34  N34       34.3990   30.5030   17.0540 N.am  301  LGK301     -0.2536
     35  O35       36.4410   29.6680   16.3690 O.2   301  LGK301     -0.2679
     36  O36       38.2220   30.8660    8.7490 O.2   301  LGK301     -0.1863
     37  O37       34.1140   35.1860   23.3000 O.2   301  LGK301     -0.1686
     38  O38       33.6650   34.2810   21.0050 O.2   301  LGK301     -0.1686
     39  F39       30.7510   27.0410   14.4530 F     301  LGK301     -0.1644
     40  F40       31.1870   28.2780   12.6900 F     301  LGK301     -0.1644
     41  F41       31.8960   26.2730   12.7270 F     301  LGK301     -0.1644
     42  S42       34.4900   34.3000   22.2030 S.O2  301  LGK301      0.0104
@<TRIPOS>BOND
     1    36    24    2
     2    24    33    2
     3    24    32    2
     4    33    30    1
     5    32    22    2
     6    30    22    2
     7    22    15    1
     8    40    28    1
     9    15    12   ar
    10    15     7   ar
    11    41    28    1
    12    12    17   ar
    13     7     3   ar
    14    28    21    1
    15    28    39    1
    16    29    21   ar
    17    29    31   ar
    18    21    16   ar
    19    17    31    1
    20    17     8   ar
    21    31    20   ar
    22     3     8   ar
    23    16    20   ar
    24    16    25    1
    25    20    23    1
    26    25    26    1
    27    23    35    2
    28    23    34   am
    29    26    34    1
    30    34    18    1
    31    10    18   ar
    32    10     6   ar
    33    18     9   ar
    34     6    13   ar
    35     9     5   ar
    36    13     5   ar
    37    13    14    1
    38     4    14   ar
    39     4     1   ar
    40    14    19   ar
    41    38    42    2
    42     1     2   ar
    43    19    42    1
    44    19    11   ar
    45    42    27    1
    46    42    37    2
    47     2    11   ar
