@<TRIPOS>MOLECULE
3kqd_LGL_A_1.pdb
 44 50 0 0 0
SMALL
GASTEIGER

@<TRIPOS>ATOM
      1  C1        39.8500   35.9380   20.7740 C.ar  301  LGL301     -0.0000
      2  C2        39.4740   36.0840   22.1150 C.ar  301  LGL301     -0.0003
      3  C3        39.4640   26.6230   14.6250 C.ar  301  LGL301      0.0023
      4  C4        39.1930   35.0090   19.9540 C.ar  301  LGL301     -0.0003
      5  C5        37.5380   31.8770   19.8600 C.ar  301  LGL301      0.0013
      6  C6        36.8010   33.7620   18.4920 C.ar  301  LGL301      0.0013
      7  C7        40.0280   27.2560   13.4960 C.ar  301  LGL301      0.0112
      8  C8        38.4400   35.2990   22.6360 C.ar  301  LGL301     -0.0029
      9  C9        38.1240   26.8420   14.9570 C.ar  301  LGL301      0.0192
     10  C10       36.8670   30.9950   19.0040 C.ar  301  LGL301      0.0149
     11  C11       36.1270   32.8810   17.6400 C.ar  301  LGL301      0.0149
     12  C12       37.9160   28.3310   13.0310 C.ar  301  LGL301      0.0302
     13  C13       37.5030   33.2660   19.6020 C.ar  301  LGL301     -0.0002
     14  C14       38.1680   34.2130   20.4770 C.ar  301  LGL301     -0.0027
     15  C15       39.2440   28.1090   12.7030 C.ar  301  LGL301      0.0780
     16  C16       34.1870   28.8980   15.0870 C.ar  301  LGL301      0.0251
     17  C17       37.7810   34.3690   21.8210 C.ar  301  LGL301     -0.0061
     18  C18       37.3590   27.6920   14.1430 C.ar  301  LGL301      0.0836
     19  C19       36.1450   31.5010   17.8980 C.ar  301  LGL301      0.0542
     20  C20       35.5540   28.9190   15.2480 C.ar  301  LGL301      0.1339
     21  C21       33.9720   27.9330   14.0830 C.ar  301  LGL301      0.1702
     22  C22       39.7880   28.7710   11.5370 C.1   301  LGL301      0.1218
     23  C23       36.2860   29.7550   16.1810 C.2   301  LGL301      0.2702
     24  C24       39.7140   30.0150    9.7430 C.1   301  LGL301      0.3285
     25  C25       33.3120   29.7780   15.8880 C.3   301  LGL301      0.0514
     26  C26       33.3850   35.0380   21.9440 C.3   301  LGL301      0.0188
     27  C27       33.1510   34.1470   23.1620 C.3   301  LGL301      0.0188
     28  C28       34.1170   30.9830   16.4440 C.3   301  LGL301      0.1033
     29  C29       34.7610   34.6310   21.4390 C.3   301  LGL301      0.0724
     30  C30       34.4960   33.4820   23.4480 C.3   301  LGL301      0.0724
     31  C31       36.6860   33.5470   22.4360 C.3   301  LGL301      0.0991
     32  C32       32.7130   27.5030   13.4560 C.3   301  LGL301      0.4362
     33  N33       35.1070   27.3860   13.6440 N.ar  301  LGL301     -0.1613
     34  N34       41.0210   28.7390   11.1370 N.2   301  LGL301     -0.0686
     35  N35       36.0340   27.9840   14.3910 N.ar  301  LGL301     -0.2256
     36  N36       38.9410   29.5060   10.7610 N.2   301  LGL301     -0.2602
     37  N37       41.0020   29.5170   10.0040 N.2   301  LGL301     -0.0353
     38  N38       35.4700   30.6210   16.9660 N.am  301  LGL301     -0.2536
     39  N39       35.4520   34.2990   22.6900 N.3   301  LGL301     -0.2690
     40  O40       37.5080   29.7120   16.2640 O.2   301  LGL301     -0.2679
     41  O41       39.3560   30.7370    8.8250 O.2   301  LGL301     -0.1863
     42  F42       32.8510   26.4510   12.5670 F     301  LGL301     -0.1644
     43  F43       31.7120   27.1720   14.3570 F     301  LGL301     -0.1644
     44  F44       32.2140   28.4790   12.6220 F     301  LGL301     -0.1644
@<TRIPOS>BOND
     1    41    24    2
     2    24    37    2
     3    24    36    2
     4    37    34    1
     5    36    22    2
     6    34    22    2
     7    22    15    1
     8    42    32    1
     9    44    32    1
    10    15    12   ar
    11    15     7   ar
    12    12    18   ar
    13    32    21    1
    14    32    43    1
    15     7     3   ar
    16    33    21   ar
    17    33    35   ar
    18    21    16   ar
    19    18    35    1
    20    18     9   ar
    21    35    20   ar
    22     3     9   ar
    23    16    20   ar
    24    16    25    1
    25    20    23    1
    26    25    28    1
    27    23    40    2
    28    23    38   am
    29    28    38    1
    30    38    19    1
    31    11    19   ar
    32    11     6   ar
    33    19    10   ar
    34     6    13   ar
    35    10     5   ar
    36    13     5   ar
    37    13    14    1
    38     4    14   ar
    39     4     1   ar
    40    14    17   ar
    41     1     2   ar
    42    29    26    1
    43    29    39    1
    44    17    31    1
    45    17     8   ar
    46    26    27    1
    47     2     8   ar
    48    31    39    1
    49    39    30    1
    50    27    30    1
