@<TRIPOS>MOLECULE
3kqe_LGM_A_1.pdb
 41 47 0 0 0
SMALL
GASTEIGER

@<TRIPOS>ATOM
      1  C1        38.8740   35.7590   21.0710 C.ar  301  LGM301     -0.0000
      2  C2        38.4390   35.9110   22.3910 C.ar  301  LGM301     -0.0003
      3  C3        38.7380   26.5980   14.5640 C.ar  301  LGM301      0.0023
      4  C4        38.2270   34.8540   20.2250 C.ar  301  LGM301     -0.0003
      5  C5        35.9220   33.6460   18.5920 C.ar  301  LGM301      0.0013
      6  C6        36.4800   31.7730   20.0630 C.ar  301  LGM301      0.0013
      7  C7        39.2600   27.2910   13.4580 C.ar  301  LGM301      0.0112
      8  C8        37.3760   35.1400   22.8730 C.ar  301  LGM301     -0.0029
      9  C9        37.4000   26.7590   14.9290 C.ar  301  LGM301      0.0192
     10  C10       35.3030   32.7570   17.7020 C.ar  301  LGM301      0.0149
     11  C11       35.8580   30.8850   19.1750 C.ar  301  LGM301      0.0149
     12  C12       37.0910   28.3000   13.0870 C.ar  301  LGM301      0.0302
     13  C13       36.5140   33.1530   19.7760 C.ar  301  LGM301     -0.0002
     14  C14       37.1570   34.0850   20.6960 C.ar  301  LGM301     -0.0027
     15  C15       38.4300   28.1540   12.7200 C.ar  301  LGM301      0.0780
     16  C16       33.3670   28.6980   15.2420 C.ar  301  LGM301      0.0170
     17  C17       36.7280   34.2320   22.0270 C.ar  301  LGM301     -0.0061
     18  C18       36.5760   27.6080   14.1810 C.ar  301  LGM301      0.0836
     19  C19       35.2620   31.3810   18.0010 C.ar  301  LGM301      0.0542
     20  C20       34.7360   28.7680   15.3600 C.ar  301  LGM301      0.1337
     21  C21       33.1450   27.7270   14.2450 C.ar  301  LGM301      0.0770
     22  C22       38.9280   28.8560   11.5570 C.1   301  LGM301      0.1218
     23  C23       35.4450   29.6380   16.2760 C.2   301  LGM301      0.2702
     24  C24       38.8130   30.1330    9.7910 C.1   301  LGM301      0.3285
     25  C25       32.4800   29.5390   16.0790 C.3   301  LGM301      0.0512
     26  C26       32.7070   34.3530   21.6370 C.3   301  LGM301      0.0188
     27  C27       32.2260   33.6230   22.8840 C.3   301  LGM301      0.0188
     28  C28       33.2330   30.7890   16.6070 C.3   301  LGM301      0.1033
     29  C29       33.9100   35.1420   22.1120 C.3   301  LGM301      0.0724
     30  C30       33.4570   33.4710   23.7700 C.3   301  LGM301      0.0724
     31  C31       31.8620   27.2480   13.7090 C.3   301  LGM301      0.0537
     32  C32       35.5870   33.4380   22.5960 C.3   301  LGM301      0.0991
     33  N33       34.2890   27.2090   13.7660 N.ar  301  LGM301     -0.1697
     34  N34       40.1340   28.8030   11.0880 N.2   301  LGM301     -0.0686
     35  N35       35.2360   27.8450   14.4760 N.ar  301  LGM301     -0.2258
     36  N36       38.0750   29.6210   10.8380 N.2   301  LGM301     -0.2602
     37  N37       40.0950   29.6050    9.9780 N.2   301  LGM301     -0.0353
     38  N38       34.6250   30.4800   17.0730 N.am  301  LGM301     -0.2536
     39  N39       34.5140   34.2820   23.1400 N.3   301  LGM301     -0.2690
     40  O40       36.6570   29.6560   16.3240 O.2   301  LGM301     -0.2679
     41  O41       38.4380   30.8830    8.8950 O.2   301  LGM301     -0.1863
@<TRIPOS>BOND
     1    41    24    2
     2    24    37    2
     3    24    36    2
     4    37    34    1
     5    36    22    2
     6    34    22    2
     7    22    15    1
     8    15    12   ar
     9    15     7   ar
    10    12    18   ar
    11     7     3   ar
    12    31    21    1
    13    33    21   ar
    14    33    35   ar
    15    18    35    1
    16    18     9   ar
    17    21    16   ar
    18    35    20   ar
    19     3     9   ar
    20    16    20   ar
    21    16    25    1
    22    20    23    1
    23    25    28    1
    24    23    40    2
    25    23    38   am
    26    28    38    1
    27    38    19    1
    28    10    19   ar
    29    10     5   ar
    30    19    11   ar
    31     5    13   ar
    32    11     6   ar
    33    13     6   ar
    34    13    14    1
    35     4    14   ar
    36     4     1   ar
    37    14    17   ar
    38     1     2   ar
    39    26    29    1
    40    26    27    1
    41    17    32    1
    42    17     8   ar
    43    29    39    1
    44     2     8   ar
    45    32    39    1
    46    27    30    1
    47    39    30    1
