@<TRIPOS>MOLECULE
3kqj_UD1_A_1.pdb
 39 41 0 0 0
SMALL
GASTEIGER

@<TRIPOS>ATOM
      1  C1'       63.1480  -41.9520  117.6370 C.3   450  UD1450      0.2633
      2  C2'       63.0760  -40.7350  118.5800 C.3   450  UD1450      0.1845
      3  C3'       61.8640  -39.9140  118.2370 C.3   450  UD1450      0.2094
      4  C4'       62.0060  -39.4590  116.7820 C.3   450  UD1450      0.2136
      5  C5'       62.0960  -40.6940  115.8580 C.3   450  UD1450      0.1834
      6  C6'       62.2780  -40.3030  114.3860 C.3   450  UD1450      0.2142
      7  C7'       63.8780  -41.7790  120.6540 C.2   450  UD1450      0.2420
      8  C8'       63.4760  -42.1730  122.0720 C.3   450  UD1450      0.0964
      9  N2'       62.9250  -41.1810  119.9640 N.am  450  UD1450     -0.1992
     10  O1'       61.9840  -42.7640  117.8690 O.3   450  UD1450     -0.2864
     11  O3'       61.8320  -38.7540  119.0920 O.3   450  UD1450     -0.2183
     12  O4'       60.8920  -38.6830  116.2070 O.3   450  UD1450     -0.2176
     13  O5'       63.2400  -41.4900  116.2850 O.3   450  UD1450     -0.3260
     14  O6'       63.4990  -39.4640  114.1000 O.3   450  UD1450     -0.2176
     15  O7'       64.9660  -41.9800  120.1430 O.2   450  UD1450     -0.2733
     16  N1        58.4550  -48.0400  112.7060 N.am  450  UD1450     -0.1766
     17  C2        57.9380  -49.2980  112.3580 C.1   450  UD1450      0.2845
     18  N3        58.3790  -50.3860  112.9870 N.2   450  UD1450     -0.2452
     19  C4        59.3160  -50.4050  113.9660 C.1   450  UD1450      0.2182
     20  C5        59.8620  -49.1030  114.3340 C.2   450  UD1450      0.1242
     21  C6        59.4200  -47.9610  113.7070 C.2   450  UD1450      0.0929
     22  O2        57.0580  -49.4280  111.4760 O.2   450  UD1450     -0.1918
     23  O4        59.6510  -51.4340  114.4830 O.2   450  UD1450     -0.2085
     24  C1B       57.9530  -46.7990  112.0400 C.3   450  UD1450      0.2401
     25  C2B       57.3250  -45.8030  112.9960 C.3   450  UD1450      0.2319
     26  O2'       56.0550  -46.2290  113.6990 O.3   450  UD1450     -0.2157
     27  C3B       57.4440  -44.4790  112.2150 C.3   450  UD1450      0.2158
     28  C4B       58.8600  -44.6950  111.5670 C.3   450  UD1450      0.1799
     29  O4B       59.0740  -46.1220  111.5050 O.3   450  UD1450     -0.3320
     30  O3B       56.2500  -44.4510  111.3360 O.3   450  UD1450     -0.2175
     31  C5B       60.0540  -44.1070  112.3710 C.3   450  UD1450      0.1813
     32  O5B       60.1450  -44.6310  113.6980 O.3   450  UD1450     -0.3112
     33  PA        61.5230  -44.7670  114.4100 P.3   450  UD1450      0.2189
     34  O1A       62.5440  -44.2610  113.5260 O.2   450  UD1450     -0.5170
     35  O2A       61.7810  -46.1770  114.7730 O.3   450  UD1450     -0.4371
     36  O3A       61.6430  -43.7950  115.5910 O.3   450  UD1450     -0.2703
     37  PB        61.7420  -44.1140  117.1260 P.3   450  UD1450      0.2208
     38  O1B       62.9020  -44.8770  117.3750 O.2   450  UD1450     -0.5170
     39  O2B       60.5050  -44.6970  117.6920 O.3   450  UD1450     -0.4371
@<TRIPOS>BOND
     1    30    27    1
     2    22    17    2
     3    29    28    1
     4    29    24    1
     5    28    27    1
     6    28    31    1
     7    24    16    1
     8    24    25    1
     9    27    25    1
    10    17    16   am
    11    17    18    2
    12    31    32    1
    13    16    21    1
    14    18    19    2
    15    25    26    1
    16    34    33    2
    17    32    33    1
    18    21    20    2
    19    19    20    1
    20    19    23    2
    21    14     6    1
    22     6     5    1
    23    33    35    1
    24    33    36    1
    25    36    37    1
    26     5    13    1
    27     5     4    1
    28    12     4    1
    29    13     1    1
    30     4     3    1
    31    37    38    2
    32    37    39    1
    33    37    10    1
    34     1    10    1
    35     1     2    1
    36     3     2    1
    37     3    11    1
    38     2     9    1
    39     9     7   am
    40    15     7    2
    41     7     8    1
