@<TRIPOS>MOLECULE
3kql_ADP_A_1.pdb
 27 29 0 0 0
SMALL
GASTEIGER

@<TRIPOS>ATOM
      1  PB       -12.1550    1.6500  -17.0960 P.3     2  ADP2        0.5373
      2  O1B      -13.4420    2.1530  -16.5830 O.3     2  ADP2       -0.1143
      3  O2B      -11.0670    2.6630  -17.0910 O.3     2  ADP2       -0.1143
      4  O3B      -12.3160    1.1330  -18.4680 O.2     2  ADP2       -0.2221
      5  PA       -11.2960   -0.9980  -16.3090 P.3     2  ADP2        0.2231
      6  O1A      -12.4850   -1.7210  -16.8350 O.3     2  ADP2       -0.4370
      7  O2A      -10.1510   -1.1140  -17.2250 O.2     2  ADP2       -0.5169
      8  O3A      -11.6640    0.5400  -16.1130 O.3     2  ADP2       -0.2261
      9  O5'      -10.8960   -1.4890  -14.8400 O.3     2  ADP2       -0.3111
     10  C5'      -11.8710   -1.4850  -13.7900 C.3     2  ADP2        0.1813
     11  C4'      -11.2300   -1.9400  -12.4690 C.3     2  ADP2        0.1821
     12  O4'      -10.8790   -3.3400  -12.5040 O.3     2  ADP2       -0.3135
     13  C3'       -9.9810   -1.1690  -12.0690 C.3     2  ADP2        0.2184
     14  O3'      -10.2480   -0.1440  -11.1130 O.3     2  ADP2       -0.2174
     15  C2'       -9.0520   -2.1970  -11.4580 C.3     2  ADP2        0.2570
     16  O2'       -9.0580   -2.1880  -10.0200 O.3     2  ADP2       -0.2130
     17  C1'       -9.5010   -3.5260  -12.0690 C.3     2  ADP2        0.3186
     18  N9        -8.5530   -3.9870  -13.1660 N.pl3   2  ADP2       -0.1439
     19  C8        -8.7510   -3.8700  -14.4960 C.3     2  ADP2        0.3377
     20  N7        -7.7040   -4.3850  -15.1560 N.2     2  ADP2       -0.2095
     21  C5        -6.8470   -4.8470  -14.2740 C.2     2  ADP2        0.2526
     22  C6        -5.5870   -5.4740  -14.3300 C.2     2  ADP2        0.4393
     23  N6        -5.0180   -5.7500  -15.5250 N.pl3   2  ADP2        0.2180
     24  N1        -4.9430   -5.8280  -13.1670 N.2     2  ADP2        0.0021
     25  C2        -5.4820   -5.5770  -11.9540 C.3     2  ADP2        0.5254
     26  N3        -6.6800   -4.9660  -11.8900 N.2     2  ADP2       -0.0055
     27  C4        -7.3870   -4.5910  -12.9890 C.2     2  ADP2        0.3518
@<TRIPOS>BOND
     1     4     1    2
     2     7     5    2
     3     1     3    1
     4     1     2    1
     5     1     8    1
     6     6     5    1
     7     5     8    1
     8     5     9    1
     9    23    22    1
    10    20    19    1
    11    20    21    2
    12     9    10    1
    13    19    18    1
    14    22    21    1
    15    22    24    2
    16    21    27    1
    17    10    11    1
    18    24    25    1
    19    18    27    1
    20    18    17    1
    21    27    26    2
    22    12    11    1
    23    12    17    1
    24    11    13    1
    25    17    15    1
    26    13    15    1
    27    13    14    1
    28    25    26    1
    29    15    16    1
