@<TRIPOS>MOLECULE
3kqm_SAH_A_1.pdb
 26 28 0 0 0
SMALL
GASTEIGER

@<TRIPOS>ATOM
      1  N         26.6830   53.0410   17.6920 N.3   2001  SAH2001    -0.1208
      2  CA        27.8590   52.1950   17.5020 C.3   2001  SAH2001     0.1952
      3  CB        28.1660   51.5460   18.8670 C.3   2001  SAH2001     0.0422
      4  CG        29.6180   51.8070   19.2700 C.3   2001  SAH2001     0.0597
      5  SD        30.0970   50.5140   20.4620 S.3   2001  SAH2001    -0.1375
      6  C         27.4670   51.0850   16.5060 C.2   2001  SAH2001     0.3819
      7  O         26.3130   50.8340   16.3550 O.co2 2001  SAH2001    -0.2441
      8  OXT       28.4210   50.1410   16.1040 O.co2 2001  SAH2001    -0.2441
      9  C5'       29.7420   51.0960   22.1510 C.3   2001  SAH2001     0.0899
     10  C4'       29.9120   52.6220   22.2350 C.3   2001  SAH2001     0.1630
     11  O4'       29.5430   53.1150   23.5620 O.3   2001  SAH2001    -0.3153
     12  C3'       31.3610   53.0770   21.9980 C.3   2001  SAH2001     0.2168
     13  O3'       31.3780   54.0780   21.0130 O.3   2001  SAH2001    -0.2175
     14  C2'       31.7340   53.6710   23.3320 C.3   2001  SAH2001     0.2569
     15  O2'       32.7890   54.6000   23.3050 O.3   2001  SAH2001    -0.2130
     16  C1'       30.4160   54.2590   23.8110 C.3   2001  SAH2001     0.3185
     17  N9        30.5020   54.4870   25.2420 N.pl3 2001  SAH2001    -0.1439
     18  C8        31.5390   53.9290   26.1630 C.3   2001  SAH2001     0.3377
     19  N7        31.2160   54.3660   27.5190 N.2   2001  SAH2001    -0.2095
     20  C5        29.9900   55.1720   27.4440 C.2   2001  SAH2001     0.2526
     21  C6        29.2030   55.8750   28.5070 C.2   2001  SAH2001     0.4393
     22  N6        29.6490   55.7950   29.8920 N.pl3 2001  SAH2001     0.2180
     23  N1        27.9990   56.6220   28.1390 N.2   2001  SAH2001     0.0021
     24  C2        27.5520   56.6880   26.7030 C.3   2001  SAH2001     0.5254
     25  N3        28.3480   56.0010   25.6430 N.2   2001  SAH2001    -0.0055
     26  C4        29.5540   55.2430   26.0270 C.2   2001  SAH2001     0.3518
@<TRIPOS>BOND
     1     8     6   ar
     2     7     6   ar
     3     6     2    1
     4     2     1    1
     5     2     3    1
     6     3     4    1
     7     4     5    1
     8     5     9    1
     9    13    12    1
    10    12    10    1
    11    12    14    1
    12     9    10    1
    13    10    11    1
    14    15    14    1
    15    14    16    1
    16    11    16    1
    17    16    17    1
    18    17    26    1
    19    17    18    1
    20    25    26    2
    21    25    24    1
    22    26    20    1
    23    18    19    1
    24    24    23    1
    25    20    19    2
    26    20    21    1
    27    23    21    2
    28    21    22    1
