@<TRIPOS>MOLECULE
3kqn_ADP_A_1.pdb
 27 29 0 0 0
SMALL
GASTEIGER

@<TRIPOS>ATOM
      1  PB        27.3190  -40.0470  -20.1060 P.3     2  ADP2        0.5373
      2  O1B       25.8580  -39.9660  -19.8450 O.3     2  ADP2       -0.1143
      3  O2B       28.0760  -40.6850  -19.0040 O.3     2  ADP2       -0.1143
      4  O3B       27.8760  -38.7160  -20.4060 O.2     2  ADP2       -0.2221
      5  PA        28.1000  -40.8200  -22.7320 P.3     2  ADP2        0.2231
      6  O1A       27.2670  -39.7750  -23.4130 O.2     2  ADP2       -0.5169
      7  O2A       29.5180  -40.4410  -22.6660 O.3     2  ADP2       -0.4370
      8  O3A       27.5290  -41.0150  -21.2890 O.3     2  ADP2       -0.2261
      9  O5'       27.9010  -42.2480  -23.3680 O.3     2  ADP2       -0.3111
     10  C5'       26.5850  -42.7670  -23.5180 C.3     2  ADP2        0.1813
     11  C4'       26.6590  -44.1540  -24.1320 C.3     2  ADP2        0.1821
     12  O4'       27.1070  -44.0740  -25.4960 O.3     2  ADP2       -0.3135
     13  C3'       27.5870  -45.1220  -23.4270 C.3     2  ADP2        0.2184
     14  O3'       26.9170  -45.9370  -22.4650 O.3     2  ADP2       -0.2174
     15  C2'       28.1460  -45.9830  -24.5410 C.3     2  ADP2        0.2570
     16  O2'       27.3320  -47.1540  -24.8210 O.3     2  ADP2       -0.2130
     17  C1'       28.1910  -45.0080  -25.7180 C.3     2  ADP2        0.3186
     18  N9        29.5400  -44.3220  -25.9320 N.pl3   2  ADP2       -0.1439
     19  C8        29.8740  -43.0580  -25.5920 C.3     2  ADP2        0.3377
     20  N7        31.1430  -42.8170  -25.9520 N.2     2  ADP2       -0.2095
     21  C5        31.6320  -43.8960  -26.5170 C.2     2  ADP2        0.2526
     22  C6        32.8650  -44.2650  -27.0900 C.2     2  ADP2        0.4393
     23  N6        33.8860  -43.3800  -27.1320 N.pl3   2  ADP2        0.2180
     24  N1        33.0340  -45.5330  -27.6110 N.2     2  ADP2        0.0021
     25  C2        32.0300  -46.4530  -27.5880 C.3     2  ADP2        0.5254
     26  N3        30.8430  -46.1050  -27.0410 N.2     2  ADP2       -0.0055
     27  C4        30.6030  -44.8720  -26.5060 C.2     2  ADP2        0.3518
@<TRIPOS>BOND
     1    24    25    1
     2    24    22    2
     3    25    26    1
     4    23    22    1
     5    22    21    1
     6    26    27    2
     7    21    27    1
     8    21    20    2
     9    27    18    1
    10    20    19    1
    11    18    17    1
    12    18    19    1
    13    17    12    1
    14    17    15    1
    15    12    11    1
    16    16    15    1
    17    15    13    1
    18    11    10    1
    19    11    13    1
    20    10     9    1
    21    13    14    1
    22     6     5    2
    23     9     5    1
    24     5     7    1
    25     5     8    1
    26     8     1    1
    27     4     1    2
    28     1     2    1
    29     1     3    1
