@<TRIPOS>MOLECULE
3kqo_ES4_A_1.pdb
 10 11 0 0 0
SMALL
GASTEIGER

@<TRIPOS>ATOM
      1  C10       27.6490   44.4100   16.3770 C.2   290  ES4290      0.1675
      2 CL01       26.4910   42.7050   14.5560 Cl    290  ES4290     -0.0594
      3  C02       27.3180   43.1000   16.0910 C.2   290  ES4290      0.1620
      4  N03       27.6150   42.1180   16.9760 N.2   290  ES4290     -0.2298
      5  C04       28.2490   42.4210   18.1600 C.3   290  ES4290      0.2618
      6  N05       28.5800   43.7290   18.4420 N.2   290  ES4290     -0.1916
      7  C06       28.2810   44.7140   17.5550 C.1   290  ES4290      0.0505
      8  N07       28.4880   46.0460   17.5880 N.2   290  ES4290     -0.1916
      9  C08       27.9840   46.5700   16.4330 C.3   290  ES4290      0.2617
     10  N09       27.4630   45.5520   15.6930 N.2   290  ES4290     -0.2311
@<TRIPOS>BOND
     1     2     3    1
     2    10     1    2
     3    10     9    1
     4     3     1    1
     5     3     4    2
     6     1     7    1
     7     9     8    1
     8     4     5    1
     9     7     8    2
    10     7     6    2
    11     5     6    1
