@<TRIPOS>MOLECULE
3kqo_SAH_A_1.pdb
 26 28 0 0 0
SMALL
GASTEIGER

@<TRIPOS>ATOM
      1  N         26.6050   52.9760   17.4590 N.3   2001  SAH2001    -0.1208
      2  CA        27.7690   52.1150   17.2860 C.3   2001  SAH2001     0.1952
      3  CB        28.0590   51.4080   18.6250 C.3   2001  SAH2001     0.0422
      4  CG        29.5250   51.6270   19.0000 C.3   2001  SAH2001     0.0597
      5  SD        29.9840   50.4260   20.2860 S.3   2001  SAH2001    -0.1375
      6  C         27.4030   51.0470   16.2490 C.2   2001  SAH2001     0.3819
      7  O         26.2590   50.8770   15.9850 O.co2 2001  SAH2001    -0.2441
      8  OXT       28.3330   50.0480   15.9460 O.co2 2001  SAH2001    -0.2441
      9  C5'       29.5260   51.0730   21.9160 C.3   2001  SAH2001     0.0899
     10  C4'       29.7190   52.5940   21.9450 C.3   2001  SAH2001     0.1630
     11  O4'       29.3060   53.1100   23.2530 O.3   2001  SAH2001    -0.3153
     12  C3'       31.1880   52.9990   21.7370 C.3   2001  SAH2001     0.2168
     13  O3'       31.2830   53.9860   20.7350 O.3   2001  SAH2001    -0.2175
     14  C2'       31.5270   53.5800   23.0830 C.3   2001  SAH2001     0.2569
     15  O2'       32.6130   54.4660   23.1150 O.3   2001  SAH2001    -0.2130
     16  C1'       30.2200   54.2130   23.5280 C.3   2001  SAH2001     0.3185
     17  N9        30.2980   54.4340   24.9580 N.pl3 2001  SAH2001    -0.1439
     18  C8        31.3260   53.8500   25.8650 C.3   2001  SAH2001     0.3377
     19  N7        31.0160   54.2910   27.2170 N.2   2001  SAH2001    -0.2095
     20  C5        29.8110   55.1270   27.1640 C.2   2001  SAH2001     0.2526
     21  C6        29.0450   55.8400   28.2400 C.2   2001  SAH2001     0.4393
     22  N6        29.4860   55.7530   29.6290 N.pl3 2001  SAH2001     0.2180
     23  N1        27.8570   56.6080   27.8780 N.2   2001  SAH2001     0.0021
     24  C2        27.4010   56.6890   26.4480 C.3   2001  SAH2001     0.5254
     25  N3        28.1720   55.9900   25.3890 N.2   2001  SAH2001    -0.0055
     26  C4        29.3690   55.2130   25.7530 C.2   2001  SAH2001     0.3518
@<TRIPOS>BOND
     1     8     6   ar
     2     7     6   ar
     3     6     2    1
     4     2     1    1
     5     2     3    1
     6     3     4    1
     7     4     5    1
     8     5     9    1
     9    13    12    1
    10    12    10    1
    11    12    14    1
    12     9    10    1
    13    10    11    1
    14    14    15    1
    15    14    16    1
    16    11    16    1
    17    16    17    1
    18    17    26    1
    19    17    18    1
    20    25    26    2
    21    25    24    1
    22    26    20    1
    23    18    19    1
    24    24    23    1
    25    20    19    2
    26    20    21    1
    27    23    21    2
    28    21    22    1
