@<TRIPOS>MOLECULE
3kqp_SAH_A_1.pdb
 26 28 0 0 0
SMALL
GASTEIGER

@<TRIPOS>ATOM
      1  N         26.7460   53.2160   17.8630 N.3   2001  SAH2001    -0.1208
      2  CA        27.8800   52.3820   17.4790 C.3   2001  SAH2001     0.1952
      3  CB        28.3140   51.6010   18.7330 C.3   2001  SAH2001     0.0422
      4  CG        29.7160   52.0390   19.1550 C.3   2001  SAH2001     0.0597
      5  SD        30.2990   50.8070   20.3590 S.3   2001  SAH2001    -0.1375
      6  C         27.4240   51.3620   16.4200 C.2   2001  SAH2001     0.3819
      7  O         26.2640   51.2050   16.2190 O.co2 2001  SAH2001    -0.2441
      8  OXT       28.3090   50.3400   16.0670 O.co2 2001  SAH2001    -0.2441
      9  C5'       29.8380   51.3330   22.0370 C.3   2001  SAH2001     0.0899
     10  C4'       30.0320   52.8500   22.1770 C.3   2001  SAH2001     0.1630
     11  O4'       29.6580   53.2880   23.5210 O.3   2001  SAH2001    -0.3153
     12  C3'       31.4970   53.2770   21.9630 C.3   2001  SAH2001     0.2168
     13  O3'       31.5580   54.3010   21.0010 O.3   2001  SAH2001    -0.2175
     14  C2'       31.8830   53.8050   23.3190 C.3   2001  SAH2001     0.2569
     15  O2'       32.9480   54.7220   23.3350 O.3   2001  SAH2001    -0.2130
     16  C1'       30.5710   54.3870   23.8200 C.3   2001  SAH2001     0.3185
     17  N9        30.6510   54.5690   25.2530 N.pl3 2001  SAH2001    -0.1439
     18  C8        31.6710   53.9610   26.1550 C.3   2001  SAH2001     0.3377
     19  N7        31.3600   54.3820   27.5130 N.2   2001  SAH2001    -0.2095
     20  C5        30.1620   55.2310   27.4650 C.2   2001  SAH2001     0.2526
     21  C6        29.3980   55.9300   28.5480 C.2   2001  SAH2001     0.4393
     22  N6        29.8370   55.7920   29.9330 N.pl3 2001  SAH2001     0.2180
     23  N1        28.2200   56.7210   28.2000 N.2   2001  SAH2001     0.0021
     24  C2        27.7710   56.8400   26.7670 C.3   2001  SAH2001     0.5254
     25  N3        28.5370   56.1480   25.6920 N.2   2001  SAH2001    -0.0055
     26  C4        29.7240   55.3460   26.0520 C.2   2001  SAH2001     0.3518
@<TRIPOS>BOND
     1     8     6   ar
     2     7     6   ar
     3     6     2    1
     4     2     1    1
     5     2     3    1
     6     3     4    1
     7     4     5    1
     8     5     9    1
     9    13    12    1
    10    12    10    1
    11    12    14    1
    12     9    10    1
    13    10    11    1
    14    14    15    1
    15    14    16    1
    16    11    16    1
    17    16    17    1
    18    17    26    1
    19    17    18    1
    20    25    26    2
    21    25    24    1
    22    26    20    1
    23    18    19    1
    24    24    23    1
    25    20    19    2
    26    20    21    1
    27    23    21    2
    28    21    22    1
