@<TRIPOS>MOLECULE
3kqp_ES5_A_1.pdb
 11 12 0 0 0
SMALL
GASTEIGER

@<TRIPOS>ATOM
      1  C10       27.9580   43.4180   16.8940 C.ar  290  ES5290     -0.0025
      2  N01       29.9310   44.6430   19.9000 N.pl3 290  ES5290     -0.1327
      3  C02       29.1590   44.6320   18.6600 C.2   290  ES5290      0.0673
      4  C03       28.8320   45.8580   18.0270 C.2   290  ES5290     -0.0058
      5  C04       28.0760   45.8670   16.8330 C.3   290  ES5290      0.0725
      6  C05       27.6340   44.6440   16.2670 C.ar  290  ES5290      0.0598
      7  N06       26.8880   44.6530   15.1040 N.ar  290  ES5290     -0.2481
      8  C07       26.4620   43.4610   14.5470 C.ar  290  ES5290      0.0984
      9  C08       26.7840   42.2290   15.1650 C.ar  290  ES5290      0.0203
     10  C09       27.5280   42.2220   16.3320 C.ar  290  ES5290     -0.0011
     11  C11       28.7250   43.4070   18.0910 C.3   290  ES5290      0.0719
@<TRIPOS>BOND
     1     8     7   ar
     2     8     9   ar
     3     7     6   ar
     4     9    10   ar
     5     6     5    1
     6     6     1   ar
     7    10     1   ar
     8     5     4    1
     9     1    11    1
    10     4     3    2
    11    11     3    1
    12     3     2    1
