@<TRIPOS>MOLECULE
3kqq_ES6_A_1.pdb
 10 10 0 0 0
SMALL
GASTEIGER

@<TRIPOS>ATOM
      1  O01       28.9190   46.7350   16.9160 O.co2 290  ES6290     -0.2397
      2  C02       28.6210   45.6290   17.3320 C.2   290  ES6290      0.3986
      3  O03       28.9960   45.1890   18.5250 O.co2 290  ES6290     -0.2397
      4  C04       27.7800   44.7090   16.4430 C.2   290  ES6290      0.1626
      5  C05       27.2310   45.1910   15.2660 C.2   290  ES6290      0.0200
      6  C06       26.4730   44.3430   14.4760 C.2   290  ES6290      0.0224
      7  C07       26.2730   43.0120   14.8780 C.2   290  ES6290      0.1111
      8  N08       26.8140   42.5560   16.0290 N.2   290  ES6290     -0.1745
      9  C09       27.5630   43.3750   16.8180 C.1   290  ES6290      0.1610
     10  O10       28.1080   42.8900   17.9920 O.2   290  ES6290     -0.2217
@<TRIPOS>BOND
     1     6     7    2
     2     6     5    1
     3     7     8    1
     4     5     4    2
     5     8     9    2
     6     4     9    1
     7     4     2    1
     8     9    10    2
     9     1     2   ar
    10     2     3   ar
