@<TRIPOS>MOLECULE
3kqq_SAH_A_1.pdb
 26 28 0 0 0
SMALL
GASTEIGER

@<TRIPOS>ATOM
      1  N         26.9900   53.1330   17.9470 N.3   2001  SAH2001    -0.1208
      2  CA        28.0960   52.2660   17.5490 C.3   2001  SAH2001     0.1952
      3  CB        28.4450   51.4480   18.7950 C.3   2001  SAH2001     0.0422
      4  CG        29.7740   51.9120   19.3890 C.3   2001  SAH2001     0.0597
      5  SD        30.2420   50.6330   20.5940 S.3   2001  SAH2001    -0.1375
      6  C         27.6190   51.2410   16.5000 C.2   2001  SAH2001     0.3819
      7  O         26.4560   51.0740   16.3040 O.co2 2001  SAH2001    -0.2441
      8  OXT       28.4770   50.1820   16.2070 O.co2 2001  SAH2001    -0.2441
      9  C5'       29.9090   51.2530   22.2680 C.3   2001  SAH2001     0.0899
     10  C4'       30.1070   52.7770   22.3110 C.3   2001  SAH2001     0.1630
     11  O4'       29.7360   53.2730   23.6330 O.3   2001  SAH2001    -0.3153
     12  C3'       31.5710   53.1990   22.0680 C.3   2001  SAH2001     0.2168
     13  O3'       31.6590   54.1420   21.0230 O.3   2001  SAH2001    -0.2175
     14  C2'       31.9490   53.8110   23.3900 C.3   2001  SAH2001     0.2569
     15  O2'       33.0330   54.7120   23.3790 O.3   2001  SAH2001    -0.2130
     16  C1'       30.6350   54.3940   23.8900 C.3   2001  SAH2001     0.3185
     17  N9        30.7280   54.6020   25.3230 N.pl3 2001  SAH2001    -0.1439
     18  C8        31.7730   54.0270   26.2300 C.3   2001  SAH2001     0.3377
     19  N7        31.4640   54.4550   27.5890 N.2   2001  SAH2001    -0.2095
     20  C5        30.2370   55.2630   27.5320 C.2   2001  SAH2001     0.2526
     21  C6        29.4560   55.9580   28.6030 C.2   2001  SAH2001     0.4393
     22  N6        29.9200   55.8720   29.9750 N.pl3 2001  SAH2001     0.2180
     23  N1        28.2510   56.7110   28.2520 N.2   2001  SAH2001     0.0021
     24  C2        27.7900   56.7970   26.8190 C.3   2001  SAH2001     0.5254
     25  N3        28.5760   56.1170   25.7540 N.2   2001  SAH2001    -0.0055
     26  C4        29.7850   55.3520   26.1180 C.2   2001  SAH2001     0.3518
@<TRIPOS>BOND
     1     8     6   ar
     2     7     6   ar
     3     6     2    1
     4     2     1    1
     5     2     3    1
     6     3     4    1
     7     4     5    1
     8     5     9    1
     9    13    12    1
    10    12    10    1
    11    12    14    1
    12     9    10    1
    13    10    11    1
    14    15    14    1
    15    14    16    1
    16    11    16    1
    17    16    17    1
    18    17    26    1
    19    17    18    1
    20    25    26    2
    21    25    24    1
    22    26    20    1
    23    18    19    1
    24    24    23    1
    25    20    19    2
    26    20    21    1
    27    23    21    2
    28    21    22    1
