@<TRIPOS>MOLECULE
3kqs_AX7_A_1.pdb
 10 11 0 0 0
SMALL
GASTEIGER

@<TRIPOS>ATOM
      1  NAF       28.2530   46.1410   15.8830 N.2   290  AX7290     -0.3232
      2  CAI       27.8390   44.8770   15.2060 C.ar  290  AX7290      0.1754
      3  CAD       27.4580   44.6050   13.8530 C.ar  290  AX7290      0.0357
      4  CAB       27.0940   43.2620   13.4640 C.ar  290  AX7290      0.0028
      5  CAC       27.1210   42.1900   14.4390 C.ar  290  AX7290      0.0028
      6  CAE       27.5040   42.4690   15.8000 C.ar  290  AX7290      0.0357
      7  CAJ       27.8610   43.8010   16.1890 C.ar  290  AX7290      0.1754
      8  NAG       28.3070   44.3920   17.5220 N.2   290  AX7290     -0.3232
      9  CAH       28.5420   45.8300   17.3210 C.1   290  AX7290      0.2416
     10  NAA       28.9780   46.7740   18.3420 N.pl3 290  AX7290     -0.0232
@<TRIPOS>BOND
     1     4     3   ar
     2     4     5   ar
     3     3     2   ar
     4     5     6   ar
     5     2     1    2
     6     2     7   ar
     7     6     7   ar
     8     1     9    2
     9     7     8    2
    10     9     8    2
    11     9    10    1
