@<TRIPOS>MOLECULE
3kqs_SAH_A_1.pdb
 26 28 0 0 0
SMALL
GASTEIGER

@<TRIPOS>ATOM
      1  N         26.5530   53.1910   17.7860 N.3   2001  SAH2001    -0.1208
      2  CA        27.7750   52.5890   17.2610 C.3   2001  SAH2001     0.1952
      3  CB        28.8170   52.3830   18.3890 C.3   2001  SAH2001     0.0422
      4  CG        28.4440   51.2150   19.3200 C.3   2001  SAH2001     0.0597
      5  SD        29.8610   50.8180   20.4070 S.3   2001  SAH2001    -0.1375
      6  C         27.4320   51.2740   16.5410 C.2   2001  SAH2001     0.3819
      7  O         26.3380   51.1190   16.0890 O.co2 2001  SAH2001    -0.2441
      8  OXT       28.4930   50.5260   16.0180 O.co2 2001  SAH2001    -0.2441
      9  C5'       29.5120   51.4030   22.0930 C.3   2001  SAH2001     0.0899
     10  C4'       29.7300   52.9220   22.1750 C.3   2001  SAH2001     0.1630
     11  O4'       29.3270   53.3960   23.4960 O.3   2001  SAH2001    -0.3153
     12  C3'       31.1940   53.3460   21.9780 C.3   2001  SAH2001     0.2168
     13  O3'       31.2470   54.3040   20.9450 O.3   2001  SAH2001    -0.2175
     14  C2'       31.5460   53.9780   23.3080 C.3   2001  SAH2001     0.2569
     15  O2'       32.4810   55.0200   23.1730 O.3   2001  SAH2001    -0.2130
     16  C1'       30.2040   54.5250   23.7670 C.3   2001  SAH2001     0.3185
     17  N9        30.2200   54.7220   25.2050 N.pl3 2001  SAH2001    -0.1439
     18  C8        31.1930   54.1730   26.1960 C.3   2001  SAH2001     0.3377
     19  N7        30.7860   54.6530   27.5160 N.2   2001  SAH2001    -0.2095
     20  C5        29.5780   55.4820   27.3480 C.2   2001  SAH2001     0.2526
     21  C6        28.7150   56.2310   28.3200 C.2   2001  SAH2001     0.4393
     22  N6        29.0170   56.2020   29.7440 N.pl3 2001  SAH2001     0.2180
     23  N1        27.5590   56.9740   27.8300 N.2   2001  SAH2001     0.0021
     24  C2        27.2210   57.0030   26.3710 C.3   2001  SAH2001     0.5254
     25  N3        28.0730   56.2630   25.4040 N.2   2001  SAH2001    -0.0055
     26  C4        29.2380   55.5120   25.9030 C.2   2001  SAH2001     0.3518
@<TRIPOS>BOND
     1     8     6   ar
     2     7     6   ar
     3     6     2    1
     4     2     1    1
     5     2     3    1
     6     3     4    1
     7     4     5    1
     8     5     9    1
     9    13    12    1
    10    12    10    1
    11    12    14    1
    12     9    10    1
    13    10    11    1
    14    15    14    1
    15    14    16    1
    16    11    16    1
    17    16    17    1
    18    17    26    1
    19    17    18    1
    20    25    26    2
    21    25    24    1
    22    26    20    1
    23    18    19    1
    24    24    23    1
    25    20    19    2
    26    20    21    1
    27    23    21    2
    28    21    22    1
