@<TRIPOS>MOLECULE
3kqt_SAH_A_1.pdb
 26 28 0 0 0
SMALL
GASTEIGER

@<TRIPOS>ATOM
      1  N         26.3370   53.0400   17.8470 N.3   2001  SAH2001    -0.1208
      2  CA        27.5530   52.3830   17.3650 C.3   2001  SAH2001     0.1952
      3  CB        28.5620   52.1770   18.5240 C.3   2001  SAH2001     0.0422
      4  CG        28.3180   50.8540   19.2710 C.3   2001  SAH2001     0.0597
      5  SD        29.6870   50.5070   20.4410 S.3   2001  SAH2001    -0.1375
      6  C         27.1890   51.0450   16.7020 C.2   2001  SAH2001     0.3819
      7  O         26.0870   50.8680   16.2850 O.co2 2001  SAH2001    -0.2441
      8  OXT       28.2330   50.3000   16.1560 O.co2 2001  SAH2001    -0.2441
      9  C5'       29.2390   51.1530   22.0850 C.3   2001  SAH2001     0.0899
     10  C4'       29.4630   52.6740   22.1580 C.3   2001  SAH2001     0.1630
     11  O4'       29.0540   53.2270   23.4520 O.3   2001  SAH2001    -0.3153
     12  C3'       30.9200   53.1000   21.9190 C.3   2001  SAH2001     0.2168
     13  O3'       30.9310   54.0800   20.9080 O.3   2001  SAH2001    -0.2175
     14  C2'       31.2720   53.7150   23.2540 C.3   2001  SAH2001     0.2569
     15  O2'       32.3520   54.6160   23.2800 O.3   2001  SAH2001    -0.2130
     16  C1'       29.9620   54.3470   23.6930 C.3   2001  SAH2001     0.3185
     17  N9        30.0550   54.5700   25.1170 N.pl3 2001  SAH2001    -0.1439
     18  C8        31.0880   53.9930   26.0230 C.3   2001  SAH2001     0.3377
     19  N7        30.7580   54.4220   27.3740 N.2   2001  SAH2001    -0.2095
     20  C5        29.5380   55.2420   27.3180 C.2   2001  SAH2001     0.2526
     21  C6        28.7430   55.9420   28.3890 C.2   2001  SAH2001     0.4393
     22  N6        29.1390   55.8380   29.7900 N.pl3 2001  SAH2001     0.2180
     23  N1        27.5480   56.6900   28.0190 N.2   2001  SAH2001     0.0021
     24  C2        27.1070   56.7710   26.5790 C.3   2001  SAH2001     0.5254
     25  N3        27.9000   56.0850   25.5250 N.2   2001  SAH2001    -0.0055
     26  C4        29.1040   55.3230   25.9050 C.2   2001  SAH2001     0.3518
@<TRIPOS>BOND
     1     8     6   ar
     2     7     6   ar
     3     6     2    1
     4     2     1    1
     5     2     3    1
     6     3     4    1
     7     4     5    1
     8     5     9    1
     9    13    12    1
    10    12    10    1
    11    12    14    1
    12     9    10    1
    13    10    11    1
    14    14    15    1
    15    14    16    1
    16    11    16    1
    17    16    17    1
    18    17    26    1
    19    17    18    1
    20    25    26    2
    21    25    24    1
    22    26    20    1
    23    18    19    1
    24    24    23    1
    25    20    19    2
    26    20    21    1
    27    23    21    2
    28    21    22    1
