@<TRIPOS>MOLECULE
3kqt_ES7_A_1.pdb
 11 12 0 0 0
SMALL
GASTEIGER

@<TRIPOS>ATOM
      1  C10       28.2460   45.4760   17.3130 C.cat 290  ES7290      0.2815
      2  C01       27.7380   43.4010   18.7370 C.3   290  ES7290      0.1212
      3  N02       27.8390   44.1530   17.4690 N.pl3 290  ES7290     -0.2444
      4  C03       27.5190   43.6600   16.2080 C.2   290  ES7290      0.0806
      5  C04       27.0480   42.3590   15.7660 C.2   290  ES7290      0.0169
      6  C05       26.7960   42.1140   14.3610 C.2   290  ES7290     -0.0028
      7  C06       27.0180   43.1660   13.4020 C.2   290  ES7290     -0.0186
      8  C07       27.4930   44.4620   13.8350 C.3   290  ES7290      0.0863
      9  C08       27.7390   44.7080   15.2520 C.2   290  ES7290      0.1300
     10  N09       28.1730   45.8100   15.9180 N.2   290  ES7290     -0.3732
     11  N11       28.6550   46.3650   18.3690 N.pl3 290  ES7290     -0.0777
@<TRIPOS>BOND
     1     7     8    1
     2     7     6    2
     3     8     9    1
     4     6     5    1
     5     9    10    2
     6     9     4    1
     7     5     4    2
     8    10     1    2
     9     4     3    1
    10     1     3    1
    11     1    11    1
    12     3     2    1
