@<TRIPOS>MOLECULE
3kqu_ADP_A_1.pdb
 27 29 0 0 0
SMALL
GASTEIGER

@<TRIPOS>ATOM
      1  PB        13.9610    7.8650    7.6360 P.3     2  ADP2        0.5373
      2  O1B       14.6110    9.1520    7.2580 O.3     2  ADP2       -0.1143
      3  O2B       14.0720    6.8260    6.5860 O.2     2  ADP2       -0.2221
      4  O3B       12.5360    8.0950    7.9620 O.3     2  ADP2       -0.1143
      5  PA        14.3220    6.8500   10.3080 P.3     2  ADP2        0.2231
      6  O1A       13.7690    8.0520   10.9680 O.3     2  ADP2       -0.4370
      7  O2A       13.3430    5.7650   10.2720 O.2     2  ADP2       -0.5169
      8  O3A       14.7450    7.2440    8.8320 O.3     2  ADP2       -0.2261
      9  O5'       15.6740    6.3240   10.9500 O.3     2  ADP2       -0.3111
     10  C5'       16.7770    7.1940   11.1040 C.3     2  ADP2        0.1813
     11  C4'       17.9280    6.3970   11.6910 C.3     2  ADP2        0.1821
     12  O4'       17.6220    6.0060   13.0360 O.3     2  ADP2       -0.3135
     13  C3'       18.2870    5.1360   10.9330 C.3     2  ADP2        0.2184
     14  O3'       19.3900    5.3180   10.0380 O.3     2  ADP2       -0.2174
     15  C2'       18.6480    4.1280   12.0040 C.3     2  ADP2        0.2570
     16  O2'       20.0650    4.0380   12.2540 O.3     2  ADP2       -0.2130
     17  C1'       17.8630    4.5980   13.2140 C.3     2  ADP2        0.3186
     18  N9        16.5980    3.8180   13.4630 N.pl3   2  ADP2       -0.1439
     19  C8        15.3460    4.2530   13.2650 C.3     2  ADP2        0.3377
     20  N7        14.4840    3.2950   13.6070 N.2     2  ADP2       -0.2095
     21  C5        15.1610    2.2410   14.0060 C.2     2  ADP2        0.2526
     22  C6        14.8300    0.9730   14.4980 C.2     2  ADP2        0.4393
     23  N6        13.5350    0.6120   14.5910 N.pl3   2  ADP2        0.2180
     24  N1        15.8290    0.0890   14.8520 N.2     2  ADP2        0.0021
     25  C2        17.1470    0.4280   14.7640 C.3     2  ADP2        0.5254
     26  N3        17.4710    1.6580   14.3010 N.2     2  ADP2       -0.0055
     27  C4        16.5340    2.5780   13.9290 C.2     2  ADP2        0.3518
@<TRIPOS>BOND
     1     3     1    2
     2     2     1    1
     3     1     4    1
     4     1     8    1
     5     8     5    1
     6    14    13    1
     7     7     5    2
     8     5     9    1
     9     5     6    1
    10    13    11    1
    11    13    15    1
    12     9    10    1
    13    10    11    1
    14    11    12    1
    15    15    16    1
    16    15    17    1
    17    12    17    1
    18    17    18    1
    19    19    18    1
    20    19    20    1
    21    18    27    1
    22    20    21    2
    23    27    21    1
    24    27    26    2
    25    21    22    1
    26    26    25    1
    27    22    23    1
    28    22    24    2
    29    25    24    1
