@<TRIPOS>MOLECULE
3kqv_SAH_A_1.pdb
 26 28 0 0 0
SMALL
GASTEIGER

@<TRIPOS>ATOM
      1  N         27.0150   52.9420   18.0240 N.3   2001  SAH2001    -0.1208
      2  CA        28.0890   52.3740   17.2150 C.3   2001  SAH2001     0.1952
      3  CB        29.2900   51.9490   18.0780 C.3   2001  SAH2001     0.0422
      4  CG        28.8450   51.2920   19.3940 C.3   2001  SAH2001     0.0597
      5  SD        30.3420   50.8670   20.3540 S.3   2001  SAH2001    -0.1375
      6  C         27.5920   51.1600   16.4170 C.2   2001  SAH2001     0.3819
      7  O         26.4520   51.0650   16.0920 O.co2 2001  SAH2001    -0.2441
      8  OXT       28.5340   50.2460   15.9400 O.co2 2001  SAH2001    -0.2441
      9  C5'       30.0430   51.3180   22.0880 C.3   2001  SAH2001     0.0899
     10  C4'       30.2710   52.8290   22.2490 C.3   2001  SAH2001     0.1630
     11  O4'       29.8510   53.2940   23.5680 O.3   2001  SAH2001    -0.3153
     12  C3'       31.7490   53.2150   22.0990 C.3   2001  SAH2001     0.2168
     13  O3'       31.8720   54.1720   21.0770 O.3   2001  SAH2001    -0.2175
     14  C2'       32.0710   53.8440   23.4310 C.3   2001  SAH2001     0.2569
     15  O2'       33.0620   54.8340   23.3210 O.3   2001  SAH2001    -0.2130
     16  C1'       30.7290   54.4290   23.8450 C.3   2001  SAH2001     0.3185
     17  N9        30.7820   54.6280   25.2780 N.pl3 2001  SAH2001    -0.1439
     18  C8        31.8100   54.0480   26.1910 C.3   2001  SAH2001     0.3377
     19  N7        31.4960   54.4930   27.5370 N.2   2001  SAH2001    -0.2095
     20  C5        30.2940   55.3370   27.4750 C.2   2001  SAH2001     0.2526
     21  C6        29.5260   56.0520   28.5480 C.2   2001  SAH2001     0.4393
     22  N6        29.9690   55.9560   29.9340 N.pl3 2001  SAH2001     0.2180
     23  N1        28.3430   56.8320   28.1920 N.2   2001  SAH2001     0.0021
     24  C2        27.8970   56.9160   26.7570 C.3   2001  SAH2001     0.5254
     25  N3        28.6590   56.2040   25.6970 N.2   2001  SAH2001    -0.0055
     26  C4        29.8520   55.4160   26.0640 C.2   2001  SAH2001     0.3518
@<TRIPOS>BOND
     1     8     6   ar
     2     7     6   ar
     3     6     2    1
     4     2     1    1
     5     2     3    1
     6     3     4    1
     7     4     5    1
     8     5     9    1
     9    13    12    1
    10     9    10    1
    11    12    10    1
    12    12    14    1
    13    10    11    1
    14    15    14    1
    15    14    16    1
    16    11    16    1
    17    16    17    1
    18    17    26    1
    19    17    18    1
    20    25    26    2
    21    25    24    1
    22    26    20    1
    23    18    19    1
    24    24    23    1
    25    20    19    2
    26    20    21    1
    27    23    21    2
    28    21    22    1
