@<TRIPOS>MOLECULE
3kqw_SAH_A_1.pdb
 26 28 0 0 0
SMALL
GASTEIGER

@<TRIPOS>ATOM
      1  N         26.4300   53.2300   17.6690 N.3   2001  SAH2001    -0.1208
      2  CA        27.6620   52.4630   17.4570 C.3   2001  SAH2001     0.1952
      3  CB        28.0380   51.7620   18.7730 C.3   2001  SAH2001     0.0422
      4  CG        29.4810   52.0980   19.1550 C.3   2001  SAH2001     0.0597
      5  SD        30.0760   50.9090   20.4040 S.3   2001  SAH2001    -0.1375
      6  C         27.3700   51.3370   16.4610 C.2   2001  SAH2001     0.3819
      7  O         26.2360   51.0970   16.1850 O.co2 2001  SAH2001    -0.2441
      8  OXT       28.3300   50.3260   16.3200 O.co2 2001  SAH2001    -0.2441
      9  C5'       29.6060   51.4520   22.0650 C.3   2001  SAH2001     0.0899
     10  C4'       29.8140   52.9660   22.2020 C.3   2001  SAH2001     0.1630
     11  O4'       29.4620   53.3800   23.5630 O.3   2001  SAH2001    -0.3153
     12  C3'       31.2760   53.3980   21.9730 C.3   2001  SAH2001     0.2168
     13  O3'       31.3670   54.3550   20.9390 O.3   2001  SAH2001    -0.2175
     14  C2'       31.6380   53.9950   23.3130 C.3   2001  SAH2001     0.2569
     15  O2'       32.6880   54.9280   23.2820 O.3   2001  SAH2001    -0.2130
     16  C1'       30.3110   54.5360   23.8440 C.3   2001  SAH2001     0.3185
     17  N9        30.3610   54.7490   25.2910 N.pl3 2001  SAH2001    -0.1439
     18  C8        31.3350   54.1290   26.2360 C.3   2001  SAH2001     0.3377
     19  N7        30.9900   54.5730   27.5770 N.2   2001  SAH2001    -0.2095
     20  C5        29.8090   55.4470   27.4890 C.2   2001  SAH2001     0.2526
     21  C6        29.0250   56.1840   28.5450 C.2   2001  SAH2001     0.4393
     22  N6        29.4130   56.0930   29.9480 N.pl3 2001  SAH2001     0.2180
     23  N1        27.8700   56.9860   28.1510 N.2   2001  SAH2001     0.0021
     24  C2        27.4740   57.0810   26.7010 C.3   2001  SAH2001     0.5254
     25  N3        28.2630   56.3610   25.6670 N.2   2001  SAH2001    -0.0055
     26  C4        29.4220   55.5450   26.0660 C.2   2001  SAH2001     0.3518
@<TRIPOS>BOND
     1     7     6   ar
     2     8     6   ar
     3     6     2    1
     4     2     1    1
     5     2     3    1
     6     3     4    1
     7     4     5    1
     8     5     9    1
     9    13    12    1
    10    12    10    1
    11    12    14    1
    12     9    10    1
    13    10    11    1
    14    15    14    1
    15    14    16    1
    16    11    16    1
    17    16    17    1
    18    17    26    1
    19    17    18    1
    20    25    26    2
    21    25    24    1
    22    26    20    1
    23    18    19    1
    24    24    23    1
    25    20    19    2
    26    20    21    1
    27    23    21    2
    28    21    22    1
