@<TRIPOS>MOLECULE
3kqw_ES9_A_1.pdb
 10 11 0 0 0
SMALL
GASTEIGER

@<TRIPOS>ATOM
      1  C10       28.1610   42.9330   16.9100 C.3   290  ES9290      0.0842
      2 CL01       27.3190   41.3440   14.8010 Cl    290  ES9290     -0.0868
      3  C02       27.6270   42.9130   15.6050 C.2   290  ES9290      0.0375
      4  C03       27.3410   44.1180   14.9350 C.2   290  ES9290     -0.0123
      5  C04       27.5890   45.3520   15.5630 C.3   290  ES9290      0.0731
      6  C05       28.1310   45.3680   16.8720 C.2   290  ES9290      0.0738
      7  N06       28.4560   46.3810   17.6930 N.2   290  ES9290     -0.2471
      8  C07       28.9410   45.8540   18.8740 C.3   290  ES9290      0.2502
      9  N08       28.9110   44.4810   18.7640 N.2   290  ES9290     -0.2471
     10  C09       28.4130   44.1760   17.5430 C.2   290  ES9290      0.0746
@<TRIPOS>BOND
     1     2     3    1
     2     4     5    1
     3     4     3    2
     4     5     6    1
     5     3     1    1
     6     6    10    1
     7     6     7    2
     8     1    10    1
     9    10     9    2
    10     7     8    1
    11     9     8    1
