@<TRIPOS>MOLECULE
3kqy_SAH_A_1.pdb
 26 28 0 0 0
SMALL
GASTEIGER

@<TRIPOS>ATOM
      1  N         26.8450   52.9440   18.0450 N.3   3001  SAH3001    -0.1208
      2  CA        28.0390   52.4050   17.4280 C.3   3001  SAH3001     0.1952
      3  CB        29.1250   52.1690   18.4820 C.3   3001  SAH3001     0.0422
      4  CG        28.6660   51.1970   19.5700 C.3   3001  SAH3001     0.0597
      5  SD        30.0700   50.6160   20.5700 S.3   3001  SAH3001    -0.1375
      6  C         27.7000   51.1240   16.6750 C.2   3001  SAH3001     0.3819
      7  O         28.6110   50.4770   16.2750 O.co2 3001  SAH3001    -0.2441
      8  OXT       26.3410   50.8940   16.4430 O.co2 3001  SAH3001    -0.2441
      9  C5'       29.7010   51.3720   22.1850 C.3   3001  SAH3001     0.0899
     10  C4'       29.9970   52.8630   22.3350 C.3   3001  SAH3001     0.1630
     11  O4'       29.6380   53.2940   23.6050 O.3   3001  SAH3001    -0.3153
     12  C3'       31.4650   53.2240   22.1860 C.3   3001  SAH3001     0.2168
     13  O3'       31.5710   54.1730   21.1520 O.3   3001  SAH3001    -0.2175
     14  C2'       31.7860   53.7750   23.4130 C.3   3001  SAH3001     0.2569
     15  O2'       32.7680   54.7780   23.3410 O.3   3001  SAH3001    -0.2130
     16  C1'       30.5540   54.2810   23.9210 C.3   3001  SAH3001     0.3185
     17  N9        30.5640   54.5550   25.3530 N.pl3 3001  SAH3001    -0.1439
     18  C8        31.4440   54.0900   26.2410 C.3   3001  SAH3001     0.3377
     19  N7        31.0730   54.5550   27.4880 N.2   3001  SAH3001    -0.2095
     20  C5        29.9440   55.3110   27.3470 C.2   3001  SAH3001     0.2526
     21  C6        29.1770   55.9920   28.2540 C.2   3001  SAH3001     0.4393
     22  N6        29.5300   55.9720   29.6640 N.pl3 3001  SAH3001     0.2180
     23  N1        28.1030   56.6650   27.8460 N.2   3001  SAH3001     0.0021
     24  C2        27.7760   56.6720   26.5310 C.3   3001  SAH3001     0.5254
     25  N3        28.5410   55.9950   25.6340 N.2   3001  SAH3001    -0.0055
     26  C4        29.6190   55.3200   26.0460 C.2   3001  SAH3001     0.3518
@<TRIPOS>BOND
     1     7     6   ar
     2     8     6   ar
     3     6     2    1
     4     2     1    1
     5     2     3    1
     6     3     4    1
     7     4     5    1
     8     5     9    1
     9    13    12    1
    10     9    10    1
    11    12    10    1
    12    12    14    1
    13    10    11    1
    14    15    14    1
    15    14    16    1
    16    11    16    1
    17    16    17    1
    18    17    26    1
    19    17    18    1
    20    25    26    2
    21    25    24    1
    22    26    20    1
    23    18    19    1
    24    24    23    1
    25    20    19    2
    26    20    21    1
    27    23    21    2
    28    21    22    1
