@<TRIPOS>MOLECULE
3kqy_ES0_A_1.pdb
 11 12 0 0 0
SMALL
GASTEIGER

@<TRIPOS>ATOM
      1  NAA       29.1910   46.5410   18.3960 N.pl3 290  ES0290     -0.0232
      2  OAB       27.8280   41.6080   16.9250 O.3   290  ES0290     -0.2837
      3  CAC       27.0200   43.5080   13.9220 C.ar  290  ES0290      0.0061
      4  CAD       27.1680   42.4380   14.7950 C.ar  290  ES0290      0.0449
      5  CAE       27.3840   44.7870   14.3240 C.ar  290  ES0290      0.0360
      6  NAF       28.3160   46.0870   16.2350 N.2   290  ES0290     -0.3231
      7  NAG       28.5440   44.4100   17.5980 N.2   290  ES0290     -0.3198
      8  CAH       28.7110   45.7240   17.4590 C.1   290  ES0290      0.2417
      9  CAI       27.6790   42.6530   16.0700 C.ar  290  ES0290      0.2285
     10  CAJ       27.8950   44.9970   15.5980 C.ar  290  ES0290      0.1786
     11  CAK       28.0420   43.9320   16.4680 C.ar  290  ES0290      0.2140
@<TRIPOS>BOND
     1     3     5   ar
     2     3     4   ar
     3     5    10   ar
     4     4     9   ar
     5    10     6    2
     6    10    11   ar
     7     9    11   ar
     8     9     2    1
     9     6     8    2
    10    11     7    2
    11     8     7    2
    12     8     1    1
