@<TRIPOS>MOLECULE
3kr0_SAH_A_1.pdb
 26 28 0 0 0
SMALL
GASTEIGER

@<TRIPOS>ATOM
      1  N         26.9280   52.6810   17.9480 N.3   3001  SAH3001    -0.1208
      2  CA        28.1270   52.2240   17.2750 C.3   3001  SAH3001     0.1952
      3  CB        29.2930   51.9950   18.2420 C.3   3001  SAH3001     0.0422
      4  CG        28.8790   51.3550   19.5760 C.3   3001  SAH3001     0.0597
      5  SD        30.2910   50.7220   20.5410 S.3   3001  SAH3001    -0.1375
      6  C         27.7860   50.9330   16.5720 C.2   3001  SAH3001     0.3819
      7  O         28.6790   50.1990   16.3290 O.co2 3001  SAH3001    -0.2441
      8  OXT       26.4230   50.7230   16.3390 O.co2 3001  SAH3001    -0.2441
      9  C5'       29.9350   51.3770   22.1990 C.3   3001  SAH3001     0.0899
     10  C4'       30.2330   52.8640   22.3960 C.3   3001  SAH3001     0.1630
     11  O4'       29.8910   53.1570   23.7030 O.3   3001  SAH3001    -0.3153
     12  C3'       31.7110   53.2330   22.2780 C.3   3001  SAH3001     0.2168
     13  O3'       31.8550   54.1490   21.2150 O.3   3001  SAH3001    -0.2175
     14  C2'       32.0050   53.8030   23.5020 C.3   3001  SAH3001     0.2569
     15  O2'       32.9350   54.8640   23.4770 O.3   3001  SAH3001    -0.2130
     16  C1'       30.7440   54.1920   24.0370 C.3   3001  SAH3001     0.3185
     17  N9        30.7480   54.4940   25.4610 N.pl3 3001  SAH3001    -0.1439
     18  C8        31.6360   54.0820   26.3660 C.3   3001  SAH3001     0.3377
     19  N7        31.2650   54.6040   27.5930 N.2   3001  SAH3001    -0.2095
     20  C5        30.1270   55.3350   27.4130 C.2   3001  SAH3001     0.2526
     21  C6        29.3610   56.0480   28.2840 C.2   3001  SAH3001     0.4393
     22  N6        29.7390   56.0940   29.6860 N.pl3 3001  SAH3001     0.2180
     23  N1        28.2770   56.6870   27.8500 N.2   3001  SAH3001     0.0021
     24  C2        27.9400   56.6290   26.5380 C.3   3001  SAH3001     0.5254
     25  N3        28.7090   55.9210   25.6740 N.2   3001  SAH3001    -0.0055
     26  C4        29.7950   55.2790   26.1170 C.2   3001  SAH3001     0.3518
@<TRIPOS>BOND
     1     7     6   ar
     2     8     6   ar
     3     6     2    1
     4     2     1    1
     5     2     3    1
     6     3     4    1
     7     4     5    1
     8     5     9    1
     9    13    12    1
    10     9    10    1
    11    12    10    1
    12    12    14    1
    13    10    11    1
    14    15    14    1
    15    14    16    1
    16    11    16    1
    17    16    17    1
    18    17    26    1
    19    17    18    1
    20    25    26    2
    21    25    24    1
    22    26    20    1
    23    18    19    1
    24    24    23    1
    25    20    19    2
    26    20    21    1
    27    23    21    2
    28    21    22    1
