@<TRIPOS>MOLECULE
3kr0_172_A_1.pdb
 11 12 0 0 0
SMALL
GASTEIGER

@<TRIPOS>ATOM
      1  C1        27.4810   42.8830   15.2400 C.ar  1001  1721001     0.1985
      2  C2        27.9810   42.6720   16.5230 C.ar  1001  1721001     0.0777
      3  C3        28.4090   43.7400   17.2930 C.ar  1001  1721001     0.1786
      4  C4        28.3480   45.0420   16.8010 C.ar  1001  1721001     0.1756
      5  C5        27.8450   45.2610   15.5170 C.ar  1001  1721001     0.0390
      6  C6        27.4090   44.1780   14.7310 C.ar  1001  1721001     0.0449
      7  N10       28.9190   43.7800   18.5250 N.2   1001  1721001    -0.3231
      8  C11       29.1770   45.0560   18.8350 C.1   1001  1721001     0.2416
      9  N12       28.8280   45.8350   17.7800 N.2   1001  1721001    -0.3232
     10  N14       29.6420   45.4370   20.0290 N.pl3 1001  1721001    -0.0232
     11  O17       26.9970   41.8020   14.5750 O.3   1001  1721001    -0.2865
@<TRIPOS>BOND
     1    11     1    1
     2     6     1   ar
     3     6     5   ar
     4     1     2   ar
     5     5     4   ar
     6     2     3   ar
     7     4     3   ar
     8     4     9    2
     9     3     7    2
    10     9     8    2
    11     7     8    2
    12     8    10    1
