@<TRIPOS>MOLECULE
3kr1_SAH_A_1.pdb
 26 28 0 0 0
SMALL
GASTEIGER

@<TRIPOS>ATOM
      1  N         26.3330   52.8030   17.6380 N.3   3001  SAH3001    -0.1208
      2  CA        27.5060   52.1790   17.0540 C.3   3001  SAH3001     0.1952
      3  CB        28.6540   52.0390   18.0610 C.3   3001  SAH3001     0.0422
      4  CG        28.3510   51.1070   19.2360 C.3   3001  SAH3001     0.0597
      5  SD        29.8470   50.7690   20.2240 S.3   3001  SAH3001    -0.1375
      6  C         27.1330   50.8540   16.3880 C.2   3001  SAH3001     0.3819
      7  O         28.0320   50.2100   15.9680 O.co2 3001  SAH3001    -0.2441
      8  OXT       25.8030   50.7390   15.9650 O.co2 3001  SAH3001    -0.2441
      9  C5'       29.3500   51.3920   21.8560 C.3   3001  SAH3001     0.0899
     10  C4'       29.6130   52.8790   22.1020 C.3   3001  SAH3001     0.1630
     11  O4'       29.3170   53.1800   23.4220 O.3   3001  SAH3001    -0.3153
     12  C3'       31.0870   53.2510   21.9770 C.3   3001  SAH3001     0.2168
     13  O3'       31.2290   54.1500   20.9080 O.3   3001  SAH3001    -0.2175
     14  C2'       31.3860   53.8640   23.1780 C.3   3001  SAH3001     0.2569
     15  O2'       32.2540   54.9600   23.0350 O.3   3001  SAH3001    -0.2130
     16  C1'       30.1240   54.2660   23.6930 C.3   3001  SAH3001     0.3185
     17  N9        30.1160   54.5410   25.1210 N.pl3 3001  SAH3001    -0.1439
     18  C8        30.9680   54.0750   26.0300 C.3   3001  SAH3001     0.3377
     19  N7        30.5780   54.5440   27.2690 N.2   3001  SAH3001    -0.2095
     20  C5        29.4600   55.3060   27.0930 C.2   3001  SAH3001     0.2526
     21  C6        28.6740   56.0010   27.9680 C.2   3001  SAH3001     0.4393
     22  N6        28.9850   55.9990   29.3850 N.pl3 3001  SAH3001     0.2180
     23  N1        27.6160   56.6780   27.5280 N.2   3001  SAH3001     0.0021
     24  C2        27.3190   56.6830   26.2110 C.3   3001  SAH3001     0.5254
     25  N3        28.1020   55.9940   25.3430 N.2   3001  SAH3001    -0.0055
     26  C4        29.1640   55.3130   25.7880 C.2   3001  SAH3001     0.3518
@<TRIPOS>BOND
     1     8     6   ar
     2     7     6   ar
     3     6     2    1
     4     2     1    1
     5     2     3    1
     6     3     4    1
     7     4     5    1
     8     5     9    1
     9    13    12    1
    10     9    10    1
    11    12    10    1
    12    12    14    1
    13    10    11    1
    14    15    14    1
    15    14    16    1
    16    11    16    1
    17    16    17    1
    18    17    26    1
    19    17    18    1
    20    25    26    2
    21    25    24    1
    22    26    20    1
    23    18    19    1
    24    24    23    1
    25    20    19    2
    26    20    21    1
    27    23    21    2
    28    21    22    1
