@<TRIPOS>MOLECULE
3kr1_VGD_A_1.pdb
 11 12 0 0 0
SMALL
GASTEIGER

@<TRIPOS>ATOM
      1 CLA        26.7490   40.4510   14.3880 Cl    290  VGD290     -0.0822
      2  CAH       27.1720   42.1020   14.8750 C.ar  290  VGD290      0.0604
      3  CAC       27.1810   43.1150   13.9350 C.ar  290  VGD290      0.0142
      4  CAD       27.5120   44.4180   14.3020 C.ar  290  VGD290      0.0366
      5  CAK       27.8360   44.6910   15.6300 C.ar  290  VGD290      0.1755
      6  CAJ       27.8350   43.6710   16.5760 C.ar  290  VGD290      0.1763
      7  CAE       27.5020   42.3620   16.1940 C.ar  290  VGD290      0.0471
      8  NAG       28.2030   45.8580   16.2880 N.2   290  VGD290     -0.3232
      9  CAI       28.4240   45.5790   17.6130 C.1   290  VGD290      0.2416
     10  NAF       28.2010   44.2400   17.8040 N.2   290  VGD290     -0.3231
     11  NAA       28.8220   46.5340   18.5990 N.pl3 290  VGD290     -0.0232
@<TRIPOS>BOND
     1     3     4   ar
     2     3     2   ar
     3     4     5   ar
     4     1     2    1
     5     2     7   ar
     6     5     8    2
     7     5     6   ar
     8     7     6   ar
     9     8     9    2
    10     6    10    2
    11     9    10    2
    12     9    11    1
