@<TRIPOS>MOLECULE
3kr2_ET2_A_1.pdb
 11 12 0 0 0
SMALL
GASTEIGER

@<TRIPOS>ATOM
      1  NAA       29.0000   46.5510   18.4670 N.pl3 1001  ET21001    -0.0232
      2  FAB       27.3990   41.0790   14.2740 F     1001  ET21001    -0.2041
      3  CAC       27.7130   43.3800   13.7710 C.ar  1001  ET21001     0.0325
      4  CAD       27.9980   44.6720   14.1860 C.ar  1001  ET21001     0.0380
      5  CAE       27.9410   42.5890   16.0300 C.ar  1001  ET21001     0.0653
      6  NAF       28.5130   44.3980   17.6280 N.2   1001  ET21001    -0.3231
      7  NAG       28.5580   46.0280   16.1880 N.2   1001  ET21001    -0.3232
      8  CAH       27.6790   42.3370   14.6870 C.ar  1001  ET21001     0.1429
      9  CAI       28.7100   45.7080   17.4790 C.1   1001  ET21001     0.2416
     10  CAJ       28.2310   43.8810   16.4380 C.ar  1001  ET21001     0.1777
     11  CAK       28.2560   44.9220   15.5230 C.ar  1001  ET21001     0.1756
@<TRIPOS>BOND
     1     3     4   ar
     2     3     8   ar
     3     4    11   ar
     4     2     8    1
     5     8     5   ar
     6    11     7    2
     7    11    10   ar
     8     5    10   ar
     9     7     9    2
    10    10     6    2
    11     9     6    2
    12     9     1    1
