@<TRIPOS>MOLECULE
3kr2_SAH_A_1.pdb
 26 28 0 0 0
SMALL
GASTEIGER

@<TRIPOS>ATOM
      1  N         26.8640   52.8250   18.0990 N.3   3001  SAH3001    -0.1208
      2  CA        28.0600   52.3380   17.4440 C.3   3001  SAH3001     0.1952
      3  CB        29.1810   52.1150   18.4610 C.3   3001  SAH3001     0.0422
      4  CG        28.7360   51.2640   19.6500 C.3   3001  SAH3001     0.0597
      5  SD        30.1560   50.6530   20.6110 S.3   3001  SAH3001    -0.1375
      6  C         27.7330   51.0470   16.7020 C.2   3001  SAH3001     0.3819
      7  O         28.6330   50.4430   16.2370 O.co2 3001  SAH3001    -0.2441
      8  OXT       26.3780   50.7670   16.5420 O.co2 3001  SAH3001    -0.2441
      9  C5'       29.7810   51.3470   22.2460 C.3   3001  SAH3001     0.0899
     10  C4'       30.0400   52.8490   22.3690 C.3   3001  SAH3001     0.1630
     11  O4'       29.6880   53.2030   23.6640 O.3   3001  SAH3001    -0.3153
     12  C3'       31.5300   53.1600   22.2760 C.3   3001  SAH3001     0.2168
     13  O3'       31.7440   54.0460   21.2000 O.3   3001  SAH3001    -0.2175
     14  C2'       31.8210   53.7270   23.5120 C.3   3001  SAH3001     0.2569
     15  O2'       32.7830   54.7510   23.4920 O.3   3001  SAH3001    -0.2130
     16  C1'       30.5760   54.2100   24.0010 C.3   3001  SAH3001     0.3185
     17  N9        30.6030   54.5010   25.4330 N.pl3 3001  SAH3001    -0.1439
     18  C8        31.4800   54.0190   26.3190 C.3   3001  SAH3001     0.3377
     19  N7        31.1370   54.5050   27.5650 N.2   3001  SAH3001    -0.2095
     20  C5        30.0260   55.2840   27.4310 C.2   3001  SAH3001     0.2526
     21  C6        29.2940   55.9870   28.3450 C.2   3001  SAH3001     0.4393
     22  N6        29.6630   55.9460   29.7490 N.pl3 3001  SAH3001     0.2180
     23  N1        28.2340   56.6840   27.9480 N.2   3001  SAH3001     0.0021
     24  C2        27.8840   56.6940   26.6410 C.3   3001  SAH3001     0.5254
     25  N3        28.6180   55.9970   25.7360 N.2   3001  SAH3001    -0.0055
     26  C4        29.6830   55.2930   26.1350 C.2   3001  SAH3001     0.3518
@<TRIPOS>BOND
     1     7     6   ar
     2     8     6   ar
     3     6     2    1
     4     2     1    1
     5     2     3    1
     6     3     4    1
     7     4     5    1
     8     5     9    1
     9    13    12    1
    10     9    10    1
    11    12    10    1
    12    12    14    1
    13    10    11    1
    14    15    14    1
    15    14    16    1
    16    11    16    1
    17    16    17    1
    18    17    26    1
    19    17    18    1
    20    25    26    2
    21    25    24    1
    22    26    20    1
    23    18    19    1
    24    24    23    1
    25    20    19    2
    26    20    21    1
    27    23    21    2
    28    21    22    1
