@<TRIPOS>MOLECULE
3kr4_BES_A_1.pdb
 22 22 0 0 0
SMALL
GASTEIGER

@<TRIPOS>ATOM
      1  N2        84.8320   76.2930   30.1850 N.3   1003  BES1003    -0.1293
      2  C1        85.7750   75.1830   30.1470 C.3   1003  BES1003     0.1355
      3  C6        85.5270   74.2450   31.3280 C.3   1003  BES1003     0.0485
      4  C7        84.2390   73.4420   31.3840 C.ar  1003  BES1003    -0.0206
      5  C8        84.1080   72.2380   30.6740 C.ar  1003  BES1003    -0.0042
      6  C12       83.2110   73.8660   32.2140 C.ar  1003  BES1003    -0.0042
      7  C9        82.9350   71.4760   30.7890 C.ar  1003  BES1003    -0.0003
      8  C11       82.0370   73.1130   32.3290 C.ar  1003  BES1003    -0.0003
      9  C10       81.8900   71.9210   31.6170 C.ar  1003  BES1003    -0.0000
     10  C2        87.2530   75.6500   30.2280 C.3   1003  BES1003     0.2467
     11  O2        87.7150   76.5840   29.2440 O.3   1003  BES1003    -0.2116
     12  C3        88.0330   74.4310   29.8770 C.2   1003  BES1003     0.2738
     13  O3        87.7090   73.8060   28.8670 O.2   1003  BES1003    -0.2705
     14  N1        89.0330   74.1270   30.7020 N.am  1003  BES1003    -0.1934
     15  C4        89.7930   72.9190   30.4270 C.3   1003  BES1003     0.1978
     16  C13       91.1820   73.1180   31.0280 C.3   1003  BES1003     0.0333
     17  C14       92.1760   72.0160   30.6560 C.3   1003  BES1003     0.0023
     18  C15       92.6890   72.1810   29.2300 C.3   1003  BES1003     0.0001
     19  C16       93.3240   72.0440   31.6670 C.3   1003  BES1003     0.0001
     20  C5        88.9950   71.8020   31.0710 C.2   1003  BES1003     0.3842
     21  O1        88.9640   70.7120   30.4670 O.co2 1003  BES1003    -0.2437
     22  O4        88.3610   71.9860   32.1530 O.co2 1003  BES1003    -0.2437
@<TRIPOS>BOND
     1    13    12    2
     2    18    17    1
     3    11    10    1
     4    12    10    1
     5    12    14   am
     6     2     1    1
     7     2    10    1
     8     2     3    1
     9    15    14    1
    10    15    16    1
    11    15    20    1
    12    21    20   ar
    13    17    16    1
    14    17    19    1
    15     5     7   ar
    16     5     4   ar
    17     7     9   ar
    18    20    22   ar
    19     3     4    1
    20     4     6   ar
    21     9     8   ar
    22     6     8   ar
