@<TRIPOS>MOLECULE
3kr5_BEY_A_1.pdb
 25 26 0 0 0
SMALL
GASTEIGER

@<TRIPOS>ATOM
      1  O3        86.6490   72.6470   28.4520 O.2   1003  BEY1003    -0.2855
      2  P         86.3520   73.3980   29.7240 P.3   1003  BEY1003     0.2709
      3  O4        86.7790   74.8510   29.8080 O.3   1003  BEY1003    -0.1664
      4  C19       84.5430   73.3400   29.7330 C.3   1003  BEY1003     0.1714
      5  C18       84.1480   72.4750   30.9290 C.3   1003  BEY1003     0.0337
      6  C15       82.7310   72.6800   31.4010 C.3   1003  BEY1003     0.0284
      7  C16       82.0380   71.3480   31.5150 C.ar  1003  BEY1003    -0.0221
      8  C10       82.5060   70.2450   30.7840 C.ar  1003  BEY1003    -0.0043
      9  C11       81.8470   69.0260   30.8770 C.ar  1003  BEY1003    -0.0003
     10  C12       80.7300   68.9400   31.7060 C.ar  1003  BEY1003    -0.0000
     11  C14       80.2640   70.0340   32.4500 C.ar  1003  BEY1003    -0.0003
     12  C13       80.9190   71.2510   32.3530 C.ar  1003  BEY1003    -0.0043
     13  N         84.0820   74.7080   29.8070 N.3   1003  BEY1003    -0.1224
     14  C17       87.1440   72.5630   31.1050 C.3   1003  BEY1003     0.1024
     15  C8        87.9860   71.4390   30.5560 C.3   1003  BEY1003     0.1175
     16  C9        87.1480   70.2010   30.6450 C.2   1003  BEY1003     0.3652
     17  O2        86.9760   69.5140   29.6140 O.co2 1003  BEY1003    -0.2456
     18  O1        86.6410   69.9090   31.7490 O.co2 1003  BEY1003    -0.2456
     19  C7        89.2540   71.3260   31.3960 C.3   1003  BEY1003     0.0381
     20  C1        90.4220   70.7320   30.6260 C.ar  1003  BEY1003    -0.0216
     21  C2        90.2490   70.1490   29.3660 C.ar  1003  BEY1003    -0.0043
     22  C3        91.3450   69.6110   28.7070 C.ar  1003  BEY1003    -0.0003
     23  C4        92.6080   69.6570   29.2960 C.ar  1003  BEY1003    -0.0000
     24  C6        92.7830   70.2320   30.5490 C.ar  1003  BEY1003    -0.0003
     25  C5        91.6880   70.7720   31.2130 C.ar  1003  BEY1003    -0.0043
@<TRIPOS>BOND
     1     1     2    2
     2    22    23   ar
     3    22    21   ar
     4    23    24   ar
     5    21    20   ar
     6    17    16   ar
     7     2     4    1
     8     2     3    1
     9     2    14    1
    10     4    13    1
    11     4     5    1
    12    24    25   ar
    13    15    16    1
    14    15    14    1
    15    15    19    1
    16    20    25   ar
    17    20    19    1
    18    16    18   ar
    19     8     9   ar
    20     8     7   ar
    21     9    10   ar
    22     5     6    1
    23     6     7    1
    24     7    12   ar
    25    10    11   ar
    26    12    11   ar
