@<TRIPOS>MOLECULE
3kr6_UD1_A_1.pdb
 39 41 0 0 0
SMALL
GASTEIGER

@<TRIPOS>ATOM
      1  C1'       58.3470   48.6570  150.8550 C.3   450  UD1450      0.2633
      2  C2'       57.1530   48.6260  151.8270 C.3   450  UD1450      0.1845
      3  C3'       56.2820   47.4320  151.5040 C.3   450  UD1450      0.2094
      4  C4'       55.8160   47.5710  150.0490 C.3   450  UD1450      0.2136
      5  C5'       57.0330   47.6340  149.1130 C.3   450  UD1450      0.1834
      6  C6'       56.6210   47.8260  147.6480 C.3   450  UD1450      0.2142
      7  C7'       58.2030   49.4580  153.9060 C.2   450  UD1450      0.2420
      8  C8'       58.7160   49.0840  155.3050 C.3   450  UD1450      0.0964
      9  N2'       57.6500   48.4630  153.2120 N.am  450  UD1450     -0.1992
     10  O1'       59.1610   47.4630  151.0540 O.3   450  UD1450     -0.2864
     11  O3'       55.1120   47.4460  152.3670 O.3   450  UD1450     -0.2183
     12  O4'       55.0280   46.4560  149.5120 O.3   450  UD1450     -0.2176
     13  O5'       57.8530   48.7600  149.5080 O.3   450  UD1450     -0.3260
     14  O6'       55.7870   49.0600  147.4030 O.3   450  UD1450     -0.2176
     15  O7'       58.2910   50.5640  153.4010 O.2   450  UD1450     -0.2733
     16  N1        64.4280   43.9640  145.9180 N.am  450  UD1450     -0.1766
     17  C2        65.6890   43.4280  145.5800 C.1   450  UD1450      0.2845
     18  N3        66.7850   43.8680  146.2150 N.2   450  UD1450     -0.2452
     19  C4        66.8040   44.8250  147.1960 C.1   450  UD1450      0.2182
     20  C5        65.5040   45.3700  147.5450 C.2   450  UD1450      0.1242
     21  C6        64.3620   44.9380  146.9210 C.2   450  UD1450      0.0929
     22  O2        65.8090   42.5420  144.7010 O.2   450  UD1450     -0.1918
     23  O4        67.8380   45.1720  147.7290 O.2   450  UD1450     -0.2085
     24  C1B       63.1880   43.4760  145.2480 C.3   450  UD1450      0.2401
     25  C2B       62.1810   42.8490  146.1940 C.3   450  UD1450      0.2319
     26  O2'       62.5840   41.5660  146.8710 O.3   450  UD1450     -0.2157
     27  C3B       60.8380   43.0160  145.4350 C.3   450  UD1450      0.2158
     28  C4B       61.0980   44.4100  144.7790 C.3   450  UD1450      0.1799
     29  O4B       62.5320   44.6030  144.7130 O.3   450  UD1450     -0.3320
     30  O3B       60.7640   41.8230  144.5680 O.3   450  UD1450     -0.2175
     31  C5B       60.4980   45.6080  145.5400 C.3   450  UD1450      0.1813
     32  O5B       61.0140   45.6910  146.8650 O.3   450  UD1450     -0.3112
     33  PA        61.1260   47.0750  147.5720 P.3   450  UD1450      0.2189
     34  O1A       60.5820   48.1030  146.6930 O.2   450  UD1450     -0.5170
     35  O2A       62.5170   47.3430  147.9310 O.3   450  UD1450     -0.4371
     36  O3A       60.1750   47.1370  148.7860 O.3   450  UD1450     -0.2703
     37  PB        60.5190   47.2660  150.3180 P.3   450  UD1450      0.2208
     38  O1B       61.2400   48.4560  150.5240 O.2   450  UD1450     -0.5170
     39  O2B       61.1440   46.0350  150.8560 O.3   450  UD1450     -0.4371
@<TRIPOS>BOND
     1    30    27    1
     2    22    17    2
     3    29    28    1
     4    29    24    1
     5    28    27    1
     6    28    31    1
     7    24    16    1
     8    24    25    1
     9    27    25    1
    10    31    32    1
    11    17    16   am
    12    17    18    2
    13    16    21    1
    14    25    26    1
    15    18    19    2
    16    34    33    2
    17    32    33    1
    18    21    20    2
    19    19    20    1
    20    19    23    2
    21    14     6    1
    22    33    35    1
    23    33    36    1
    24     6     5    1
    25    36    37    1
    26     5    13    1
    27     5     4    1
    28    13     1    1
    29    12     4    1
    30     4     3    1
    31    37    38    2
    32    37    39    1
    33    37    10    1
    34     1    10    1
    35     1     2    1
    36     3     2    1
    37     3    11    1
    38     2     9    1
    39     9     7   am
    40    15     7    2
    41     7     8    1
