@<TRIPOS>MOLECULE
3kr8_XAV_A_1.pdb
 21 23 0 0 0
SMALL
GASTEIGER

@<TRIPOS>ATOM
      1  N1        37.9360  -11.1020  -12.9150 N.2   1163  XAV1163    -0.2700
      2  C2        38.7660  -11.7470  -12.1140 C.1   1163  XAV1163     0.1490
      3  N3        39.5630  -12.6850  -12.6420 N.2   1163  XAV1163    -0.3469
      4  C4        39.6250  -12.9790  -13.9210 C.2   1163  XAV1163     0.1171
      5  C5        38.8000  -12.3040  -14.8060 C.3   1163  XAV1163     0.1783
      6  C6        37.9380  -11.3600  -14.2410 C.1   1163  XAV1163     0.1967
      7  O6        37.0810  -10.7290  -15.0730 O.2   1163  XAV1163    -0.2130
      8  FAB       39.7000  -11.3000   -5.7840 F     1163  XAV1163    -0.1659
      9  FAC       39.2930   -9.2680   -6.3280 F     1163  XAV1163    -0.1659
     10  FAD       37.6650  -10.6740   -5.9450 F     1163  XAV1163    -0.1659
     11  CAE       38.1960  -10.3860  -10.1950 C.ar  1163  XAV1163     0.0120
     12  CAF       39.4980  -12.3470   -9.8340 C.ar  1163  XAV1163     0.0120
     13  CAG       38.2420  -10.0680   -8.8360 C.ar  1163  XAV1163     0.0046
     14  CAH       39.5090  -12.0450   -8.4620 C.ar  1163  XAV1163     0.0046
     15  CAI       40.2190  -14.7320  -15.5870 C.3   1163  XAV1163     0.0647
     16  CAJ       40.6100  -14.0850  -14.2850 C.3   1163  XAV1163     0.0682
     17  CAK       38.7540  -12.5860  -16.2770 C.3   1163  XAV1163     0.0821
     18  SAN       40.2590  -13.4300  -16.8530 S.3   1163  XAV1163    -0.1382
     19  CAP       38.8140  -11.4980  -10.7290 C.ar  1163  XAV1163     0.0864
     20  CAQ       38.8850  -10.9060   -7.9620 C.ar  1163  XAV1163     0.0715
     21  CAU       38.8830  -10.5260   -6.4610 C.3   1163  XAV1163     0.4186
@<TRIPOS>BOND
     1    18    17    1
     2    18    15    1
     3    17     5    1
     4    15    16    1
     5     7     6    2
     6     5     6    1
     7     5     4    1
     8    16     4    1
     9     6     1    2
    10     4     3    2
    11     1     2    2
    12     3     2    2
    13     2    19    1
    14    19    11   ar
    15    19    12   ar
    16    11    13   ar
    17    12    14   ar
    18    13    20   ar
    19    14    20   ar
    20    20    21    1
    21    21     9    1
    22    21    10    1
    23    21     8    1
