@<TRIPOS>MOLECULE
3krb_NAP_A_1.pdb
 48 52 0 0 0
SMALL
GASTEIGER

@<TRIPOS>ATOM
      1  PA        19.4170   41.7570    2.8800 P.3   400  NAP400      0.2189
      2  O1A       18.1210   42.2820    3.3850 O.3   400  NAP400     -0.4371
      3  O2A       19.4090   40.4260    2.1000 O.2   400  NAP400     -0.5170
      4  O5B       20.2240   42.8430    1.9880 O.3   400  NAP400     -0.3112
      5  C5B       20.5420   44.1400    2.4390 C.3   400  NAP400      0.1813
      6  C4B       21.3670   44.8590    1.4120 C.3   400  NAP400      0.1820
      7  O4B       20.6490   44.9450    0.1690 O.3   400  NAP400     -0.3136
      8  C3B       21.8500   46.2670    1.7710 C.3   400  NAP400      0.2157
      9  O3B       23.1970   46.4740    1.2830 O.3   400  NAP400     -0.2175
     10  C2B       20.9050   47.1500    0.9990 C.3   400  NAP400      0.2314
     11  O2B       21.4460   48.4000    0.6480 O.3   400  NAP400     -0.2630
     12  C1B       20.6380   46.3090   -0.2590 C.3   400  NAP400      0.3158
     13  N9A       19.3610   46.4930   -0.9470 N.pl3 400  NAP400     -0.1439
     14  C8A       18.1490   46.2670   -0.4370 C.3   400  NAP400      0.3377
     15  N7A       17.2070   46.5040   -1.3500 N.2   400  NAP400     -0.2095
     16  C5A       17.8440   46.9170   -2.4820 C.2   400  NAP400      0.2526
     17  C6A       17.3960   47.3110   -3.7360 C.2   400  NAP400      0.4393
     18  N6A       16.0820   47.3260   -4.0080 N.pl3 400  NAP400      0.2180
     19  N1A       18.2890   47.6840   -4.6660 N.2   400  NAP400      0.0021
     20  C2A       19.6070   47.6490   -4.3960 C.3   400  NAP400      0.5254
     21  N3A       20.1010   47.2750   -3.1690 N.2   400  NAP400     -0.0055
     22  C4A       19.2090   46.8910   -2.2260 C.2   400  NAP400      0.3518
     23  O3        20.4830   41.5740    4.0970 O.3   400  NAP400     -0.2703
     24  PN        20.4720   41.7390    5.7190 P.3   400  NAP400      0.2189
     25  O1N       20.3290   43.1990    6.1360 O.3   400  NAP400     -0.4371
     26  O2N       21.6780   40.9230    6.1020 O.2   400  NAP400     -0.5170
     27  O5D       19.2420   40.8660    6.1880 O.3   400  NAP400     -0.3112
     28  C5D       17.9620   41.4220    6.4330 C.3   400  NAP400      0.1813
     29  C4D       17.7720   41.5690    7.9640 C.3   400  NAP400      0.1799
     30  O4D       17.8500   40.3030    8.6160 O.3   400  NAP400     -0.3327
     31  C3D       18.8180   42.3620    8.7020 C.3   400  NAP400      0.2158
     32  O3D       18.7380   43.7730    8.4430 O.3   400  NAP400     -0.2175
     33  C2D       18.4760   41.9730   10.1470 C.3   400  NAP400      0.2309
     34  O2D       17.2760   42.6660   10.5800 O.3   400  NAP400     -0.2158
     35  C1D       18.2440   40.4820    9.9880 C.3   400  NAP400      0.2263
     36  N1N       19.4660   39.6710   10.2100 N.pl3 400  NAP400     -0.2787
     37  C2N       19.5180   38.9090   11.2890 C.3   400  NAP400      0.1244
     38  C3N       20.6530   38.1550   11.5720 C.2   400  NAP400      0.0544
     39  C7N       20.6110   37.2560   12.7800 C.2   400  NAP400      0.2818
     40  O7N       19.4390   36.9060   13.3780 O.2   400  NAP400     -0.2670
     41  N7N       21.7440   36.7510   13.1170 N.am  400  NAP400     -0.0839
     42  C4N       21.7610   38.1830   10.7130 C.2   400  NAP400      0.0033
     43  C5N       21.6550   38.9400    9.5430 C.2   400  NAP400      0.0157
     44  C6N       20.5030   39.6930    9.3270 C.2   400  NAP400      0.0633
     45  P2B       20.8940   49.7930    1.2810 P.3   400  NAP400      0.5328
     46  O1X       20.4290   49.5210    2.6760 O.3   400  NAP400     -0.1145
     47  O2X       19.7570   50.2840    0.4190 O.2   400  NAP400     -0.2224
     48  O3X       22.1530   50.6230    1.2050 O.3   400  NAP400     -0.1145
@<TRIPOS>BOND
     1    19    20    1
     2    19    17    2
     3    20    21    1
     4    18    17    1
     5    17    16    1
     6    21    22    2
     7    16    22    1
     8    16    15    2
     9    22    13    1
    10    15    14    1
    11    13    14    1
    12    13    12    1
    13    12     7    1
    14    12    10    1
    15     7     6    1
    16    47    45    2
    17    11    10    1
    18    11    45    1
    19    10     8    1
    20    48    45    1
    21    45    46    1
    22     9     8    1
    23     6     8    1
    24     6     5    1
    25     4     5    1
    26     4     1    1
    27     3     1    2
    28     1     2    1
    29     1    23    1
    30    23    24    1
    31    24    26    2
    32    24    25    1
    33    24    27    1
    34    27    28    1
    35    28    29    1
    36    29    30    1
    37    29    31    1
    38    32    31    1
    39    30    35    1
    40    31    33    1
    41    44    43    2
    42    44    36    1
    43    43    42    1
    44    35    33    1
    45    35    36    1
    46    33    34    1
    47    36    37    1
    48    42    38    2
    49    37    38    1
    50    38    39    1
    51    39    41   am
    52    39    40    2
