@<TRIPOS>MOLECULE
3krc_IPE_A_1.pdb
 14 13 0 0 0
SMALL
GASTEIGER

@<TRIPOS>ATOM
      1  C1        -9.0500   47.0410   22.8310 C.3   902  IPE902      0.1747
      2  O1        -7.7640   47.1640   22.1200 O.3   902  IPE902     -0.3089
      3  C2        -9.0300   46.8990   24.3790 C.2   902  IPE902     -0.0024
      4  C3        -8.5750   47.8130   25.3410 C.2   902  IPE902     -0.0454
      5  C4        -7.9800   49.2040   25.0230 C.3   902  IPE902      0.0261
      6  C5        -8.6660   47.4260   26.7940 C.3   902  IPE902      0.0261
      7  PA        -7.5320   46.8330   20.5080 P.3   902  IPE902      0.2233
      8  O1A       -7.9370   48.1380   19.6770 O.2   902  IPE902     -0.5169
      9  O2A       -6.0720   46.3400   20.5440 O.3   902  IPE902     -0.4370
     10  O3A       -8.4040   45.8390   19.6890 O.3   902  IPE902     -0.2261
     11  PB        -7.8160   44.6890   18.7930 P.3   902  IPE902      0.5373
     12  O1B       -6.9150   43.6650   19.4460 O.3   902  IPE902     -0.1143
     13  O2B       -7.1840   45.2730   17.5350 O.2   902  IPE902     -0.2221
     14  O3B       -8.9340   43.7000   18.2670 O.3   902  IPE902     -0.1143
@<TRIPOS>BOND
     1    13    11    2
     2    14    11    1
     3    11    12    1
     4    11    10    1
     5     8     7    2
     6    10     7    1
     7     7     9    1
     8     7     2    1
     9     2     1    1
    10     1     3    1
    11     3     4    2
    12     5     4    1
    13     4     6    1
