@<TRIPOS>MOLECULE
3krd_FEB_2_1.pdb
 32 31 0 0 0
SMALL
GASTEIGER

@<TRIPOS>ATOM
      1  N1        14.4800  -13.8510   16.4920 N.am  300  FEB300     -0.2031
      2  C2        14.0980  -14.9730   15.6530 C.3   300  FEB300      0.1282
      3  C3        13.7330  -16.1290   16.6170 C.3   300  FEB300      0.2036
      4  O4        14.9010  -16.5630   17.3410 O.3   300  FEB300     -0.2185
      5  C5        15.2400  -15.4000   14.6510 C.3   300  FEB300      0.0244
      6  C6        15.6990  -14.3290   13.6390 C.3   300  FEB300      0.0018
      7  C7        16.8150  -14.9250   12.7180 C.3   300  FEB300      0.0001
      8  C8        14.5060  -13.8450   12.7860 C.3   300  FEB300      0.0001
      9  N9        14.1400  -10.4770   17.1530 N.am  300  FEB300     -0.1963
     10  C10       14.3580  -11.8140   17.6600 C.3   300  FEB300      0.1733
     11  C11       13.7080  -12.8150   16.7220 C.2   300  FEB300      0.2613
     12  O12       12.5330  -12.6570   16.2340 O.2   300  FEB300     -0.2715
     13  C13       13.7640  -11.8980   19.0880 C.3   300  FEB300      0.0408
     14  C14       14.5130  -11.1010   20.1960 C.3   300  FEB300      0.0908
     15  C15       16.0080  -11.4230   20.2950 C.2   300  FEB300      0.2608
     16  O16       16.8500  -10.5970   20.0070 O.2   300  FEB300     -0.2717
     17  N17       16.3930  -12.6060   20.6890 N.am  300  FEB300     -0.0878
     18  N18       15.3770   -7.2600   16.3560 N.am  300  FEB300     -0.1972
     19  C19       14.3690   -8.3380   16.1730 C.3   300  FEB300      0.1819
     20  C20       15.0350   -9.6940   16.5790 C.2   300  FEB300      0.2621
     21  O21       16.2570   -9.9860   16.3830 O.2   300  FEB300     -0.2715
     22  C22       13.9640   -8.3270   14.6570 C.3   300  FEB300      0.1195
     23  C23       13.2410   -7.0470   14.1830 C.2   300  FEB300      0.2630
     24  O24       12.9810   -6.1140   14.9570 O.2   300  FEB300     -0.2716
     25  N25       12.8860   -6.9430   12.9350 N.am  300  FEB300     -0.0877
     26  C26       18.5350   -4.1630   18.6590 C.3   300  FEB300      0.0334
     27  C27       17.4830   -5.2450   18.7890 C.3   300  FEB300      0.1611
     28  C29       19.1440   -3.5960   19.9640 C.3   300  FEB300      0.0027
     29  C36       16.9170   -5.7590   17.4540 C.3   300  FEB300      0.1196
     30  O37       16.3870   -4.6360   19.4280 O.3   300  FEB300     -0.2226
     31  C38       15.9010   -6.9170   17.5460 C.2   300  FEB300      0.2444
     32  O49       15.5770   -7.4630   18.6520 O.2   300  FEB300     -0.2732
@<TRIPOS>BOND
     1     7     6    1
     2     8     6    1
     3    25    23   am
     4     6     5    1
     5    23    22    1
     6    23    24    2
     7     5     2    1
     8    22    19    1
     9     2     1    1
    10     2     3    1
    11    19    18    1
    12    19    20    1
    13    12    11    2
    14    18    31   am
    15    21    20    2
    16     1    11   am
    17    20     9   am
    18     3     4    1
    19    11    10    1
    20     9    10    1
    21    29    31    1
    22    29    27    1
    23    31    32    2
    24    10    13    1
    25    26    27    1
    26    26    28    1
    27    27    30    1
    28    13    14    1
    29    16    15    2
    30    14    15    1
    31    15    17   am
