@<TRIPOS>MOLECULE
3krf_IPE_D_1.pdb
 14 13 0 0 0
SMALL
GASTEIGER

@<TRIPOS>ATOM
      1  C1       -28.8050  -14.4040   20.6530 C.3   801  IPE801      0.1747
      2  O1       -27.8630  -15.0580   21.5650 O.3   801  IPE801     -0.3089
      3  C2       -28.0590  -14.8330   19.4030 C.2   801  IPE801     -0.0024
      4  C3       -28.2320  -15.9720   18.6990 C.2   801  IPE801     -0.0454
      5  C4       -29.2720  -17.0630   19.0090 C.3   801  IPE801      0.0261
      6  C5       -27.2720  -16.1640   17.5650 C.3   801  IPE801      0.0261
      7  PA       -27.8580  -15.1030   23.1570 P.3   801  IPE801      0.2233
      8  O1A      -28.9930  -16.1290   23.5400 O.3   801  IPE801     -0.4370
      9  O2A      -26.4270  -15.5000   23.4960 O.2   801  IPE801     -0.5169
     10  O3A      -28.3130  -13.8140   23.8830 O.3   801  IPE801     -0.2261
     11  PB       -27.5330  -13.0220   24.9370 P.3   801  IPE801      0.5373
     12  O1B      -26.1780  -12.4630   24.5710 O.2   801  IPE801     -0.2221
     13  O2B      -27.4360  -13.8570   26.1870 O.3   801  IPE801     -0.1143
     14  O3B      -28.2790  -11.7130   25.4050 O.3   801  IPE801     -0.1143
@<TRIPOS>BOND
     1     6     4    1
     2     4     5    1
     3     4     3    2
     4     3     1    1
     5     1     2    1
     6     2     7    1
     7     7     9    2
     8     7     8    1
     9     7    10    1
    10    10    11    1
    11    12    11    2
    12    11    14    1
    13    11    13    1
