@<TRIPOS>MOLECULE
3krf_DST_D_1.pdb
 14 13 0 0 0
SMALL
GASTEIGER

@<TRIPOS>ATOM
      1  O4       -33.2250  -11.7610   17.7520 O.2   802  DST802     -0.2220
      2  P1       -33.0940  -13.2090   18.1330 P.3   802  DST802      0.5394
      3  O6       -32.0500  -13.3780   19.1840 O.3   802  DST802     -0.1143
      4  O5       -34.4390  -13.3520   18.8790 O.3   802  DST802     -0.1143
      5  O2       -32.8540  -14.3240   17.1320 O.3   802  DST802     -0.1955
      6  P3       -32.5700  -14.1430   15.6080 P.3   802  DST802      0.4273
      7  O8       -33.1070  -12.6810   15.2670 O.3   802  DST802     -0.1309
      8  O7       -33.1020  -15.4350   14.9700 O.2   802  DST802     -0.2431
      9  S9       -30.6340  -14.2520   15.0950 S.3   802  DST802     -0.0237
     10  C10      -29.8560  -12.7910   15.9020 C.3   802  DST802      0.0942
     11  C11      -28.5360  -12.2240   15.3550 C.2   802  DST802     -0.0224
     12  C12      -27.4850  -12.9450   14.8200 C.2   802  DST802     -0.0470
     13  C13      -27.4580  -14.4720   14.6770 C.3   802  DST802      0.0261
     14  C14      -26.2860  -12.1920   14.3280 C.3   802  DST802      0.0261
@<TRIPOS>BOND
     1    14    12    1
     2    13    12    1
     3    12    11    2
     4     8     6    2
     5     9     6    1
     6     9    10    1
     7     7     6    1
     8    11    10    1
     9     6     5    1
    10     5     2    1
    11     1     2    2
    12     2     4    1
    13     2     3    1
