@<TRIPOS>MOLECULE
3krg_ADA_A_1.pdb
 13 13 0 0 0
SMALL
GASTEIGER

@<TRIPOS>ATOM
      1  C1         2.6240   -9.2500   -1.7160 C.3   401  ADA401      0.3028
      2  C2         3.6190   -9.4620   -2.8520 C.3   401  ADA401      0.2435
      3  C3         3.9310  -10.9140   -3.1210 C.3   401  ADA401      0.2204
      4  C4         4.2940  -11.6040   -1.8100 C.3   401  ADA401      0.2229
      5  C5         3.1690  -11.4950   -0.7880 C.3   401  ADA401      0.2530
      6  C6         3.7520  -11.9090    0.5430 C.2   401  ADA401      0.3941
      7  O1         1.3050   -9.3780   -2.2330 O.3   401  ADA401     -0.1869
      8  O2         3.0640   -8.9470   -4.0720 O.3   401  ADA401     -0.2148
      9  O3         5.0440  -10.8700   -4.0230 O.3   401  ADA401     -0.2174
     10  O4         5.4410  -10.9640   -1.2260 O.3   401  ADA401     -0.2171
     11  O5         2.7660  -10.1350   -0.6000 O.3   401  ADA401     -0.3149
     12  O6B        4.1290  -13.0730    0.7020 O.co2 401  ADA401     -0.2429
     13  O6A        3.8770  -11.0670    1.4700 O.co2 401  ADA401     -0.2429
@<TRIPOS>BOND
     1     8     2    1
     2     9     3    1
     3     3     2    1
     4     3     4    1
     5     2     1    1
     6     7     1    1
     7     4    10    1
     8     4     5    1
     9     1    11    1
    10     5    11    1
    11     5     6    1
    12     6    12   ar
    13     6    13   ar
