@<TRIPOS>MOLECULE
3krk_COH_A_1.pdb
 43 50 0 0 0
SMALL
GASTEIGER

@<TRIPOS>ATOM
      1 CO         26.1880   27.5480   17.7030 Co.oh 625  COH625      0.0000
      2  CHA       27.0130   30.1590   19.8680 C.2   625  COH625      0.0000
      3  CHB       23.2530   29.1970   16.7450 C.2   625  COH625      0.0000
      4  CHC       26.1470   25.6440   14.8480 C.2   625  COH625      0.0000
      5  CHD       28.5510   25.4790   19.2090 C.2   625  COH625      0.0000
      6  NA        25.4120   29.3300   18.0790 N.ar  625  COH625      0.0000
      7  C1A       25.7530   30.2460   19.1680 C.ar  625  COH625      0.0000
      8  C2A       24.8820   31.4540   19.2550 C.ar  625  COH625      0.0000
      9  C3A       23.7670   31.1880   18.3100 C.ar  625  COH625      0.0000
     10  C4A       24.0950   29.8670   17.7000 C.ar  625  COH625      0.0000
     11  CMA       22.5620   32.0570   18.0360 C.3   625  COH625      0.0000
     12  CAA       25.0760   32.6550   20.1560 C.3   625  COH625      0.0000
     13  CBA       25.6160   33.8060   19.3060 C.3   625  COH625      0.0000
     14  CGA       27.1200   33.9660   19.4160 C.2   625  COH625      0.0000
     15  O1A       27.5760   35.1020   19.6640 O.co2 625  COH625      0.0000
     16  O2A       27.8680   32.9780   19.2440 O.co2 625  COH625      0.0000
     17  NB        25.1130   27.5750   16.0530 N.2   625  COH625      0.0000
     18  C1B       23.6960   28.0170   16.0450 C.2   625  COH625      0.0000
     19  C2B       22.7540   27.3230   15.1290 C.2   625  COH625      0.0000
     20  C3B       23.6060   26.2800   14.5550 C.2   625  COH625      0.0000
     21  C4B       24.9700   26.4440   15.1460 C.2   625  COH625      0.0000
     22  CMB       21.2900   27.5980   14.8830 C.3   625  COH625      0.0000
     23  CAB       23.1160   25.2700   13.5860 C.2   625  COH625      0.0000
     24  CBB       22.2200   24.3750   13.9700 C.2   625  COH625      0.0000
     25  NC        27.3060   26.0560   17.0560 N.ar  625  COH625      0.0000
     26  C1C       26.8340   25.1150   16.0160 C.ar  625  COH625      0.0000
     27  C2C       27.1760   23.6720   16.2020 C.ar  625  COH625      0.0000
     28  C3C       27.8820   23.6720   17.4900 C.ar  625  COH625      0.0000
     29  C4C       27.9030   25.0700   17.9780 C.ar  625  COH625      0.0000
     30  CMC       26.8700   22.4870   15.3230 C.3   625  COH625      0.0000
     31  CAC       28.4440   22.4900   18.1850 C.2   625  COH625      0.0000
     32  CBC       29.7110   22.1760   18.0010 C.2   625  COH625      0.0000
     33  ND        27.2990   27.7020   19.3210 N.2   625  COH625      0.0000
     34  C1D       28.5200   26.8920   19.5500 C.2   625  COH625      0.0000
     35  C2D       29.6370   27.5660   20.2760 C.2   625  COH625      0.0000
     36  C3D       29.1600   28.9510   20.4590 C.2   625  COH625      0.0000
     37  C4D       27.8460   28.9770   19.7840 C.2   625  COH625      0.0000
     38  CMD       30.9630   26.9870   20.7030 C.3   625  COH625      0.0000
     39  CAD       29.8360   30.1350   21.1140 C.3   625  COH625      0.0000
     40  CBD       29.4600   30.1630   22.5970 C.3   625  COH625      0.0000
     41  CGD       28.2820   31.0640   22.9040 C.2   625  COH625      0.0000
     42  O1D       27.5130   30.7210   23.8330 O.co2 625  COH625      0.0000
     43  O2D       28.1140   32.1140   22.2400 O.co2 625  COH625      0.0000
@<TRIPOS>BOND
     1    23    24    2
     2    23    20    1
     3    20    19    2
     4    20    21    1
     5     4    21    2
     6     4    26    1
     7    22    19    1
     8    19    18    1
     9    21    17    1
    10    30    27    1
    11    26    27   ar
    12    26    25   ar
    13    18    17    2
    14    18     3    1
    15    17     1    1
    16    27    28   ar
    17     3    10    2
    18    25     1    1
    19    25    29   ar
    20    28    29   ar
    21    28    31    1
    22    10     6   ar
    23    10     9   ar
    24     1     6    1
    25     1    33    1
    26    29     5    1
    27    32    31    2
    28    11     9    1
    29     6     7   ar
    30     9     8   ar
    31     7     8   ar
    32     7     2    2
    33     5    34    2
    34    16    14   ar
    35     8    12    1
    36    13    14    1
    37    13    12    1
    38    33    34    1
    39    33    37    2
    40    14    15   ar
    41    34    35    1
    42    37     2    1
    43    37    36    1
    44    35    36    2
    45    35    38    1
    46    36    39    1
    47    39    40    1
    48    43    41   ar
    49    40    41    1
    50    41    42   ar
