@<TRIPOS>MOLECULE
3krk_ACD_A_1.pdb
 22 21 0 0 0
SMALL
GASTEIGER

@<TRIPOS>ATOM
      1  C1        43.2950   12.8740   22.8010 C.2   700  ACD700      0.3649
      2  C2        42.7410   13.6960   21.6370 C.3   700  ACD700      0.1144
      3  C3        41.3430   13.2430   21.2220 C.3   700  ACD700      0.0165
      4  C4        40.3560   14.3930   21.3670 C.3   700  ACD700      0.0263
      5  C5        40.0590   15.0240   20.0070 C.2   700  ACD700     -0.0304
      6  C6        39.7760   16.3210   19.8800 C.2   700  ACD700     -0.0260
      7  C7        39.7260   17.2750   21.0770 C.3   700  ACD700      0.0513
      8  C8        39.1570   18.6200   20.6140 C.2   700  ACD700     -0.0257
      9  C9        38.1320   19.2250   21.2190 C.2   700  ACD700     -0.0257
     10  C10       37.4250   18.6340   22.4400 C.3   700  ACD700      0.0513
     11  C11       36.4720   17.5310   21.9800 C.2   700  ACD700     -0.0257
     12  C12       35.6840   16.8200   22.7850 C.2   700  ACD700     -0.0257
     13  C13       35.5720   17.0070   24.3010 C.3   700  ACD700      0.0513
     14  C14       34.5700   18.1190   24.6210 C.2   700  ACD700     -0.0260
     15  C15       34.2170   18.4940   25.8490 C.2   700  ACD700     -0.0304
     16  C16       34.7480   17.8370   27.1240 C.3   700  ACD700      0.0257
     17  C17       34.0570   18.4120   28.3590 C.3   700  ACD700      0.0047
     18  C18       34.9770   19.3220   29.1570 C.3   700  ACD700      0.0003
     19  C19       34.1910   19.9910   30.2830 C.3   700  ACD700      0.0000
     20  C20       34.4140   21.4960   30.2700 C.3   700  ACD700      0.0000
     21  O1        42.4650   12.2680   23.5140 O.co2 700  ACD700     -0.2457
     22  O2        44.5400   12.8770   22.9550 O.co2 700  ACD700     -0.2457
@<TRIPOS>BOND
     1     6     5    2
     2     6     7    1
     3     5     4    1
     4     8     7    1
     5     8     9    2
     6     9    10    1
     7     3     4    1
     8     3     2    1
     9     2     1    1
    10    11    10    1
    11    11    12    2
    12    12    13    1
    13     1    22   ar
    14     1    21   ar
    15    13    14    1
    16    14    15    2
    17    15    16    1
    18    16    17    1
    19    17    18    1
    20    18    19    1
    21    20    19    1
