@<TRIPOS>MOLECULE
3kro_DST_D_1.pdb
 14 13 0 0 0
SMALL
GASTEIGER

@<TRIPOS>ATOM
      1  O4       -33.0580  -11.8760   17.5480 O.2   2002  DST2002    -0.2220
      2  P1       -32.7620  -13.2810   17.9410 P.3   2002  DST2002     0.5394
      3  O6       -31.8820  -13.3160   19.1380 O.3   2002  DST2002    -0.1143
      4  O5       -34.1890  -13.6630   18.4480 O.3   2002  DST2002    -0.1143
      5  O2       -32.2170  -14.3280   16.9770 O.3   2002  DST2002    -0.1955
      6  P3       -32.2150  -14.2400   15.4330 P.3   2002  DST2002     0.4273
      7  O8       -32.8880  -12.8270   15.1460 O.3   2002  DST2002    -0.1309
      8  O7       -32.7110  -15.5600   14.8600 O.2   2002  DST2002    -0.2431
      9  S9       -30.2730  -14.2890   14.9200 S.3   2002  DST2002    -0.0237
     10  C10      -29.6830  -12.9120   15.9900 C.3   2002  DST2002     0.0942
     11  C11      -28.6230  -11.9890   15.4390 C.2   2002  DST2002    -0.0224
     12  C12      -27.4160  -12.3600   14.9660 C.2   2002  DST2002    -0.0470
     13  C13      -26.8820  -13.7850   14.8960 C.3   2002  DST2002     0.0261
     14  C14      -26.5690  -11.2590   14.4590 C.3   2002  DST2002     0.0261
@<TRIPOS>BOND
     1    14    12    1
     2     8     6    2
     3    13    12    1
     4     9     6    1
     5     9    10    1
     6    12    11    2
     7     7     6    1
     8     6     5    1
     9    11    10    1
    10     5     2    1
    11     1     2    2
    12     2     4    1
    13     2     3    1
