@<TRIPOS>MOLECULE
3kro_IPE_A_1.pdb
 14 13 0 0 0
SMALL
GASTEIGER

@<TRIPOS>ATOM
      1  C1        -4.9940   48.6070   21.8800 C.3   2003  IPE2003     0.1747
      2  O1        -4.8730   47.4060   21.0700 O.3   2003  IPE2003    -0.3089
      3  C2        -3.7490   49.1380   22.5800 C.2   2003  IPE2003    -0.0024
      4  C3        -2.6450   49.6720   21.9840 C.2   2003  IPE2003    -0.0454
      5  C4        -2.4650   49.8360   20.4510 C.3   2003  IPE2003     0.0261
      6  C5        -1.5590   50.1210   22.9140 C.3   2003  IPE2003     0.0261
      7  PA        -6.1020   46.8380   20.0890 P.3   2003  IPE2003     0.2233
      8  O1A       -7.2320   46.1860   20.9960 O.3   2003  IPE2003    -0.4370
      9  O2A       -6.3620   48.1220   19.2240 O.2   2003  IPE2003    -0.5169
     10  O3A       -5.9040   45.6610   19.0980 O.3   2003  IPE2003    -0.2261
     11  PB        -7.0580   45.2690   18.1370 P.3   2003  IPE2003     0.5373
     12  O1B       -8.1170   46.3210   17.7830 O.3   2003  IPE2003    -0.1143
     13  O2B       -7.7200   44.0390   18.7560 O.3   2003  IPE2003    -0.1143
     14  O3B       -6.6150   44.9000   16.6600 O.2   2003  IPE2003    -0.2221
@<TRIPOS>BOND
     1    14    11    2
     2    12    11    1
     3    11    13    1
     4    11    10    1
     5    10     7    1
     6     9     7    2
     7     7     8    1
     8     7     2    1
     9     5     4    1
    10     2     1    1
    11     1     3    1
    12     4     3    2
    13     4     6    1
