@<TRIPOS>MOLECULE
3krp_GPP_D_1.pdb
 19 18 0 0 0
SMALL
GASTEIGER

@<TRIPOS>ATOM
      1  C1       -28.3990  -14.9780   20.8470 C.3   900  GPP900      0.1747
      2  O1       -27.3870  -15.0040   21.8590 O.3   900  GPP900     -0.3089
      3  C2       -27.8140  -14.9570   19.5850 C.2   900  GPP900     -0.0024
      4  C3       -28.0910  -15.8010   18.5170 C.2   900  GPP900     -0.0454
      5  C4       -29.1370  -16.9100   18.6620 C.3   900  GPP900      0.0261
      6  C5       -27.3390  -15.6380   17.1950 C.3   900  GPP900      0.0264
      7  C6       -28.2670  -15.2520   16.0410 C.3   900  GPP900      0.0297
      8  C7       -28.7230  -13.9440   16.1480 C.2   900  GPP900     -0.0342
      9  C8       -28.1660  -12.8390   15.5110 C.2   900  GPP900     -0.0478
     10  C9       -28.7700  -11.4490   15.7100 C.3   900  GPP900      0.0260
     11  C10      -26.9350  -13.0130   14.6190 C.3   900  GPP900      0.0260
     12  PA       -27.7570  -15.1640   23.4170 P.3   900  GPP900      0.2233
     13  O1A      -29.0570  -16.1130   23.4690 O.2   900  GPP900     -0.5169
     14  O2A      -26.6300  -15.6990   24.2140 O.3   900  GPP900     -0.4370
     15  O3A      -28.2390  -13.7070   23.9100 O.3   900  GPP900     -0.2261
     16  PB       -27.5010  -12.9660   25.1350 P.3   900  GPP900      0.5373
     17  O1B      -28.3740  -11.6600   25.4920 O.3   900  GPP900     -0.1143
     18  O2B      -27.6250  -13.9550   26.4010 O.3   900  GPP900     -0.1143
     19  O3B      -26.0920  -12.6390   24.8200 O.2   900  GPP900     -0.2221
@<TRIPOS>BOND
     1    11     9    1
     2     9    10    1
     3     9     8    2
     4     7     8    1
     5     7     6    1
     6     6     4    1
     7     4     5    1
     8     4     3    2
     9     3     1    1
    10     1     2    1
    11     2    12    1
    12    12    13    2
    13    12    15    1
    14    12    14    1
    15    15    16    1
    16    19    16    2
    17    16    17    1
    18    16    18    1
