@<TRIPOS>MOLECULE
3krq_HEM_A_1.pdb
 43 50 0 0 0
SMALL
GASTEIGER

@<TRIPOS>ATOM
      1  CHA       10.3120   -0.2180   27.9670 C.2   655  HEM655      0.0000
      2  CHB       10.7090    4.6370   27.7320 C.2   655  HEM655      0.0000
      3  CHC       12.4510    4.4920   23.3370 C.2   655  HEM655      0.0000
      4  CHD       12.1690   -0.2320   23.5800 C.2   655  HEM655      0.0000
      5  C1A       10.2480    1.1330   28.2130 C.2   655  HEM655      0.0000
      6  C2A        9.7760    1.6650   29.4950 C.2   655  HEM655      0.0000
      7  C3A        9.8890    3.0230   29.4460 C.2   655  HEM655      0.0000
      8  C4A       10.4340    3.3620   28.1290 C.2   655  HEM655      0.0000
      9  CMA        9.3570    3.9970   30.5390 C.3   655  HEM655      0.0000
     10  CAA        9.1840    0.8040   30.6630 C.3   655  HEM655      0.0000
     11  CBA       10.3160    0.4880   31.5880 C.3   655  HEM655      0.0000
     12  CGA        9.9130   -0.5320   32.6440 C.2   655  HEM655      0.0000
     13  O1A       10.5590   -1.6160   32.7060 O.co2 655  HEM655      0.0000
     14  O2A        8.9870   -0.2270   33.4640 O.co2 655  HEM655      0.0000
     15  C1B       11.1710    5.0720   26.5310 C.ar  655  HEM655      0.0000
     16  C2B       11.1800    6.4320   25.9930 C.ar  655  HEM655      0.0000
     17  C3B       11.6950    6.4020   24.7840 C.ar  655  HEM655      0.0000
     18  C4B       11.9460    4.9790   24.4760 C.ar  655  HEM655      0.0000
     19  CMB       10.7600    7.7430   26.7270 C.3   655  HEM655      0.0000
     20  CAB       11.9490    7.6090   23.8140 C.2   655  HEM655      0.0000
     21  CBB       12.2030    8.8290   24.2200 C.2   655  HEM655      0.0000
     22  C1C       12.5210    3.1800   23.0430 C.2   655  HEM655      0.0000
     23  C2C       13.0670    2.6910   21.8280 C.2   655  HEM655      0.0000
     24  C3C       13.0510    1.3770   21.9080 C.2   655  HEM655      0.0000
     25  C4C       12.4480    1.0290   23.1640 C.2   655  HEM655      0.0000
     26  CMC       13.8120    3.6070   20.7850 C.3   655  HEM655      0.0000
     27  CAC       13.6140    0.3040   20.8860 C.3   655  HEM655      0.0000
     28  CBC       14.0860    0.5200   19.6080 C.3   655  HEM655      0.0000
     29  C1D       11.5060   -0.6700   24.7040 C.ar  655  HEM655      0.0000
     30  C2D       11.1440   -2.0320   24.9260 C.ar  655  HEM655      0.0000
     31  C3D       10.6200   -2.0830   26.3010 C.ar  655  HEM655      0.0000
     32  C4D       10.6540   -0.7100   26.7220 C.ar  655  HEM655      0.0000
     33  CMD       11.3090   -3.1710   23.9190 C.3   655  HEM655      0.0000
     34  CAD        9.9580   -3.3120   27.0070 C.3   655  HEM655      0.0000
     35  CBD        8.4070   -3.0520   26.7280 C.3   655  HEM655      0.0000
     36  CGD        7.7280   -4.3090   27.3480 C.2   655  HEM655      0.0000
     37  O1D        7.2450   -4.2090   28.5380 O.co2 655  HEM655      0.0000
     38  O2D        7.8240   -5.3600   26.6710 O.co2 655  HEM655      0.0000
     39  NA        10.7400    2.1860   27.4260 N.2   655  HEM655      0.0000
     40  NB        11.6520    4.2100   25.5650 N.ar  655  HEM655      0.0000
     41  NC        12.1400    2.1410   23.8730 N.2   655  HEM655      0.0000
     42  ND        11.1820    0.0610   25.7900 N.ar  655  HEM655      0.0000
     43 FE         11.5120    2.1430   25.6650 Fe    655  HEM655      0.0000
@<TRIPOS>BOND
     1    28    27    1
     2    26    23    1
     3    27    24    1
     4    23    24    2
     5    23    22    1
     6    24    25    1
     7    22     3    2
     8    22    41    1
     9    25     4    1
    10    25    41    2
    11     3    18    1
    12     4    29    2
    13    20    21    2
    14    20    17    1
    15    41    43    1
    16    33    30    1
    17    18    17   ar
    18    18    40   ar
    19    29    30   ar
    20    29    42   ar
    21    17    16   ar
    22    30    31   ar
    23    40    43    1
    24    40    15   ar
    25    43    42    1
    26    43    39    1
    27    42    32   ar
    28    16    15   ar
    29    16    19    1
    30    31    32   ar
    31    31    34    1
    32    15     2    1
    33    38    36   ar
    34    32     1    2
    35    35    34    1
    36    35    36    1
    37    36    37   ar
    38    39     8    1
    39    39     5    2
    40     2     8    2
    41     1     5    1
    42     8     7    1
    43     5     6    1
    44     7     6    2
    45     7     9    1
    46     6    10    1
    47    10    11    1
    48    11    12    1
    49    12    13   ar
    50    12    14   ar
