@<TRIPOS>MOLECULE
3krr_DQX_A_1.pdb
 36 41 0 0 0
SMALL
GASTEIGER

@<TRIPOS>ATOM
      1  F1        15.6240   13.8380    6.2080 F       1  DQX1       -0.2044
      2  C2        15.2240   13.9820    4.9430 C.ar    1  DQX1        0.1396
      3  C3        15.6170   15.0900    4.1660 C.ar    1  DQX1        0.0488
      4  C4        15.1630   15.1950    2.8400 C.ar    1  DQX1        0.1396
      5  C5        14.3130   14.2140    2.3220 C.ar    1  DQX1        0.0296
      6  C7        13.9130   13.1210    3.1030 C.ar    1  DQX1        0.0070
      7  C8        14.3760   12.9990    4.4180 C.ar    1  DQX1        0.0296
      8  C10       13.0180   12.1310    2.4400 C.ar    1  DQX1        0.0312
      9  C11       13.2670   10.7450    2.4630 C.ar    1  DQX1        0.1481
     10  N12       14.3420   10.2190    3.1290 N.2     1  DQX1       -0.4026
     11  C13       14.5550    8.8780    3.1390 C.2     1  DQX1        0.1365
     12  C14       13.6670    8.0440    2.4520 C.3     1  DQX1        0.1841
     13  N16       12.6140    8.5490    1.7810 N.2     1  DQX1       -0.2602
     14  C17       12.3880    9.8820    1.7770 C.ar    1  DQX1        0.1059
     15  C18       11.2770   10.3830    1.0780 C.ar    1  DQX1        0.0213
     16  C20       11.0400   11.7620    1.0530 C.ar    1  DQX1        0.0017
     17  C22       11.9020   12.6340    1.7400 C.ar    1  DQX1        0.0026
     18  C24       15.7410    8.3270    3.9100 C.ar    1  DQX1        0.0670
     19  C25       16.1190    7.0420    4.1570 C.ar    1  DQX1        0.0988
     20  N27       17.2160    7.0980    4.8710 N.ar    1  DQX1       -0.2512
     21  N28       17.5490    8.3880    5.1070 N.ar    1  DQX1       -0.1676
     22  C29       16.7230    9.1880    4.5690 C.ar    1  DQX1        0.1239
     23  C31       18.0400    6.0360    5.4360 C.3     1  DQX1        0.1081
     24  C33       17.3120    5.3920    6.6550 C.3     1  DQX1        0.0432
     25  C36       18.1470    4.2500    7.2880 C.3     1  DQX1        0.0907
     26  N39       18.5180    3.2990    6.2190 N.3     1  DQX1       -0.2179
     27  C41       19.3800    3.8830    5.1530 C.3     1  DQX1        0.0907
     28  C44       18.5790    5.0000    4.4120 C.3     1  DQX1        0.0432
     29  F47       15.5210   16.2170    2.0500 F       1  DQX1       -0.2044
     30  C48       16.5270   16.1840    4.7540 C.3     1  DQX1        0.1038
     31  N51       15.6890   17.2740    5.3750 N.3     1  DQX1       -0.2645
     32  C52       14.9950   16.8690    6.6390 C.3     1  DQX1        0.1049
     33  C55       14.1470   18.0090    7.2630 C.3     1  DQX1        0.1595
     34  O58       13.2910   18.5970    6.2630 O.3     1  DQX1       -0.3508
     35  C59       14.0570   19.1950    5.2000 C.3     1  DQX1        0.1595
     36  C62       14.8380   18.0840    4.4450 C.3     1  DQX1        0.1049
@<TRIPOS>BOND
     1    16    15   ar
     2    16    17   ar
     3    15    14   ar
     4    17     8   ar
     5    14    13    2
     6    14     9   ar
     7    13    12    1
     8    29     4    1
     9     5     4   ar
    10     5     6   ar
    11     8     9   ar
    12     8     6    1
    13    12    11    1
    14     9    10    2
    15     4     3   ar
    16     6     7   ar
    17    10    11    2
    18    11    18    1
    19    18    19   ar
    20    18    22   ar
    21    19    20   ar
    22     3    30    1
    23     3     2   ar
    24    28    27    1
    25    28    23    1
    26     7     2   ar
    27    36    35    1
    28    36    31    1
    29    22    21   ar
    30    30    31    1
    31    20    21   ar
    32    20    23    1
    33     2     1    1
    34    27    26    1
    35    35    34    1
    36    31    32    1
    37    23    24    1
    38    26    25    1
    39    34    33    1
    40    32    33    1
    41    24    25    1
