@<TRIPOS>MOLECULE
3kru_FMN_A_1.pdb
 31 33 0 0 0
SMALL
GASTEIGER

@<TRIPOS>ATOM
      1  N1       101.4220   -4.3060   20.0350 N.2   401  FMN401     -0.2887
      2  C2       102.2860   -3.5720   19.2970 C.1   401  FMN401      0.3669
      3  O2       103.2810   -3.0670   19.7870 O.2   401  FMN401     -0.1744
      4  N3       102.0960   -3.4210   17.9810 N.2   401  FMN401     -0.2300
      5  C4       101.0260   -3.9500   17.3560 C.1   401  FMN401      0.2513
      6  O4       100.9060   -3.6870   16.1580 O.2   401  FMN401     -0.2057
      7  C4A      100.1130   -4.7420   18.0740 C.2   401  FMN401      0.2706
      8  N5        99.0390   -5.3720   17.4900 N.2   401  FMN401     -0.3841
      9  C5A       98.0730   -5.8630   18.2890 C.2   401  FMN401      0.1452
     10  C6        96.8390   -6.1960   17.7440 C.2   401  FMN401      0.0252
     11  C7        95.7990   -6.6270   18.5420 C.2   401  FMN401     -0.0375
     12  C7M       94.5170   -6.9760   17.8310 C.3   401  FMN401      0.0268
     13  C8        95.9710   -6.7110   19.9280 C.3   401  FMN401      0.0417
     14  C8M       94.8860   -7.1640   20.8670 C.3   401  FMN401      0.0091
     15  C9        97.1990   -6.3550   20.4770 C.2   401  FMN401     -0.0049
     16  C9A       98.2650   -5.9080   19.6820 C.2   401  FMN401      0.0795
     17  N10       99.4720   -5.5530   20.2150 N.pl3 401  FMN401     -0.2545
     18  C10      100.3400   -4.8830   19.4460 C.2   401  FMN401      0.2449
     19  C1'       99.6360   -5.3730   21.6680 C.3   401  FMN401      0.1336
     20  C2'       98.8530   -4.1780   22.2400 C.3   401  FMN401      0.2048
     21  O2'       99.3000   -2.9200   21.7010 O.3   401  FMN401     -0.2185
     22  C3'       99.0050   -4.1050   23.7610 C.3   401  FMN401      0.2165
     23  O3'      100.3970   -3.9440   24.0610 O.3   401  FMN401     -0.2175
     24  C4'       98.5290   -5.3710   24.4970 C.3   401  FMN401      0.2147
     25  O4'       97.2820   -5.8250   23.9640 O.3   401  FMN401     -0.2176
     26  C5'       98.3020   -5.1180   25.9820 C.3   401  FMN401      0.1892
     27  O5'       97.3880   -4.0380   26.1230 O.3   401  FMN401     -0.2674
     28  P         95.8200   -4.1910   26.4050 P.3   401  FMN401      0.5327
     29  O1P       95.1740   -4.6550   25.1160 O.2   401  FMN401     -0.2224
     30  O2P       95.6740   -5.2010   27.5180 O.3   401  FMN401     -0.1145
     31  O3P       95.4270   -2.7900   26.7710 O.3   401  FMN401     -0.1145
@<TRIPOS>BOND
     1     6     5    2
     2     5     4    2
     3     5     7    1
     4     8     7    2
     5     8     9    2
     6    10     9    1
     7    10    11    2
     8    12    11    1
     9     4     2    2
    10     7    18    1
    11     9    16    1
    12    11    13    1
    13     2     3    2
    14     2     1    2
    15    18     1    2
    16    18    17    1
    17    16    17    1
    18    16    15    2
    19    13    15    1
    20    13    14    1
    21    17    19    1
    22    19    20    1
    23    21    20    1
    24    20    22    1
    25    22    23    1
    26    22    24    1
    27    25    24    1
    28    24    26    1
    29    29    28    2
    30    26    27    1
    31    27    28    1
    32    28    31    1
    33    28    30    1
