@<TRIPOS>MOLECULE
3krw_BA1_A_1.pdb
 40 43 0 0 0
SMALL
GASTEIGER

@<TRIPOS>ATOM
      1  C1'       34.9900   -3.2640   51.2520 C.2   690  BA1690      0.2649
      2  C2'       34.5380   -1.8230   51.3040 C.ar  690  BA1690      0.0552
      3  C3'       35.4350   -0.8360   51.7090 C.ar  690  BA1690      0.0078
      4  C4'       35.0470    0.5000   51.7610 C.ar  690  BA1690      0.0422
      5  C5'       33.7560    0.8630   51.4060 C.ar  690  BA1690      0.1957
      6  O5'       33.3730    2.1620   51.4540 O.3   690  BA1690     -0.2866
      7  C6'       32.8540   -0.1090   50.9980 C.ar  690  BA1690      0.0422
      8  C7'       33.2410   -1.4430   50.9470 C.ar  690  BA1690      0.0078
      9  O1'       36.1350   -3.5390   51.5650 O.2   690  BA1690     -0.2684
     10  N1'       34.1600   -4.2320   50.8670 N.am  690  BA1690     -0.1982
     11  N1        35.4330   -7.2280   49.1890 N.3   690  BA1690     -0.2161
     12  C2        34.7370   -5.9670   49.3300 C.3   690  BA1690      0.1140
     13  C3        34.5750   -5.6160   50.8040 C.3   690  BA1690      0.1528
     14  C4        33.5910   -6.4640   51.6130 C.3   690  BA1690      0.1904
     15  C5        33.0280   -7.7090   50.9190 C.3   690  BA1690      0.0470
     16  C6        34.0940   -8.7450   50.5660 C.3   690  BA1690      0.0226
     17  C7        34.7010   -8.4770   49.1960 C.3   690  BA1690      0.0889
     18  OAC       34.3310   -6.8640   52.7610 O.3   690  BA1690     -0.4474
     19  C1B       33.6790   -6.8710   54.0600 C.2   690  BA1690      0.3414
     20  OBC       32.5240   -6.5160   54.2190 O.2   690  BA1690     -0.2449
     21  C2B       34.5130   -7.3910   55.1840 C.ar  690  BA1690      0.0820
     22  C3B       34.0070   -7.4590   56.4840 C.ar  690  BA1690      0.0488
     23  C4B       34.7910   -7.9580   57.5180 C.ar  690  BA1690      0.2021
     24  O4'       34.3030   -8.0240   58.7850 O.3   690  BA1690     -0.2864
     25  C5B       36.1690   -8.4190   57.2210 C.ar  690  BA1690      0.1167
     26  C6B       36.6520   -8.3290   55.8190 C.ar  690  BA1690      0.2021
     27  O6'       37.8940   -8.7280   55.4390 O.3   690  BA1690     -0.2864
     28  C7B       35.8030   -7.8170   54.8600 C.ar  690  BA1690      0.0488
     29  C8'       37.0250   -8.9810   58.3110 C.2   690  BA1690      0.2051
     30  O8'       36.6060   -9.0570   59.4510 O.2   690  BA1690     -0.2862
     31  C9'       38.3870   -9.4830   57.9550 C.ar  690  BA1690      0.0844
     32  CXU       39.5330   -8.5650   58.1070 C.ar  690  BA1690      0.1989
     33  OXU       39.3330   -7.3070   58.5880 O.3   690  BA1690     -0.2865
     34  CX4       40.8010   -9.0160   57.7640 C.ar  690  BA1690      0.0421
     35  CXE       41.0020  -10.3110   57.2720 C.ar  690  BA1690      0.0035
     36  CXO       39.9490  -11.2140   57.1030 C.ar  690  BA1690      0.0069
     37  CXY       38.6370  -10.8540   57.4200 C.ar  690  BA1690      0.0860
     38  CX8       37.5180  -11.8370   57.2250 C.2   690  BA1690      0.3880
     39  OX8       37.7690  -12.9760   56.7780 O.co2 690  BA1690     -0.2405
     40  OXI       36.3510  -11.5020   57.5110 O.co2 690  BA1690     -0.2405
@<TRIPOS>BOND
     1    11    17    1
     2    11    12    1
     3    17    16    1
     4    12    13    1
     5    16    15    1
     6    13    10    1
     7    13    14    1
     8    10     1   am
     9    15    14    1
    10     8     7   ar
    11     8     2   ar
    12     7     5   ar
    13     1     2    1
    14     1     9    2
    15     2     3   ar
    16     5     6    1
    17     5     4   ar
    18    14    18    1
    19     3     4   ar
    20    18    19    1
    21    19    20    2
    22    19    21    1
    23    28    21   ar
    24    28    26   ar
    25    21    22   ar
    26    27    26    1
    27    26    25   ar
    28    22    23   ar
    29    39    38   ar
    30    36    35   ar
    31    36    37   ar
    32    25    23   ar
    33    25    29    1
    34    38    37    1
    35    38    40   ar
    36    35    34   ar
    37    37    31   ar
    38    23    24    1
    39    34    32   ar
    40    31    32   ar
    41    31    29    1
    42    32    33    1
    43    29    30    2
