@<TRIPOS>MOLECULE
3krx_BA1_A_1.pdb
 40 43 0 0 0
SMALL
GASTEIGER

@<TRIPOS>ATOM
      1  C1'       35.6030   -3.3660   51.0980 C.2   690  BA1690      0.2649
      2  C2'       35.1360   -1.9280   51.1000 C.ar  690  BA1690      0.0552
      3  C3'       36.0070   -0.9240   51.5280 C.ar  690  BA1690      0.0078
      4  C4'       35.5970    0.4060   51.5360 C.ar  690  BA1690      0.0422
      5  C5'       34.3160    0.7430   51.1130 C.ar  690  BA1690      0.1957
      6  O5'       33.9090    2.0370   51.1160 O.3   690  BA1690     -0.2866
      7  C6'       33.4420   -0.2440   50.6860 C.ar  690  BA1690      0.0422
      8  C7'       33.8490   -1.5730   50.6790 C.ar  690  BA1690      0.0078
      9  O1'       36.7380   -3.6070   51.4710 O.2   690  BA1690     -0.2684
     10  N1'       34.8030   -4.3570   50.6940 N.am  690  BA1690     -0.1982
     11  N1        36.1330   -7.4520   49.1850 N.3   690  BA1690     -0.2161
     12  C2        35.5390   -6.1320   49.2410 C.3   690  BA1690      0.1140
     13  C3        35.2280   -5.7460   50.6840 C.3   690  BA1690      0.1528
     14  C4        34.1710   -6.5950   51.4110 C.3   690  BA1690      0.1904
     15  C5        33.5360   -7.7490   50.6240 C.3   690  BA1690      0.0470
     16  C6        34.5000   -8.8970   50.3190 C.3   690  BA1690      0.0226
     17  C7        35.3010   -8.6320   49.0510 C.3   690  BA1690      0.0889
     18  OAC       34.8250   -7.1460   52.5470 O.3   690  BA1690     -0.4474
     19  C1B       34.1880   -7.0480   53.8510 C.2   690  BA1690      0.3414
     20  OBC       33.0630   -6.5970   54.0030 O.2   690  BA1690     -0.2449
     21  C2B       35.0040   -7.5690   54.9890 C.ar  690  BA1690      0.0820
     22  C3B       34.5450   -7.5370   56.3100 C.ar  690  BA1690      0.0488
     23  C4B       35.3370   -8.0410   57.3420 C.ar  690  BA1690      0.2021
     24  O4'       34.8990   -8.0150   58.6300 O.3   690  BA1690     -0.2864
     25  C5B       36.6720   -8.6100   57.0190 C.ar  690  BA1690      0.1167
     26  C6B       37.1010   -8.6160   55.5950 C.ar  690  BA1690      0.2021
     27  O6'       38.2990   -9.1100   55.1780 O.3   690  BA1690     -0.2864
     28  C7B       36.2480   -8.0960   54.6450 C.ar  690  BA1690      0.0488
     29  C8'       37.5490   -9.1690   58.0960 C.2   690  BA1690      0.2051
     30  O8'       37.1300   -9.2850   59.2330 O.2   690  BA1690     -0.2862
     31  C9'       38.9370   -9.6000   57.7370 C.ar  690  BA1690      0.0844
     32  CXU       40.0300   -8.6020   57.7740 C.ar  690  BA1690      0.1989
     33  OXU       39.7820   -7.3180   58.1540 O.3   690  BA1690     -0.2865
     34  CX4       41.3140   -8.9970   57.4260 C.ar  690  BA1690      0.0421
     35  CXE       41.5850  -10.3100   57.0360 C.ar  690  BA1690      0.0035
     36  CXO       40.5860  -11.2860   56.9750 C.ar  690  BA1690      0.0069
     37  CXY       39.2600  -10.9930   57.3050 C.ar  690  BA1690      0.0860
     38  CX8       38.2060  -12.0700   57.2240 C.2   690  BA1690      0.3880
     39  OX8       38.5350  -13.2200   56.8610 O.co2 690  BA1690     -0.2405
     40  OXI       37.0190  -11.8140   57.5170 O.co2 690  BA1690     -0.2405
@<TRIPOS>BOND
     1    17    11    1
     2    17    16    1
     3    11    12    1
     4    12    13    1
     5    16    15    1
     6    15    14    1
     7     8     7   ar
     8     8     2   ar
     9    13    10    1
    10    13    14    1
    11     7     5   ar
    12    10     1   am
    13     1     2    1
    14     1     9    2
    15     2     3   ar
    16     5     6    1
    17     5     4   ar
    18    14    18    1
    19     3     4   ar
    20    18    19    1
    21    19    20    2
    22    19    21    1
    23    28    21   ar
    24    28    26   ar
    25    21    22   ar
    26    27    26    1
    27    26    25   ar
    28    22    23   ar
    29    39    38   ar
    30    36    35   ar
    31    36    37   ar
    32    25    23   ar
    33    25    29    1
    34    35    34   ar
    35    38    37    1
    36    38    40   ar
    37    37    31   ar
    38    23    24    1
    39    34    32   ar
    40    31    32   ar
    41    31    29    1
    42    32    33    1
    43    29    30    2
