@<TRIPOS>MOLECULE
3kry_3KR_A_1.pdb
 35 37 0 0 0
SMALL
GASTEIGER

@<TRIPOS>ATOM
      1  S1       -10.5830   -0.1720    4.3190 S.O2  1800  3KR1800     0.0136
      2  C2       -10.0070   -0.9410    2.9040 C.ar  1800  3KR1800     0.1063
      3  C3       -10.9100   -1.4420    1.9630 C.ar  1800  3KR1800     0.0215
      4  C4       -10.4330   -2.0520    0.7960 C.ar  1800  3KR1800     0.0388
      5  C5        -9.0550   -2.1590    0.5620 C.ar  1800  3KR1800     0.1454
      6  C6        -8.1640   -1.6490    1.5010 C.ar  1800  3KR1800     0.0388
      7  C7        -8.6330   -1.0380    2.6680 C.ar  1800  3KR1800     0.0215
      8  C8       -10.6740    1.5490    4.0860 C.3   1800  3KR1800     0.1903
      9  C9        -9.5980    2.0950    3.1350 C.2   1800  3KR1800     0.3036
     10  N10       -8.3480    2.3700    3.5390 N.am  1800  3KR1800     0.0402
     11  O11       -7.4900    2.6460    2.7150 O.2   1800  3KR1800    -0.1531
     12  O12       -9.5490   -0.5730    5.5940 O.2   1800  3KR1800    -0.1683
     13  O13      -12.0770   -0.8780    4.6500 O.2   1800  3KR1800    -0.1683
     14  O14       -9.8680    2.3430    1.9620 O.2   1800  3KR1800    -0.2680
     15  C15      -12.0720    1.7570    3.4630 C.3   1800  3KR1800     0.0487
     16  C16      -12.5240    3.2250    3.4240 C.3   1800  3KR1800     0.0744
     17  N17      -12.4630    3.7420    4.8150 N.3   1800  3KR1800    -0.2704
     18  C18      -11.0690    3.7960    5.3590 C.3   1800  3KR1800     0.0744
     19  C19      -10.5330    2.3450    5.4030 C.3   1800  3KR1800     0.0487
     20  C20      -13.7160    3.8470    5.6280 C.3   1800  3KR1800     0.1046
     21  C21      -14.0760    2.5870    6.4300 C.3   1800  3KR1800     0.1595
     22  O22      -15.3890    2.6810    7.0150 O.3   1800  3KR1800    -0.3496
     23  C23      -15.3550    2.6960    8.4490 C.3   1800  3KR1800     0.1742
     24  O24       -8.5610   -2.7290   -0.5360 O.3   1800  3KR1800    -0.4535
     25  C25       -9.2290   -3.2680   -1.5660 C.ar  1800  3KR1800     0.1455
     26  C26       -9.9550   -2.4320   -2.4160 C.ar  1800  3KR1800     0.0406
     27  C27      -10.6650   -2.9550   -3.4900 C.ar  1800  3KR1800     0.0403
     28  C28      -10.6390   -4.3360   -3.6920 C.ar  1800  3KR1800     0.1470
     29  C29       -9.9280   -5.1890   -2.8450 C.ar  1800  3KR1800     0.0403
     30  C30       -9.2130   -4.6460   -1.7670 C.ar  1800  3KR1800     0.0406
     31  O31      -11.3350   -4.8270   -4.7070 O.3   1800  3KR1800    -0.4045
     32  C32      -10.8530   -5.2110   -6.0150 C.3   1800  3KR1800     0.5753
     33  F33       -9.7850   -6.0110   -5.8860 F     1800  3KR1800    -0.1328
     34  F34      -10.4900   -4.1230   -6.7060 F     1800  3KR1800    -0.1328
     35  F35      -11.7890   -5.8770   -6.7200 F     1800  3KR1800    -0.1328
@<TRIPOS>BOND
     1    35    32    1
     2    34    32    1
     3    32    33    1
     4    32    31    1
     5    31    28    1
     6    28    27   ar
     7    28    29   ar
     8    27    26   ar
     9    29    30   ar
    10    26    25   ar
    11    30    25   ar
    12    25    24    1
    13    24     5    1
    14     5     4   ar
    15     5     6   ar
    16     4     3   ar
    17     6     7   ar
    18    14     9    2
    19     3     2   ar
    20     7     2   ar
    21    11    10    2
    22     2     1    1
    23     9    10    1
    24     9     8    1
    25    16    15    1
    26    16    17    1
    27    15     8    1
    28     8     1    1
    29     8    19    1
    30     1    13    2
    31     1    12    2
    32    17    18    1
    33    17    20    1
    34    18    19    1
    35    20    21    1
    36    21    22    1
    37    22    23    1
