@<TRIPOS>MOLECULE
3krz_FMN_A_1.pdb
 31 33 0 0 0
SMALL
GASTEIGER

@<TRIPOS>ATOM
      1  N1       101.9700   -4.2620   19.9580 N.2   401  FMN401     -0.2887
      2  C2       102.8360   -3.5360   19.1910 C.1   401  FMN401      0.3669
      3  O2       103.8580   -3.0230   19.6950 O.2   401  FMN401     -0.1744
      4  N3       102.5700   -3.3510   17.8780 N.2   401  FMN401     -0.2300
      5  C4       101.4690   -3.8610   17.2940 C.1   401  FMN401      0.2513
      6  O4       101.2430   -3.6070   16.0940 O.2   401  FMN401     -0.2057
      7  C4A      100.5800   -4.6380   18.0490 C.2   401  FMN401      0.2703
      8  N5        99.4800   -5.2330   17.4950 N.2   401  FMN401     -0.3882
      9  C5A       98.5480   -5.7920   18.3200 C.2   401  FMN401      0.1277
     10  C6        97.3340   -6.2210   17.7720 C.3   401  FMN401      0.0820
     11  C7        96.3280   -6.7170   18.6110 C.2   401  FMN401     -0.0408
     12  C7M       95.0310   -7.1320   17.9260 C.3   401  FMN401      0.0265
     13  C8        96.5310   -6.8230   19.9860 C.2   401  FMN401     -0.0280
     14  C8M       95.4600   -7.3810   20.9120 C.3   401  FMN401      0.0304
     15  C9        97.7540   -6.4170   20.5300 C.2   401  FMN401      0.0123
     16  C9A       98.7710   -5.8830   19.7000 C.2   401  FMN401      0.0793
     17  N10       99.9710   -5.4830   20.2160 N.pl3 401  FMN401     -0.2545
     18  C10      100.8470   -4.8090   19.4190 C.2   401  FMN401      0.2449
     19  C1'      100.0840   -5.2640   21.6710 C.3   401  FMN401      0.1336
     20  C2'       99.3190   -4.0550   22.2640 C.3   401  FMN401      0.2048
     21  O2'       99.8110   -2.8240   21.7430 O.3   401  FMN401     -0.2185
     22  C3'       99.3950   -3.9990   23.8000 C.3   401  FMN401      0.2165
     23  O3'      100.7560   -3.7730   24.1940 O.3   401  FMN401     -0.2175
     24  C4'       98.9030   -5.2700   24.5200 C.3   401  FMN401      0.2147
     25  O4'       97.6840   -5.7510   23.9120 O.3   401  FMN401     -0.2176
     26  C5'       98.7350   -5.0160   26.0260 C.3   401  FMN401      0.1892
     27  O5'       97.8840   -3.9060   26.2720 O.3   401  FMN401     -0.2674
     28  P         96.2810   -4.0530   26.4950 P.3   401  FMN401      0.5327
     29  O1P       95.6440   -4.5500   25.2170 O.2   401  FMN401     -0.2224
     30  O2P       96.1530   -5.0760   27.6100 O.3   401  FMN401     -0.1145
     31  O3P       95.8350   -2.6680   26.8450 O.3   401  FMN401     -0.1145
@<TRIPOS>BOND
     1     6     5    2
     2     5     4    2
     3     5     7    1
     4     8     7    2
     5     8     9    2
     6    10     9    1
     7    10    11    1
     8     4     2    2
     9    12    11    1
    10     7    18    1
    11     9    16    1
    12    11    13    2
    13     2     3    2
    14     2     1    2
    15    18     1    2
    16    18    17    1
    17    16    17    1
    18    16    15    2
    19    13    15    1
    20    13    14    1
    21    17    19    1
    22    19    20    1
    23    21    20    1
    24    20    22    1
    25    22    23    1
    26    22    24    1
    27    25    24    1
    28    24    26    1
    29    29    28    2
    30    26    27    1
    31    27    28    1
    32    28    31    1
    33    28    30    1
