@<TRIPOS>MOLECULE
3krz_TXD_A_1.pdb
 37 39 0 0 0
SMALL
GASTEIGER

@<TRIPOS>ATOM
      1  O7N      103.8970   -6.2000   18.2800 O.2   402  TXD402     -0.2670
      2  C7N      103.0140   -6.6910   17.4250 C.2   402  TXD402      0.2812
      3  N7N      103.0110   -6.3090   16.2100 N.am  402  TXD402     -0.0839
      4  C3N      102.0190   -7.7000   17.9070 C.2   402  TXD402      0.0464
      5  C2N      102.0690   -8.1070   19.2360 C.3   402  TXD402      0.1053
      6  C4N      101.2550   -8.4380   16.9810 C.2   402  TXD402     -0.0230
      7  C5N      100.5160   -9.6110   17.4670 C.3   402  TXD402      0.0433
      8  C6N      100.1990   -9.4480   18.8890 C.3   402  TXD402      0.0793
      9  N1N      101.1540   -8.9640   19.7210 N.3   402  TXD402     -0.2442
     10 C1'A      101.3880   -9.5200   21.0660 C.3   402  TXD402      0.2098
     11 O4'A      102.0050  -10.8150   21.0020 O.3   402  TXD402     -0.3354
     12 C2'A      100.1140   -9.7110   21.8760 C.3   402  TXD402      0.2271
     13 O2'A       99.8570   -8.5440   22.6420 O.3   402  TXD402     -0.2161
     14 C3'A      100.4440  -10.8820   22.7910 C.3   402  TXD402      0.2155
     15 O3'A      101.0100  -10.4350   24.0260 O.3   402  TXD402     -0.2176
     16 C4'A      101.5560  -11.6370   22.0860 C.3   402  TXD402      0.1796
     17 C5'A      101.0640  -12.9800   21.5740 C.3   402  TXD402      0.1813
     18 O5'A       99.8670  -12.7140   20.8480 O.3   402  TXD402     -0.3111
     19  PN        99.0590  -13.8310   20.0310 P.3   402  TXD402      0.2231
     20  O1N       97.6920  -13.2780   19.7100 O.3   402  TXD402     -0.4370
     21  O2N       99.9410  -14.3050   18.9070 O.2   402  TXD402     -0.5169
     22  O3        98.9160  -15.0080   21.1110 O.3   402  TXD402     -0.2261
     23  PA        98.1180  -14.8070   22.4970 P.3   402  TXD402      0.5373
     24  O2P       97.2770  -13.5570   22.4140 O.2   402  TXD402     -0.2221
     25  O1P       99.0770  -14.9880   23.6500 O.3   402  TXD402     -0.1143
     26  O5'       97.1460  -16.0880   22.4590 O.3   402  TXD402     -0.1143
     27  C1'      102.2760  -14.8730   24.6300 C.3   402  TXD402      0.2552
     28  N9A      102.8770  -13.5610   25.0270 N.pl3 402  TXD402     -0.1635
     29  C4A      102.2960  -12.6580   25.8320 C.2   402  TXD402      0.3502
     30  N3A      101.1000  -12.6470   26.4760 N.2   402  TXD402     -0.0055
     31  C2A      100.7520  -11.5940   27.2270 C.3   402  TXD402      0.5254
     32  N1A      101.5660  -10.5320   27.3760 N.2   402  TXD402      0.0021
     33  C6A      102.7710  -10.4860   26.7580 C.2   402  TXD402      0.4393
     34  N6A      103.5580   -9.3900   26.9200 N.pl3 402  TXD402      0.2180
     35  C5A      103.1590  -11.5690   25.9580 C.2   402  TXD402      0.2525
     36  N7A      104.2490  -11.8450   25.2140 N.2   402  TXD402     -0.2096
     37  C8A      104.0750  -13.0690   24.6500 C.3   402  TXD402      0.3360
@<TRIPOS>BOND
     1     3     2   am
     2     6     7    1
     3     6     4    2
     4     2     4    1
     5     2     1    2
     6     7     8    1
     7     4     5    1
     8     8     9    1
     9    21    19    2
    10     5     9    1
    11    20    19    1
    12     9    10    1
    13    19    18    1
    14    19    22    1
    15    18    17    1
    16    11    10    1
    17    11    16    1
    18    10    12    1
    19    22    23    1
    20    17    16    1
    21    12    13    1
    22    12    14    1
    23    16    14    1
    24    24    23    2
    25    26    23    1
    26    23    25    1
    27    14    15    1
    28    27    28    1
    29    37    28    1
    30    37    36    1
    31    28    29    1
    32    36    35    2
    33    29    35    1
    34    29    30    2
    35    35    33    1
    36    30    31    1
    37    33    34    1
    38    33    32    2
    39    31    32    1
