@<TRIPOS>MOLECULE
3ks0_HEM_A_1.pdb
 43 50 0 0 0
SMALL
GASTEIGER

@<TRIPOS>ATOM
      1  CHA       44.5280    5.0860   23.1500 C.2   101  HEM101      0.0000
      2  CHB       39.8880    6.4070   22.7530 C.2   101  HEM101      0.0000
      3  CHC       39.3940    3.0120   19.3690 C.2   101  HEM101      0.0000
      4  CHD       44.1570    2.1630   19.2630 C.2   101  HEM101      0.0000
      5  C1A       43.3210    5.7280   23.3600 C.2   101  HEM101      0.0000
      6  C2A       43.0260    6.7600   24.3290 C.2   101  HEM101      0.0000
      7  C3A       41.7570    7.1130   24.2160 C.2   101  HEM101      0.0000
      8  C4A       41.1950    6.3260   23.1470 C.2   101  HEM101      0.0000
      9  CMA       40.9870    8.1620   25.0560 C.3   101  HEM101      0.0000
     10  CAA       43.9910    7.3420   25.3600 C.3   101  HEM101      0.0000
     11  CBA       43.8930    6.4320   26.5740 C.3   101  HEM101      0.0000
     12  CGA       44.3440    7.1730   27.7920 C.2   101  HEM101      0.0000
     13  O1A       44.1280    6.6090   28.8880 O.co2 101  HEM101      0.0000
     14  O2A       44.8910    8.2970   27.6890 O.co2 101  HEM101      0.0000
     15  C1B       39.3290    5.5240   21.8800 C.ar  101  HEM101      0.0000
     16  C2B       37.9190    5.3530   21.6380 C.ar  101  HEM101      0.0000
     17  C3B       37.7810    4.4230   20.7090 C.ar  101  HEM101      0.0000
     18  C4B       39.1110    3.9720   20.3110 C.ar  101  HEM101      0.0000
     19  CMB       36.7610    6.0900   22.3360 C.3   101  HEM101      0.0000
     20  CAB       36.4230    3.9110   20.1700 C.2   101  HEM101      0.0000
     21  CBB       36.2080    2.5940   19.9990 C.2   101  HEM101      0.0000
     22  C1C       40.6340    2.5470   19.0260 C.2   101  HEM101      0.0000
     23  C2C       40.8990    1.6270   17.9330 C.2   101  HEM101      0.0000
     24  C3C       42.2240    1.3900   17.9230 C.2   101  HEM101      0.0000
     25  C4C       42.8270    2.1360   18.9900 C.2   101  HEM101      0.0000
     26  CMC       39.8520    1.0170   16.9790 C.3   101  HEM101      0.0000
     27  CAC       43.0060    0.4930   16.9740 C.2   101  HEM101      0.0000
     28  CBC       42.6380   -0.7720   16.9100 C.2   101  HEM101      0.0000
     29  C1D       44.6970    2.8600   20.3080 C.ar  101  HEM101      0.0000
     30  C2D       46.0700    2.7700   20.6700 C.ar  101  HEM101      0.0000
     31  C3D       46.2130    3.6910   21.8900 C.ar  101  HEM101      0.0000
     32  C4D       44.8880    4.2170   22.1350 C.ar  101  HEM101      0.0000
     33  CMD       47.1310    1.9410   19.9300 C.3   101  HEM101      0.0000
     34  CAD       47.4960    3.9500   22.6980 C.3   101  HEM101      0.0000
     35  CBD       48.5280    4.8380   22.0160 C.3   101  HEM101      0.0000
     36  CGD       49.5240    5.1720   23.1050 C.2   101  HEM101      0.0000
     37  O1D       49.8360    6.3940   23.2720 O.co2 101  HEM101      0.0000
     38  O2D       49.9750    4.2030   23.7980 O.co2 101  HEM101      0.0000
     39  NA        42.1880    5.4950   22.6370 N.2   101  HEM101      0.0000
     40  NB        40.0300    4.6700   21.0610 N.ar  101  HEM101      0.0000
     41  NC        41.8490    2.8330   19.6580 N.2   101  HEM101      0.0000
     42  ND        44.0240    3.6990   21.1920 N.ar  101  HEM101      0.0000
     43 FE         42.0620    4.1310   21.1660 Fe    101  HEM101      0.0000
@<TRIPOS>BOND
     1    28    27    2
     2    27    24    1
     3    26    23    1
     4    24    23    2
     5    24    25    1
     6    23    22    1
     7    25     4    1
     8    25    41    2
     9    22     3    2
    10    22    41    1
    11     4    29    2
    12     3    18    1
    13    41    43    1
    14    33    30    1
    15    21    20    2
    16    20    17    1
    17    29    30   ar
    18    29    42   ar
    19    18    17   ar
    20    18    40   ar
    21    30    31   ar
    22    17    16   ar
    23    40    43    1
    24    40    15   ar
    25    43    42    1
    26    43    39    1
    27    42    32   ar
    28    16    15   ar
    29    16    19    1
    30    15     2    1
    31    31    32   ar
    32    31    34    1
    33    35    34    1
    34    35    36    1
    35    32     1    2
    36    39     8    1
    37    39     5    2
    38     2     8    2
    39    36    37   ar
    40    36    38   ar
    41     8     7    1
    42     1     5    1
    43     5     6    1
    44     7     6    2
    45     7     9    1
    46     6    10    1
    47    10    11    1
    48    11    12    1
    49    14    12   ar
    50    12    13   ar
