@<TRIPOS>MOLECULE
3ks9_Z99_A_1.pdb
 26 29 0 0 0
SMALL
GASTEIGER

@<TRIPOS>ATOM
      1  NAA      -45.9450    8.6060   35.4310 N.3     1  Z991       -0.1228
      2  OAB      -41.9410   12.3600   33.5680 O.co2   1  Z991       -0.2457
      3  OAC      -46.4300   10.7060   32.5060 O.co2   1  Z991       -0.2441
      4  OAD      -41.2240   10.3340   34.1470 O.co2   1  Z991       -0.2457
      5  OAE      -47.3170    8.7630   33.1420 O.co2   1  Z991       -0.2441
      6  CAF      -50.2790   12.7110   33.6740 C.ar    1  Z991        0.0031
      7  CAG      -45.8970   14.4200   38.7870 C.ar    1  Z991        0.0031
      8  CAH      -50.2620   11.3500   34.0510 C.ar    1  Z991       -0.0001
      9  CAI      -45.8050   13.0980   39.2480 C.ar    1  Z991       -0.0001
     10  CAJ      -49.2660   13.5830   34.1050 C.ar    1  Z991        0.0372
     11  CAK      -46.3750   14.7040   37.4970 C.ar    1  Z991        0.0372
     12  CAL      -49.2210   10.8700   34.8580 C.ar    1  Z991       -0.0009
     13  CAM      -46.1640   12.0470   38.3930 C.ar    1  Z991       -0.0009
     14  CAN      -45.8060   11.0650   35.2890 C.3     1  Z991        0.0376
     15  CAO      -43.5060    9.0330   33.0320 C.3     1  Z991        0.0138
     16  OAP      -47.2340   13.9520   35.3500 O.3     1  Z991       -0.4541
     17  CAQ      -42.0840   11.1240   33.6770 C.2     1  Z991        0.3644
     18  CAR      -46.4840    9.7010   33.2630 C.2     1  Z991        0.3800
     19  CAS      -48.2270   13.1000   34.9120 C.ar    1  Z991        0.1415
     20  CAT      -46.7610   13.6610   36.6390 C.ar    1  Z991        0.1415
     21  CAU      -48.2090   11.7340   35.2810 C.ar    1  Z991        0.0163
     22  CAV      -46.6580   12.3420   37.1070 C.ar    1  Z991        0.0163
     23  CAW      -47.0510   11.2220   36.1600 C.3     1  Z991        0.0525
     24  CAX      -43.4590   10.5560   33.2490 C.3     1  Z991        0.1054
     25  CAY      -45.6010    9.7230   34.5340 C.3     1  Z991        0.1709
     26  CAZ      -44.0730    9.6520   34.3000 C.3     1  Z991        0.0380
@<TRIPOS>BOND
     1     3    18   ar
     2    15    24    1
     3    15    26    1
     4     5    18   ar
     5    24    17    1
     6    24    26    1
     7    18    25    1
     8     2    17   ar
     9     6     8   ar
    10     6    10   ar
    11    17     4   ar
    12     8    12   ar
    13    10    19   ar
    14    26    25    1
    15    25    14    1
    16    25     1    1
    17    12    21   ar
    18    19    21   ar
    19    19    16    1
    20    21    23    1
    21    14    23    1
    22    16    20    1
    23    23    22    1
    24    20    22   ar
    25    20    11   ar
    26    22    13   ar
    27    11     7   ar
    28    13     9   ar
    29     7     9   ar
