@<TRIPOS>MOLECULE
3ksd_NAD_O_1.pdb
 44 48 0 0 0
SMALL
GASTEIGER

@<TRIPOS>ATOM
      1  PA        -2.7150   33.0880   23.6410 P.3     0  NAD0        0.2189
      2  O1A       -1.5640   33.9470   23.3480 O.3     0  NAD0       -0.4371
      3  O2A       -2.6550   31.7940   22.9270 O.2     0  NAD0       -0.5170
      4  O5B       -4.1670   33.7290   23.3320 O.3     0  NAD0       -0.3112
      5  C5B       -4.4550   35.1090   23.4640 C.3     0  NAD0        0.1813
      6  C4B       -5.1060   35.5470   22.1580 C.3     0  NAD0        0.1821
      7  O4B       -5.6430   36.8770   22.2400 O.3     0  NAD0       -0.3135
      8  C3B       -4.1240   35.5250   21.0060 C.3     0  NAD0        0.2184
      9  O3B       -4.7680   34.7930   19.9900 O.3     0  NAD0       -0.2174
     10  C2B       -3.9860   36.9950   20.6050 C.3     0  NAD0        0.2570
     11  O2B       -3.9170   37.1880   19.2250 O.3     0  NAD0       -0.2130
     12  C1B       -5.3130   37.5970   21.0650 C.3     0  NAD0        0.3186
     13  N9A       -5.2670   39.0070   21.4660 N.pl3   0  NAD0       -0.1439
     14  C8A       -4.1980   39.6510   22.0210 C.3     0  NAD0        0.3377
     15  N7A       -4.5790   40.9200   22.2800 N.2     0  NAD0       -0.2095
     16  C5A       -5.8600   41.0810   21.8880 C.2     0  NAD0        0.2526
     17  C6A       -6.6720   42.1970   21.9330 C.2     0  NAD0        0.4393
     18  N6A       -6.1440   43.3700   22.3370 N.pl3   0  NAD0        0.2180
     19  N1A       -7.9510   42.0960   21.4280 N.2     0  NAD0        0.0021
     20  C2A       -8.4100   40.8850   20.8950 C.3     0  NAD0        0.5254
     21  N3A       -7.5710   39.7730   20.8640 N.2     0  NAD0       -0.0055
     22  C4A       -6.3120   39.8890   21.3640 C.2     0  NAD0        0.3518
     23  O3        -2.7120   32.9610   25.2300 O.3     0  NAD0       -0.2703
     24  PN        -3.2980   31.7790   26.1700 P.3     0  NAD0        0.2189
     25  O1N       -2.2000   30.8610   26.6140 O.3     0  NAD0       -0.4371
     26  O2N       -4.6110   31.3740   25.6240 O.2     0  NAD0       -0.5170
     27  O5D       -3.5530   32.7290   27.4840 O.3     0  NAD0       -0.3112
     28  C5D       -4.6320   33.6660   27.5210 C.3     0  NAD0        0.1813
     29  C4D       -5.1430   34.0180   28.9370 C.3     0  NAD0        0.1799
     30  O4D       -5.4410   32.8610   29.7300 O.3     0  NAD0       -0.3327
     31  C3D       -4.0750   34.7620   29.7290 C.3     0  NAD0        0.2158
     32  O3D       -4.7320   35.6510   30.6440 O.3     0  NAD0       -0.2175
     33  C2D       -3.3290   33.5660   30.3660 C.3     0  NAD0        0.2309
     34  O2D       -2.3400   33.8470   31.3530 O.3     0  NAD0       -0.2158
     35  C1D       -4.5000   32.6970   30.7850 C.3     0  NAD0        0.2263
     36  N1N       -4.2680   31.2350   31.0160 N.pl3   0  NAD0       -0.2787
     37  C2N       -3.2970   30.5250   30.3390 C.3     0  NAD0        0.1244
     38  C3N       -3.1320   29.1610   30.6200 C.2     0  NAD0        0.0544
     39  C7N       -2.3210   28.2980   29.7240 C.2     0  NAD0        0.2818
     40  O7N       -2.3110   28.5820   28.3570 O.2     0  NAD0       -0.2670
     41  N7N       -1.6860   27.2510   30.2290 N.am    0  NAD0       -0.0839
     42  C4N       -3.9620   28.5220   31.5420 C.2     0  NAD0        0.0033
     43  C5N       -4.9490   29.2730   32.2040 C.2     0  NAD0        0.0157
     44  C6N       -5.0880   30.6240   31.9460 C.2     0  NAD0        0.0633
@<TRIPOS>BOND
     1    11    10    1
     2     9     8    1
     3    10     8    1
     4    10    12    1
     5    21    20    1
     6    21    22    2
     7    20    19    1
     8     8     6    1
     9    12    13    1
    10    12     7    1
    11    22    13    1
    12    22    16    1
    13    19    17    2
    14    13    14    1
    15    16    17    1
    16    16    15    2
    17    17    18    1
    18    14    15    1
    19     6     7    1
    20     6     5    1
    21     3     1    2
    22     4     5    1
    23     4     1    1
    24     2     1    1
    25     1    23    1
    26    23    24    1
    27    26    24    2
    28    24    25    1
    29    24    27    1
    30    27    28    1
    31    28    29    1
    32    40    39    2
    33    29    31    1
    34    29    30    1
    35    39    41   am
    36    39    38    1
    37    31    33    1
    38    31    32    1
    39    30    35    1
    40    37    38    1
    41    37    36    1
    42    33    35    1
    43    33    34    1
    44    38    42    2
    45    35    36    1
    46    36    44    1
    47    42    43    1
    48    44    43    2
