@<TRIPOS>MOLECULE
3ksg_SME_A_1.pdb
 10 9 0 0 0
SMALL
GASTEIGER

@<TRIPOS>ATOM
      1  N          5.7650   -1.3350   17.3980 N.3   6888  SME6888    -0.1208
      2  CA         5.1400   -2.4350   18.0260 C.3   6888  SME6888     0.1953
      3  CB         3.6830   -2.6420   17.6050 C.3   6888  SME6888     0.0449
      4  CG         2.8010   -1.4230   17.8860 C.3   6888  SME6888     0.0939
      5  S          2.5440   -1.0230   19.6530 S.O   6888  SME6888     0.0428
      6  OE         3.0880   -0.1290   20.9190 O.2   6888  SME6888    -0.2559
      7  CE         0.8340   -0.5300   19.6440 C.3   6888  SME6888     0.1061
      8  C          6.0240   -3.4280   17.2660 C.2   6888  SME6888     0.3819
      9  O          7.1590   -3.0300   16.9250 O.co2 6888  SME6888    -0.2441
     10  OXT        5.5380   -4.5530   17.0200 O.co2 6888  SME6888    -0.2441
@<TRIPOS>BOND
     1     9     8   ar
     2    10     8   ar
     3     8     2    1
     4     1     2    1
     5     3     4    1
     6     3     2    1
     7     4     5    1
     8     7     5    1
     9     5     6    2
