@<TRIPOS>MOLECULE
3ksl_SZH_B_1.pdb
 29 28 0 0 0
SMALL
GASTEIGER

@<TRIPOS>ATOM
      1  C1       193.0670  123.5120   31.4730 C.2   438  SZH438     -0.0024
      2  C2       192.4360  122.9830   30.3950 C.2   438  SZH438     -0.0458
      3  C3       183.7190  121.1890   31.8760 C.3   438  SZH438      0.2854
      4  C4       185.0910  120.7100   32.3270 C.2   438  SZH438      0.3434
      5  C5       193.0540  122.6700   29.0830 C.3   438  SZH438      0.0261
      6  C6       188.1740  122.2240   33.9570 C.3   438  SZH438      0.0038
      7  C7       194.4940  123.9110   31.6950 C.3   438  SZH438      0.1747
      8  C8       190.9450  122.6960   30.4300 C.3   438  SZH438      0.0218
      9  C9       190.4740  121.3260   30.9310 C.3   438  SZH438      0.0045
     10  C10      189.8280  121.3920   32.3330 C.3   438  SZH438      0.0040
     11  C11      187.3710  121.2760   31.7220 C.3   438  SZH438      0.2084
     12  C12      188.4590  122.0970   32.4510 C.3   438  SZH438      0.0439
     13  C13      182.5390  120.3250   31.5530 C.3   438  SZH438      0.4238
     14  N14      183.4780  123.6260   31.7060 N.3   438  SZH438     -0.0196
     15  N15      183.5640  122.4910   31.7760 N.3   438  SZH438     -0.0938
     16  O16      195.3320  123.6030   36.4530 O.3   438  SZH438     -0.1143
     17  O17      197.5170  124.4310   35.5120 O.3   438  SZH438     -0.1143
     18  O18      197.0350  125.4260   32.6640 O.2   438  SZH438     -0.5169
     19  O19      185.2470  119.6010   32.8250 O.2   438  SZH438     -0.2482
     20  O20      196.2510  122.6380   34.2020 O.2   438  SZH438     -0.2221
     21  O21      195.4870  127.3060   33.4140 O.3   438  SZH438     -0.4370
     22  O22      186.0370  121.6750   32.1130 O.3   438  SZH438     -0.4473
     23  O23      194.4610  125.2040   32.3120 O.3   438  SZH438     -0.3089
     24  O24      195.3220  124.9660   34.5000 O.3   438  SZH438     -0.2261
     25  F25      182.6590  118.9970   31.7060 F     438  SZH438     -0.1678
     26  F26      181.5050  120.5890   32.3750 F     438  SZH438     -0.1678
     27  F27      182.1080  120.5360   30.2820 F     438  SZH438     -0.1678
     28  P28      196.1840  123.7950   35.2280 P.3   438  SZH438      0.5373
     29  P29      195.6660  125.8210   33.1820 P.3   438  SZH438      0.2233
@<TRIPOS>BOND
     1     5     2    1
     2    27    13    1
     3     2     8    1
     4     2     1    2
     5     8     9    1
     6     9    10    1
     7     1     7    1
     8    13    25    1
     9    13     3    1
    10    13    26    1
    11     7    23    1
    12    14    15    1
    13    11    22    1
    14    11    12    1
    15    15     3    1
    16     3     4    1
    17    22     4    1
    18    23    29    1
    19     4    19    2
    20    10    12    1
    21    12     6    1
    22    18    29    2
    23    29    21    1
    24    29    24    1
    25    20    28    2
    26    24    28    1
    27    28    17    1
    28    28    16    1
