@<TRIPOS>MOLECULE
3ksm_BDR_A_1.pdb
 10 10 0 0 0
SMALL
GASTEIGER

@<TRIPOS>ATOM
      1  C4        25.3910   17.0740   29.1280 C.3     1  BDR1        0.1837
      2  O         25.1540   18.4840   29.3640 O.3     1  BDR1       -0.3236
      3  C1        23.6820   18.6590   29.3860 C.3     1  BDR1        0.3024
      4  O1        23.2910   19.4800   28.3000 O.3     1  BDR1       -0.1869
      5  C2        23.0690   17.4620   28.6980 C.3     1  BDR1        0.2433
      6  O2        21.7200   17.0740   29.0040 O.3     1  BDR1       -0.2148
      7  C3        24.1750   16.4890   28.3790 C.3     1  BDR1        0.2169
      8  O3        23.8390   15.0890   28.5200 O.3     1  BDR1       -0.2175
      9  C5        26.5260   17.0260   28.1850 C.3     1  BDR1        0.2142
     10  O5        26.6580   15.6800   27.7980 O.3     1  BDR1       -0.2176
@<TRIPOS>BOND
     1    10     9    1
     2     9     1    1
     3     4     3    1
     4     7     8    1
     5     7     5    1
     6     7     1    1
     7     5     6    1
     8     5     3    1
     9     1     2    1
    10     2     3    1
