@<TRIPOS>MOLECULE
3ksq_FPP_B_1.pdb
 24 23 0 0 0
SMALL
GASTEIGER

@<TRIPOS>ATOM
      1  C1       194.1410  123.6700   31.1060 C.3   438  FPP438      0.1747
      2  O1       194.1120  124.7950   31.9220 O.3   438  FPP438     -0.3089
      3  C2       192.7920  123.0660   31.1750 C.2   438  FPP438     -0.0024
      4  C3       192.1220  122.6180   30.1140 C.2   438  FPP438     -0.0454
      5  C4       192.6670  122.6910   28.6850 C.3   438  FPP438      0.0261
      6  C5       190.7460  121.9870   30.2830 C.3   438  FPP438      0.0264
      7  C6       189.9710  122.1690   31.6020 C.3   438  FPP438      0.0297
      8  C7       188.6420  121.4070   31.6210 C.2   438  FPP438     -0.0342
      9  C8       187.8090  121.2770   32.6520 C.2   438  FPP438     -0.0478
     10  C10      188.1280  121.9000   33.9820 C.3   438  FPP438      0.0260
     11  C9       186.5330  120.4180   32.4690 C.3   438  FPP438      0.0263
     12  C11      185.3680  121.0920   31.8190 C.3   438  FPP438      0.0297
     13  C12      184.1180  120.2560   31.9870 C.2   438  FPP438     -0.0342
     14  C13      182.9830  120.4500   31.2460 C.2   438  FPP438     -0.0478
     15  C14      181.7280  119.5860   31.4160 C.3   438  FPP438      0.0260
     16  C15      182.8850  121.5120   30.1920 C.3   438  FPP438      0.0260
     17  PA       195.0050  124.8410   33.1900 P.3   438  FPP438      0.2233
     18  O1A      194.0820  125.6660   34.2100 O.3   438  FPP438     -0.4370
     19  O2A      196.3940  125.6560   32.8800 O.2   438  FPP438     -0.5169
     20  O3A      195.1860  123.3770   33.8340 O.3   438  FPP438     -0.2261
     21  PB       196.0080  123.1880   35.2310 P.3   438  FPP438      0.5373
     22  O1B      195.0250  123.6990   36.4150 O.3   438  FPP438     -0.1143
     23  O2B      196.5210  121.6960   35.4450 O.3   438  FPP438     -0.1143
     24  O3B      197.1960  124.2350   35.3660 O.2   438  FPP438     -0.2221
@<TRIPOS>BOND
     1     5     4    1
     2     4     6    1
     3     4     3    2
     4    16    14    1
     5     6     7    1
     6     1     3    1
     7     1     2    1
     8    14    15    1
     9    14    13    2
    10     7     8    1
    11     8     9    2
    12    12    13    1
    13    12    11    1
    14     2    17    1
    15    11     9    1
    16     9    10    1
    17    19    17    2
    18    17    20    1
    19    17    18    1
    20    20    21    1
    21    21    24    2
    22    21    23    1
    23    21    22    1
