@<TRIPOS>MOLECULE
3ksq_Z96_B_1.pdb
 37 41 0 0 0
SMALL
GASTEIGER

@<TRIPOS>ATOM
      1 CL        190.7520  128.8210   28.4600 Cl    439  Z96439     -0.0822
      2  C1       187.0420  129.7240   29.9270 C.ar  439  Z96439     -0.0017
      3  N1       186.1500  132.2020   35.1530 N.am  439  Z96439     -0.2432
      4  O1       184.7380  133.3970   36.3590 O.2   439  Z96439     -0.2262
      5  C2       185.3960  127.7440   32.3520 C.ar  439  Z96439      0.0776
      6  N2       190.4640  125.8920   34.9210 N.ar  439  Z96439     -0.3081
      7  O2       186.4650  134.4930   35.3750 O.3   439  Z96439     -0.4418
      8  C3       186.1740  126.6770   33.0330 C.ar  439  Z96439      0.0150
      9  N3       190.4160  126.6600   37.0160 N.ar  439  Z96439     -0.2226
     10  O3       190.0190  129.4140   33.9310 O.3   439  Z96439     -0.2118
     11  C4       185.5730  125.3920   33.1740 C.ar  439  Z96439      0.0028
     12  N4       184.1290  127.4630   31.8610 N.ar  439  Z96439     -0.2465
     13  C5       184.2510  125.1450   32.6710 C.ar  439  Z96439      0.0207
     14  N5       186.3060  129.9690   33.3310 N.3   439  Z96439     -0.2626
     15  C6       185.9490  129.1670   32.1310 C.3   439  Z96439      0.1210
     16  C7       187.1250  129.0690   31.2190 C.ar  439  Z96439     -0.0023
     17  C8       188.3730  128.3780   31.6420 C.ar  439  Z96439     -0.0027
     18  C9       188.5560  127.7200   33.0080 C.2   439  Z96439      0.0132
     19  C10      183.5630  126.2290   32.0120 C.ar  439  Z96439      0.0985
     20  C11      189.9360  128.0040   33.6840 C.3   439  Z96439      0.2136
     21  C12      187.5530  126.9630   33.5870 C.2   439  Z96439     -0.0002
     22  C13      188.1580  129.6340   29.0350 C.ar  439  Z96439      0.0111
     23  C14      189.3610  128.9350   29.4620 C.ar  439  Z96439      0.0576
     24  C15      189.4710  128.3180   30.7450 C.ar  439  Z96439      0.0109
     25  C17      186.9780  131.2640   32.9890 C.3   439  Z96439      0.0945
     26  C18      187.3380  132.0610   34.2810 C.3   439  Z96439      0.1141
     27  C19      185.4520  130.9290   35.4260 C.3   439  Z96439      0.1141
     28  C20      185.0750  130.2040   34.1380 C.3   439  Z96439      0.0945
     29  C21      190.1440  127.6830   36.2660 C.ar  439  Z96439      0.1162
     30  C22      186.1680  136.1120   37.2810 C.3   439  Z96439      0.0437
     31  C23      190.5620  125.0140   33.7330 C.3   439  Z96439      0.1318
     32  C24      187.3840  136.6740   35.1910 C.3   439  Z96439      0.0437
     33  C25      185.7250  133.3920   35.6790 C.2   439  Z96439      0.4047
     34  C26      184.8020  136.3230   35.1630 C.3   439  Z96439      0.0437
     35  C27      190.1870  127.2070   34.9630 C.ar  439  Z96439      0.0924
     36  C28      190.6110  125.5250   36.2320 C.ar  439  Z96439      0.1784
     37  C29      186.1740  135.8790   35.7640 C.3   439  Z96439      0.1378
@<TRIPOS>BOND
     1     1    23    1
     2    22    23   ar
     3    22     2   ar
     4    23    24   ar
     5     2    16   ar
     6    24    17   ar
     7    16    17   ar
     8    16    15    1
     9    17    18    1
    10    12    19   ar
    11    12     5   ar
    12    19    13   ar
    13    15     5    1
    14    15    14    1
    15     5     8   ar
    16    13    11   ar
    17    25    14    1
    18    25    26    1
    19    18    21    2
    20    18    20    1
    21     8    11   ar
    22     8    21    1
    23    14    28    1
    24    20    10    1
    25    20    35    1
    26    31     6    1
    27    28    27    1
    28    26     3    1
    29     6    35   ar
    30     6    36   ar
    31    35    29   ar
    32     3    27    1
    33     3    33   am
    34    34    37    1
    35    32    37    1
    36     7    33    1
    37     7    37    1
    38    33     4    2
    39    37    30    1
    40    36     9   ar
    41    29     9   ar
