@<TRIPOS>MOLECULE
3ksw_VNF_A_1.pdb
 29 32 0 0 0
SMALL
GASTEIGER

@<TRIPOS>ATOM
      1  OAA        2.4800   26.9960   22.1910 O.2   490  VNF490     -0.2684
      2 CLAB       -4.3030   32.7550   15.8540 Cl    490  VNF490     -0.0822
      3  CAC        2.5160   23.3050   24.3490 C.ar  490  VNF490     -0.0000
      4  CAD        3.7250   23.9930   24.3460 C.ar  490  VNF490     -0.0003
      5  CAE        1.7760   23.1940   23.1760 C.ar  490  VNF490     -0.0003
      6  CAF        6.9760   27.5360   18.3240 C.ar  490  VNF490      0.1193
      7  CAG        4.1960   24.5710   23.1710 C.ar  490  VNF490     -0.0026
      8  CAH        2.2460   23.7710   22.0010 C.ar  490  VNF490     -0.0026
      9  CAI       -2.1400   32.3620   17.4330 C.ar  490  VNF490      0.0114
     10  CAJ       -3.3480   30.3850   16.7690 C.ar  490  VNF490      0.0114
     11  CAK        0.3670   27.2210   19.4200 C.ar  490  VNF490      0.0046
     12  CAL        1.3800   29.1850   20.3830 C.ar  490  VNF490      0.0046
     13  CAM       -1.2460   31.5720   18.1460 C.ar  490  VNF490      0.0009
     14  CAN       -2.4540   29.5950   17.4830 C.ar  490  VNF490      0.0009
     15  CAO       -0.5440   28.0180   18.7380 C.ar  490  VNF490      0.0001
     16  CAP        0.4680   29.9830   19.6990 C.ar  490  VNF490      0.0001
     17  CAQ        6.7940   27.2740   19.6170 C.ar  490  VNF490      0.0981
     18  CAR        5.4000   26.0610   18.4670 C.ar  490  VNF490      0.1787
     19  CAS        5.3010   25.7960   20.9360 C.3   490  VNF490      0.1337
     20  NAT        6.1210   26.7930   17.6210 N.ar  490  VNF490     -0.2223
     21  NAU        2.9660   26.0470   20.1910 N.am  490  VNF490     -0.1969
     22  CAV        2.3170   26.9040   20.9770 C.2   490  VNF490      0.2651
     23  CAW       -3.1920   31.7680   16.7440 C.ar  490  VNF490      0.0577
     24  CAX        1.3250   27.8020   20.2420 C.ar  490  VNF490      0.0551
     25  CAY       -1.4060   30.1890   18.1790 C.ar  490  VNF490      0.0001
     26  CAZ       -0.4990   29.4000   18.8810 C.ar  490  VNF490      0.0000
     27  CBA        3.4550   24.4590   21.9970 C.ar  490  VNF490     -0.0007
     28  CBB        3.9630   25.0890   20.6970 C.3   490  VNF490      0.1403
     29  NBC        5.8250   26.3690   19.6880 N.ar  490  VNF490     -0.3057
@<TRIPOS>BOND
     1     2    23    1
     2    23    10   ar
     3    23     9   ar
     4    10    14   ar
     5     9    13   ar
     6    14    25   ar
     7    20     6   ar
     8    20    18   ar
     9    13    25   ar
    10    25    26    1
    11     6    17   ar
    12    18    29   ar
    13    15    26   ar
    14    15    11   ar
    15    26    16   ar
    16    11    24   ar
    17    17    29   ar
    18    29    19    1
    19    16    12   ar
    20    21    28    1
    21    21    22   am
    22    24    12   ar
    23    24    22    1
    24    28    19    1
    25    28    27    1
    26    22     1    2
    27    27     8   ar
    28    27     7   ar
    29     8     5   ar
    30     7     4   ar
    31     5     3   ar
    32     4     3   ar
