@<TRIPOS>MOLECULE
3ksw_HEM_A_1.pdb
 43 50 0 0 0
SMALL
GASTEIGER

@<TRIPOS>ATOM
      1  CHA        3.8980   26.2260   14.4310 C.2   488  HEM488      0.0000
      2  CHB        8.2450   24.7530   16.0650 C.2   488  HEM488      0.0000
      3  CHC        9.4160   29.3780   16.9780 C.2   488  HEM488      0.0000
      4  CHD        4.6940   30.4590   16.7580 C.2   488  HEM488      0.0000
      5  C1A        4.9680   25.4230   14.7750 C.ar  488  HEM488      0.0000
      6  C2A        5.0390   23.9830   14.6420 C.ar  488  HEM488      0.0000
      7  C3A        6.2320   23.5760   15.0850 C.ar  488  HEM488      0.0000
      8  C4A        6.9700   24.7420   15.5330 C.ar  488  HEM488      0.0000
      9  CMA        6.7280   22.1150   15.1160 C.3   488  HEM488      0.0000
     10  CAA        3.9300   23.0810   14.0630 C.3   488  HEM488      0.0000
     11  CBA        3.3650   22.1930   15.1630 C.3   488  HEM488      0.0000
     12  CGA        2.1050   21.5410   14.6590 C.2   488  HEM488      0.0000
     13  O1A        2.1240   20.9860   13.5280 O.co2 488  HEM488      0.0000
     14  O2A        1.0860   21.5700   15.3940 O.co2 488  HEM488      0.0000
     15  C1B        8.9610   25.8770   16.4230 C.2   488  HEM488      0.0000
     16  C2B       10.3440   25.9190   16.8620 C.2   488  HEM488      0.0000
     17  C3B       10.6660   27.1900   17.1130 C.2   488  HEM488      0.0000
     18  C4B        9.5020   28.0090   16.8430 C.2   488  HEM488      0.0000
     19  CMB       11.2880   24.7060   17.0160 C.3   488  HEM488      0.0000
     20  CAB       12.0390   27.6980   17.6040 C.2   488  HEM488      0.0000
     21  CBB       13.0400   26.8360   17.8070 C.2   488  HEM488      0.0000
     22  C1C        8.2370   30.0900   17.0080 C.ar  488  HEM488      0.0000
     23  C2C        8.0860   31.5080   17.2700 C.ar  488  HEM488      0.0000
     24  C3C        6.7850   31.8050   17.2090 C.ar  488  HEM488      0.0000
     25  C4C        6.0580   30.5870   16.9060 C.ar  488  HEM488      0.0000
     26  CMC        9.2260   32.5060   17.5670 C.3   488  HEM488      0.0000
     27  CAC        6.1630   33.2020   17.4230 C.2   488  HEM488      0.0000
     28  CBC        6.9400   34.2550   17.6980 C.2   488  HEM488      0.0000
     29  C1D        4.0340   29.4710   16.0570 C.2   488  HEM488      0.0000
     30  C2D        2.6570   29.5320   15.6280 C.2   488  HEM488      0.0000
     31  C3D        2.3910   28.2110   14.8950 C.2   488  HEM488      0.0000
     32  C4D        3.6410   27.4780   14.9550 C.2   488  HEM488      0.0000
     33  CMD        1.6560   30.6860   15.8560 C.3   488  HEM488      0.0000
     34  CAD        1.0480   27.8120   14.2530 C.3   488  HEM488      0.0000
     35  CBD        1.1680   26.5650   13.3890 C.3   488  HEM488      0.0000
     36  CGD        0.0630   26.6360   12.3700 C.2   488  HEM488      0.0000
     37  O1D        0.1300   27.5230   11.4780 O.co2 488  HEM488      0.0000
     38  O2D       -0.8780   25.8060   12.4470 O.co2 488  HEM488      0.0000
     39  NA         6.1630   25.8470   15.3280 N.ar  488  HEM488      0.0000
     40  NB         8.4810   27.1740   16.4240 N.2   488  HEM488      0.0000
     41  NC         6.9780   29.5640   16.7920 N.ar  488  HEM488      0.0000
     42  ND         4.5690   28.2560   15.6440 N.2   488  HEM488      0.0000
     43 FE          6.5190   27.7200   16.0360 Fe    488  HEM488      0.0000
@<TRIPOS>BOND
     1    37    36   ar
     2    36    38   ar
     3    36    35    1
     4    35    34    1
     5    13    12   ar
     6    10     6    1
     7    10    11    1
     8    34    31    1
     9     1     5    2
    10     1    32    1
    11     6     5   ar
    12     6     7   ar
    13    12    11    1
    14    12    14   ar
    15     5    39   ar
    16    31    32    1
    17    31    30    2
    18    32    42    2
    19     7     9    1
    20     7     8   ar
    21    39     8   ar
    22    39    43    1
    23     8     2    2
    24    30    33    1
    25    30    29    1
    26    42    43    1
    27    42    29    1
    28    43    40    1
    29    43    41    1
    30    29     4    2
    31     2    15    1
    32    15    40    2
    33    15    16    1
    34    40    18    1
    35     4    25    1
    36    41    25   ar
    37    41    22   ar
    38    18     3    2
    39    18    17    1
    40    16    19    1
    41    16    17    2
    42    25    24   ar
    43     3    22    1
    44    22    23   ar
    45    17    20    1
    46    24    23   ar
    47    24    27    1
    48    23    26    1
    49    27    28    2
    50    20    21    2
