@<TRIPOS>MOLECULE
3ksx_MPO_A_1.pdb
 13 13 0 0 0
SMALL
GASTEIGER

@<TRIPOS>ATOM
      1  S1         8.0570   -0.0740    2.0710 S.3   325  MPO325     -0.1960
      2  O1         8.6380   -0.7500    3.2340 O.3   325  MPO325     -0.3075
      3  O2         9.1960    0.3910    1.2370 O.3   325  MPO325     -0.3075
      4  O4         2.4060    3.1250    6.8820 O.3   325  MPO325     -0.3508
      5  N1         4.4130    2.1400    5.0320 N.3   325  MPO325     -0.2684
      6  C1         7.2810    1.3280    2.6830 C.3   325  MPO325      0.1067
      7  O3         7.0760   -0.8110    1.2160 O.3   325  MPO325     -0.3075
      8  C2         6.1650    0.8970    3.6410 C.3   325  MPO325      0.0388
      9  C3         5.5870    2.2290    4.1690 C.3   325  MPO325      0.0739
     10  C4         3.3520    3.0560    4.6090 C.3   325  MPO325      0.1046
     11  C5         2.1070    2.8990    5.4960 C.3   325  MPO325      0.1595
     12  C6         3.6430    2.5380    7.3420 C.3   325  MPO325      0.1595
     13  C7         4.8040    2.7100    6.3340 C.3   325  MPO325      0.1046
@<TRIPOS>BOND
     1     7     1    1
     2     3     1    1
     3     1     6    1
     4     1     2    1
     5     6     8    1
     6     8     9    1
     7     9     5    1
     8    10     5    1
     9    10    11    1
    10     5    13    1
    11    11     4    1
    12    13    12    1
    13     4    12    1
