@<TRIPOS>MOLECULE
3ksz_NAD_O_1.pdb
 44 48 0 0 0
SMALL
GASTEIGER

@<TRIPOS>ATOM
      1  PA        14.6310    3.5020   16.2630 P.3     0  NAD0        0.2189
      2  O1A       13.1570    3.4880   16.4800 O.2     0  NAD0       -0.5170
      3  O2A       15.3740    2.5730   17.1410 O.3     0  NAD0       -0.4371
      4  O5B       15.2250    5.0170   16.3140 O.3     0  NAD0       -0.3112
      5  C5B       14.5090    6.0960   15.7510 C.3     0  NAD0        0.1813
      6  C4B       14.6160    7.2150   16.7660 C.3     0  NAD0        0.1821
      7  O4B       14.2270    8.4660   16.2510 O.3     0  NAD0       -0.3135
      8  C3B       13.7610    6.9770   17.9920 C.3     0  NAD0        0.2184
      9  O3B       14.6780    6.9690   19.0580 O.3     0  NAD0       -0.2174
     10  C2B       12.8120    8.1660   18.0450 C.3     0  NAD0        0.2570
     11  O2B       12.6230    8.6570   19.3460 O.3     0  NAD0       -0.2130
     12  C1B       13.5920    9.1850   17.2780 C.3     0  NAD0        0.3186
     13  N9A       12.7870   10.1270   16.5270 N.pl3   0  NAD0       -0.1439
     14  C8A       11.6430    9.8820   15.8180 C.3     0  NAD0        0.3377
     15  N7A       11.3070   11.0430   15.2370 N.2     0  NAD0       -0.2095
     16  C5A       12.2370   12.0140   15.5320 C.2     0  NAD0        0.2526
     17  C6A       12.3830   13.3730   15.2160 C.2     0  NAD0        0.4393
     18  N6A       11.5350   13.9890   14.3960 N.pl3   0  NAD0        0.2180
     19  N1A       13.4330   14.1060   15.7130 N.2     0  NAD0        0.0021
     20  C2A       14.3650   13.4880   16.5060 C.3     0  NAD0        0.5254
     21  N3A       14.2140   12.1440   16.8170 N.2     0  NAD0       -0.0055
     22  C4A       13.1660   11.4310   16.3500 C.2     0  NAD0        0.3518
     23  O3        14.7330    3.1310   14.7020 O.3     0  NAD0       -0.2703
     24  PN        15.9160    2.2940   14.0130 P.3     0  NAD0        0.2189
     25  O1N       15.4880    0.8550   13.9810 O.2     0  NAD0       -0.5170
     26  O2N       17.1560    2.6490   14.7580 O.3     0  NAD0       -0.4371
     27  O5D       15.8220    2.8680   12.5000 O.3     0  NAD0       -0.3112
     28  C5D       16.2090    4.1830   12.1500 C.3     0  NAD0        0.1813
     29  C4D       16.3340    4.3090   10.6380 C.3     0  NAD0        0.1799
     30  O4D       17.3560    3.4230   10.2070 O.3     0  NAD0       -0.3327
     31  C3D       15.0920    3.8160    9.9170 C.3     0  NAD0        0.2158
     32  O3D       14.9510    4.4950    8.6810 O.3     0  NAD0       -0.2175
     33  C2D       15.3800    2.3520    9.6690 C.3     0  NAD0        0.2309
     34  O2D       14.6130    1.7570    8.6420 O.3     0  NAD0       -0.2158
     35  C1D       16.8470    2.4260    9.3290 C.3     0  NAD0        0.2263
     36  N1N       17.5500    1.1490    9.5660 N.pl3   0  NAD0       -0.2787
     37  C2N       17.1580    0.2480   10.5270 C.3     0  NAD0        0.1244
     38  C3N       17.8900   -0.9410   10.6950 C.2     0  NAD0        0.0544
     39  C7N       17.5560   -1.9160   11.8280 C.2     0  NAD0        0.2818
     40  O7N       17.0340   -1.3260   13.0000 O.2     0  NAD0       -0.2670
     41  N7N       17.7680   -3.2560   11.7300 N.am    0  NAD0       -0.0839
     42  C4N       18.9920   -1.1800    9.8740 C.2     0  NAD0        0.0033
     43  C5N       19.3690   -0.2630    8.8890 C.2     0  NAD0        0.0157
     44  C6N       18.6410    0.8990    8.7520 C.2     0  NAD0        0.0633
@<TRIPOS>BOND
     1    34    33    1
     2    32    31    1
     3    44    43    2
     4    44    36    1
     5    43    42    1
     6    35    36    1
     7    35    33    1
     8    35    30    1
     9    36    37    1
    10    33    31    1
    11    42    38    2
    12    31    29    1
    13    30    29    1
    14    37    38    1
    15    29    28    1
    16    38    39    1
    17    41    39   am
    18    39    40    2
    19    28    27    1
    20    27    24    1
    21    25    24    2
    22    24    23    1
    23    24    26    1
    24    18    17    1
    25    23     1    1
    26    17    16    1
    27    17    19    2
    28    15    16    2
    29    15    14    1
    30    16    22    1
    31    19    20    1
    32     5     4    1
    33     5     6    1
    34    14    13    1
    35     7     6    1
    36     7    12    1
    37     1     4    1
    38     1     2    2
    39     1     3    1
    40    22    13    1
    41    22    21    2
    42    20    21    1
    43    13    12    1
    44     6     8    1
    45    12    10    1
    46     8    10    1
    47     8     9    1
    48    10    11    1
