@<TRIPOS>MOLECULE
3ksz_3PG_O_1.pdb
 10 9 0 0 0
SMALL
GASTEIGER

@<TRIPOS>ATOM
      1  C1        15.8960   -3.4400    5.7380 C.2   337  3PG337      0.2426
      2  O1        15.4050   -3.6000    4.6140 O.2   337  3PG337     -0.2854
      3  C2        15.7340   -2.1180    6.5370 C.3   337  3PG337      0.2459
      4  O3        17.0400   -1.5470    6.8040 O.3   337  3PG337     -0.2119
      5  C3        14.9540   -2.3510    7.8650 C.3   337  3PG337      0.1946
      6  O1P       13.7240   -1.5620    7.9920 O.3   337  3PG337     -0.2670
      7  P         12.9680   -1.0860    9.4290 P.3   337  3PG337      0.5327
      8  O2P       14.1160   -0.7970   10.5120 O.3   337  3PG337     -0.1145
      9  O3P       12.0250    0.0680    9.2940 O.2   337  3PG337     -0.2224
     10  O4P       12.2350   -2.3940   10.0240 O.3   337  3PG337     -0.1145
@<TRIPOS>BOND
     1     2     1    2
     2     1     3    1
     3     3     4    1
     4     3     5    1
     5     5     6    1
     6     6     7    1
     7     9     7    2
     8     7    10    1
     9     7     8    1
