@<TRIPOS>MOLECULE
3kt7_AKG_A_1.pdb
 10 9 0 0 0
SMALL
GASTEIGER

@<TRIPOS>ATOM
      1  C1       -44.7840  -20.9550  -30.9200 C.2   646  AKG646      0.4219
      2  O1       -44.2560  -20.6800  -32.0240 O.co2 646  AKG646     -0.2373
      3  O2       -44.5940  -20.2480  -29.8990 O.co2 646  AKG646     -0.2373
      4  C2       -45.6410  -22.1370  -30.7740 C.2   646  AKG646      0.2526
      5  O5       -45.9890  -22.4510  -29.6420 O.2   646  AKG646     -0.2843
      6  C3       -46.0940  -22.9540  -31.9710 C.3   646  AKG646      0.0881
      7  C4       -47.3660  -23.7450  -31.6520 C.3   646  AKG646      0.1224
      8  C5       -47.8310  -24.5770  -32.8340 C.2   646  AKG646      0.3653
      9  O3       -47.3100  -24.4110  -33.9590 O.co2 646  AKG646     -0.2456
     10  O4       -48.7300  -25.4220  -32.6420 O.co2 646  AKG646     -0.2456
@<TRIPOS>BOND
     1     9     8   ar
     2     8    10   ar
     3     8     7    1
     4     2     1   ar
     5     6     7    1
     6     6     4    1
     7     1     4    1
     8     1     3   ar
     9     4     5    2
