@<TRIPOS>MOLECULE
3ktl_GTX_A_1.pdb
 26 25 0 0 0
SMALL
GASTEIGER

@<TRIPOS>ATOM
      1  N1       -26.1300    6.2300  -13.1380 N.3   5100  GTX5100    -0.1208
      2  CA1      -26.8360    7.4060  -12.6270 C.3   5100  GTX5100     0.1948
      3  C1       -27.4490    6.9750  -11.3320 C.2   5100  GTX5100     0.3819
      4  O11      -27.8800    7.8200  -10.4980 O.co2 5100  GTX5100    -0.2441
      5  O12      -27.4910    5.7370  -11.0650 O.co2 5100  GTX5100    -0.2441
      6  CB1      -27.9090    7.7970  -13.6640 C.3   5100  GTX5100     0.0402
      7  CG1      -28.6460    9.0720  -13.2620 C.3   5100  GTX5100     0.0889
      8  CD1      -29.7170    9.4530  -14.2980 C.2   5100  GTX5100     0.2418
      9  OE1      -29.6780    8.7760  -15.5250 O.2   5100  GTX5100    -0.2733
     10  N2       -30.6500   10.3830  -13.9990 N.am  5100  GTX5100    -0.1969
     11  CA2      -31.6920   10.8280  -14.9390 C.3   5100  GTX5100     0.1834
     12  C2       -31.3290   12.2550  -15.2440 C.2   5100  GTX5100     0.2626
     13  O2       -31.0320   13.0620  -14.1820 O.2   5100  GTX5100    -0.2714
     14  CB2      -33.0750   10.7830  -14.2770 C.3   5100  GTX5100     0.0886
     15  SG2      -33.4330    9.0660  -13.8210 S.3   5100  GTX5100    -0.1379
     16  C1S      -34.3680    8.7720  -15.3620 C.3   5100  GTX5100     0.0576
     17  C2S      -35.2500    7.5000  -15.2860 C.3   5100  GTX5100     0.0116
     18  C3S      -36.5920    7.6790  -15.9860 C.3   5100  GTX5100     0.0009
     19  C4S      -37.1280    6.3170  -16.3610 C.3   5100  GTX5100     0.0000
     20  C5S      -37.9840    6.4420  -17.6150 C.3   5100  GTX5100     0.0000
     21  C6S      -38.3970    5.0520  -18.0590 C.3   5100  GTX5100     0.0000
     22  N3       -31.3220   12.6460  -16.5090 N.am  5100  GTX5100    -0.1917
     23  CA3      -31.1670   14.0410  -16.9010 C.3   5100  GTX5100     0.2285
     24  C3       -29.8530   14.1370  -17.6050 C.2   5100  GTX5100     0.3865
     25  O31      -29.5500   15.1990  -18.1750 O.co2 5100  GTX5100    -0.2437
     26  O32      -29.1120   13.1130  -17.6850 O.co2 5100  GTX5100    -0.2437
@<TRIPOS>BOND
     1    25    24   ar
     2    21    20    1
     3    26    24   ar
     4    20    19    1
     5    24    23    1
     6    23    22    1
     7    22    12   am
     8    19    18    1
     9    18    17    1
    10     9     8    2
    11    16    17    1
    12    16    15    1
    13    12    11    1
    14    12    13    2
    15    11    14    1
    16    11    10    1
    17     8    10   am
    18     8     7    1
    19    14    15    1
    20     6     7    1
    21     6     2    1
    22     1     2    1
    23     2     3    1
    24     3     5   ar
    25     3     4   ar
