@<TRIPOS>MOLECULE
3ktq_DCT_A_1.pdb
 27 28 0 0 0
SMALL
GASTEIGER

@<TRIPOS>ATOM
      1  N1        -7.4080   26.5730   -7.6960 N.am  113  DCT113     -0.1803
      2  C2        -7.9120   26.5060   -9.0050 C.1   113  DCT113      0.2756
      3  N3        -7.0840   26.1800  -10.0150 N.2   113  DCT113     -0.3024
      4  C4        -5.7940   25.9320   -9.7690 C.2   113  DCT113      0.2346
      5  C5        -5.2470   26.0120   -8.4540 C.2   113  DCT113      0.0687
      6  C6        -6.0790   26.3330   -7.4580 C.2   113  DCT113      0.0835
      7  O2        -9.1040   26.7480   -9.2060 O.2   113  DCT113     -0.1925
      8  N4        -5.0160   25.5970  -10.8010 N.pl3 113  DCT113     -0.0921
      9  C1'       -8.3340   26.8830   -6.5910 C.3   113  DCT113      0.2063
     10  C2'       -8.9360   25.6210   -5.9740 C.3   113  DCT113      0.0545
     11  C3'       -7.9870   25.3690   -4.8110 C.3   113  DCT113      0.0366
     12  C4'       -7.6990   26.7800   -4.3380 C.3   113  DCT113      0.1472
     13  O4'       -7.6190   27.5480   -5.5650 O.3   113  DCT113     -0.3366
     14  C5'       -6.4240   26.9610   -3.5540 C.3   113  DCT113      0.1785
     15  O5'       -5.2880   26.5870   -4.3490 O.3   113  DCT113     -0.3113
     16  PA        -4.0840   25.7600   -3.7170 P.3   113  DCT113      0.2189
     17  O1A       -2.9170   25.8240   -4.6290 O.2   113  DCT113     -0.5170
     18  O2A       -3.9250   26.0930   -2.2880 O.3   113  DCT113     -0.4371
     19  O3A       -4.8320   24.3460   -3.8420 O.3   113  DCT113     -0.2700
     20  PB        -5.5270   23.1600   -2.9780 P.3   113  DCT113      0.2277
     21  O1B       -6.2140   22.2850   -3.9560 O.2   113  DCT113     -0.5168
     22  O2B       -6.2930   23.6950   -1.8280 O.3   113  DCT113     -0.4368
     23  O3B       -4.3700   22.1860   -2.4070 O.3   113  DCT113     -0.2258
     24  PG        -3.2300   21.9930   -1.2770 P.3   113  DCT113      0.5373
     25  O1G       -3.0710   23.2070   -0.4500 O.3   113  DCT113     -0.1143
     26  O2G       -3.4370   20.6790   -0.6220 O.3   113  DCT113     -0.1143
     27  O3G       -1.8690   21.8390   -2.1170 O.2   113  DCT113     -0.2221
@<TRIPOS>BOND
     1     8     4    1
     2     3     4    2
     3     3     2    2
     4     4     5    1
     5     7     2    2
     6     2     1   am
     7     5     6    2
     8     1     6    1
     9     1     9    1
    10     9    10    1
    11     9    13    1
    12    10    11    1
    13    13    12    1
    14    11    12    1
    15    17    16    2
    16    15    16    1
    17    15    14    1
    18    12    14    1
    19    21    20    2
    20    19    16    1
    21    19    20    1
    22    16    18    1
    23    20    23    1
    24    20    22    1
    25    23    24    1
    26    27    24    2
    27    24    26    1
    28    24    25    1
