@<TRIPOS>MOLECULE
3ktx_PTK_A_1.pdb
 32 35 0 0 0
SMALL
GASTEIGER

@<TRIPOS>ATOM
      1  OAA       37.0790   64.8420    3.2530 O.3   501  PTK501     -0.0650
      2  OAB       39.1670   66.0030    3.7780 O.3   501  PTK501     -0.0650
      3  OAC       37.3500   62.6340   -2.2930 O.3   501  PTK501     -0.0650
      4  OAD       36.9740   64.9560   -2.9900 O.3   501  PTK501     -0.0650
      5  OAE       45.9270   64.8520    3.2220 O.3   501  PTK501     -0.0650
      6  OAF       45.9900   67.1550    2.3070 O.3   501  PTK501     -0.0650
      7  OAG       44.0220   63.6530   -3.5690 O.3   501  PTK501     -0.0650
      8  OAH       45.8670   65.2470   -3.1770 O.3   501  PTK501     -0.0650
      9  OAI       37.3920   67.1690    2.5390 O.3   501  PTK501     -0.0650
     10  OAJ       39.0580   63.8310   -3.6040 O.3   501  PTK501     -0.0650
     11  OAK       44.0490   66.3890    3.6230 O.3   501  PTK501     -0.0650
     12  OAL       45.9980   62.9420   -2.2780 O.3   501  PTK501     -0.0650
     13  CAM       38.0940   64.9070    0.1050 C.ar  501  PTK501      0.0378
     14  CAN       45.0120   65.0320    0.0170 C.ar  501  PTK501      0.0378
     15  CAO       40.8820   65.7600    2.3340 C.ar  501  PTK501      0.0013
     16  CAP       42.2630   65.7850    2.3190 C.ar  501  PTK501      0.0013
     17  CAQ       40.8540   64.1500   -2.2060 C.ar  501  PTK501      0.0013
     18  CAR       42.2370   64.1760   -2.2220 C.ar  501  PTK501      0.0013
     19  CAS       38.8110   65.3220    1.2350 C.ar  501  PTK501      0.1136
     20  CAT       38.7910   64.5150   -1.0460 C.ar  501  PTK501      0.1136
     21  CAU       44.3140   65.4210    1.1590 C.ar  501  PTK501      0.1136
     22  CAV       44.3000   64.6180   -1.1070 C.ar  501  PTK501      0.1136
     23  CAW       40.1930   65.3440    1.2030 C.ar  501  PTK501      0.0177
     24  CAX       40.1750   64.5410   -1.0580 C.ar  501  PTK501      0.0177
     25  CAY       42.9350   65.3930    1.1700 C.ar  501  PTK501      0.0177
     26  CAZ       42.9220   64.5930   -1.0900 C.ar  501  PTK501      0.0177
     27  CBA       40.8690   64.9550    0.0630 C.ar  501  PTK501      0.0026
     28  CBB       42.2430   64.9800    0.0480 C.ar  501  PTK501      0.0026
     29  SBC       38.0780   65.8470    2.7540 S.3   501  PTK501      0.0421
     30  SBD       38.0100   63.9670   -2.5330 S.3   501  PTK501      0.0421
     31  SBE       45.1080   65.9730    2.6330 S.3   501  PTK501      0.0421
     32  SBF       45.0800   64.1000   -2.5920 S.3   501  PTK501      0.0421
@<TRIPOS>BOND
     1    10    30    1
     2     7    32    1
     3     8    32    1
     4     4    30    1
     5    32    12    1
     6    32    22    1
     7    30     3    1
     8    30    20    1
     9    18    17   ar
    10    18    26   ar
    11    17    24   ar
    12    22    26   ar
    13    22    14   ar
    14    26    28   ar
    15    24    20   ar
    16    24    27   ar
    17    20    13   ar
    18    14    21   ar
    19    28    27   ar
    20    28    25   ar
    21    27    23   ar
    22    13    19   ar
    23    21    25   ar
    24    21    31    1
    25    25    16   ar
    26    23    19   ar
    27    23    15   ar
    28    19    29    1
    29     6    31    1
    30    16    15   ar
    31     9    29    1
    32    31     5    1
    33    31    11    1
    34    29     1    1
    35    29     2    1
