@<TRIPOS>MOLECULE
3ku0_ADE_A_1.pdb
 10 11 0 0 0
SMALL
GASTEIGER

@<TRIPOS>ATOM
      1  N9        14.8830    4.3970   55.7440 N.2   800  ADE800     -0.1914
      2  C8        15.1320    4.5050   57.0890 C.3   800  ADE800      0.2618
      3  N7        15.1490    3.3550   57.7180 N.2   800  ADE800     -0.2267
      4  C5        14.8940    2.4230   56.7190 C.2   800  ADE800      0.2303
      5  C6        14.7760    1.0130   56.7380 C.2   800  ADE800      0.4393
      6  N6        14.9040    0.2690   57.8420 N.pl3 800  ADE800      0.2185
      7  N1        14.5150    0.3920   55.5690 N.2   800  ADE800     -0.0265
      8  C2        14.3770    1.1370   54.4600 C.3   800  ADE800      0.4008
      9  N3        14.4640    2.4630   54.3150 N.2   800  ADE800     -0.1640
     10  C4        14.7270    3.0520   55.4970 C.1   800  ADE800      0.0579
@<TRIPOS>BOND
     1     9     8    1
     2     9    10    2
     3     8     7    1
     4    10     1    2
     5    10     4    1
     6     7     5    2
     7     1     2    1
     8     4     5    1
     9     4     3    2
    10     5     6    1
    11     2     3    1
