@<TRIPOS>MOLECULE
3ku1_SAM_A_1.pdb
 27 29 0 0 0
SMALL
GASTEIGER

@<TRIPOS>ATOM
      1  N         39.1380   33.5820   -3.6060 N.3   226  SAM226     -0.1208
      2  CA        40.5420   33.2220   -3.1620 C.3   226  SAM226      0.1952
      3  C         40.4920   32.4340   -1.8760 C.2   226  SAM226      0.3819
      4  O         41.2720   31.5210   -1.6600 O.co2 226  SAM226     -0.2441
      5  OXT       39.6660   32.7040   -1.0140 O.co2 226  SAM226     -0.2441
      6  CB        41.5050   34.3820   -2.9150 C.3   226  SAM226      0.0414
      7  CG        41.4440   34.9450   -1.5030 C.3   226  SAM226      0.0503
      8  SD        42.5760   36.3100   -1.1110 S.3   226  SAM226     -0.1761
      9  CE        42.3060   36.4300    0.6830 C.3   226  SAM226      0.0590
     10  C5'       41.8790   37.8260   -1.7980 C.3   226  SAM226      0.0806
     11  C4'       42.1250   37.9390   -3.2960 C.3   226  SAM226      0.1622
     12  O4'       41.0260   38.5920   -3.9020 O.3   226  SAM226     -0.3153
     13  C3'       43.3360   38.7850   -3.6980 C.3   226  SAM226      0.2168
     14  O3'       44.1620   38.0220   -4.5510 O.3   226  SAM226     -0.2175
     15  C2'       42.7850   39.9460   -4.5010 C.3   226  SAM226      0.2569
     16  O2'       43.7140   40.3120   -5.4880 O.3   226  SAM226     -0.2130
     17  C1'       41.5530   39.2300   -5.0310 C.3   226  SAM226      0.3185
     18  N9        40.5750   39.9740   -5.8470 N.pl3 226  SAM226     -0.1439
     19  C8        40.2640   39.6220   -7.1620 C.3   226  SAM226      0.3377
     20  N7        39.3430   40.4490   -7.7330 N.2   226  SAM226     -0.2095
     21  C5        39.0870   41.3160   -6.7640 C.2   226  SAM226      0.2526
     22  C6        38.2420   42.3180   -6.8920 C.2   226  SAM226      0.4393
     23  N6        37.6910   42.3770   -8.0610 N.pl3 226  SAM226      0.2180
     24  N1        38.0630   43.1450   -5.8320 N.2   226  SAM226      0.0021
     25  C2        38.8030   42.8870   -4.6480 C.3   226  SAM226      0.5254
     26  N3        39.6980   41.8370   -4.5020 N.2   226  SAM226     -0.0055
     27  C4        39.8220   41.0720   -5.5790 C.2   226  SAM226      0.3518
@<TRIPOS>BOND
     1    23    22    1
     2    20    19    1
     3    20    21    2
     4    19    18    1
     5    22    21    1
     6    22    24    2
     7    21    27    1
     8    18    27    1
     9    18    17    1
    10    24    25    1
    11    27    26    2
    12    16    15    1
    13    17    15    1
    14    17    12    1
    15    25    26    1
    16    14    13    1
    17    15    13    1
    18    12    11    1
    19    13    11    1
    20     1     2    1
    21    11    10    1
    22     2     6    1
    23     2     3    1
    24     6     7    1
    25     3     4   ar
    26     3     5   ar
    27    10     8    1
    28     7     8    1
    29     8     9    1
