@<TRIPOS>MOLECULE
3ku2_ANP_A_1.pdb
 28 30 0 0 0
SMALL
GASTEIGER

@<TRIPOS>ATOM
      1  PG        -1.6020   -3.9010   32.8950 P.3   508  ANP508      0.0905
      2  PB         0.0810   -1.5450   32.3950 P.3   508  ANP508      0.4613
      3  O1B        0.7220   -0.5100   33.2470 O.3   508  ANP508     -0.1254
      4  O2B       -0.6970   -0.8510   31.1190 O.2   508  ANP508     -0.2353
      5  N3B       -1.0520   -2.3760   33.4110 N.3   508  ANP508     -0.0934
      6  PA         1.6320   -2.7370   30.3040 P.3   508  ANP508      0.2220
      7  O1A        1.7270   -1.3730   29.6960 O.3   508  ANP508     -0.4370
      8  O2A        0.5160   -3.6350   29.5800 O.2   508  ANP508     -0.5170
      9  O3A        1.3160   -2.5330   31.9090 O.3   508  ANP508     -0.2361
     10  O5'        3.0440   -3.5320   30.1670 O.3   508  ANP508     -0.3111
     11  C5'        4.1060   -2.7520   30.7330 C.3   508  ANP508      0.1813
     12  C4'        5.3810   -3.5870   30.8350 C.3   508  ANP508      0.1821
     13  O4'        5.1230   -4.8490   31.5140 O.3   508  ANP508     -0.3135
     14  C3'        6.0720   -3.8800   29.4770 C.3   508  ANP508      0.2184
     15  O3'        7.5030   -3.6970   29.6520 O.3   508  ANP508     -0.2174
     16  C2'        5.8890   -5.3910   29.2900 C.3   508  ANP508      0.2570
     17  O2'        5.2470   -5.7850   28.1250 O.3   508  ANP508     -0.2130
     18  C1'        5.4250   -5.9760   30.6580 C.3   508  ANP508      0.3186
     19  N9         4.4450   -7.0960   30.7220 N.pl3 508  ANP508     -0.1439
     20  C8         3.0780   -6.9840   30.8580 C.3   508  ANP508      0.3377
     21  N7         2.5180   -8.1430   30.9260 N.2   508  ANP508     -0.2095
     22  C5         3.4700   -9.0920   30.8810 C.2   508  ANP508      0.2526
     23  C6         3.4720  -10.5230   30.9300 C.2   508  ANP508      0.4393
     24  N6         2.2990  -11.1880   31.0430 N.pl3 508  ANP508      0.2180
     25  N1         4.6330  -11.1950   30.8560 N.2   508  ANP508      0.0021
     26  C2         5.7930  -10.5340   30.7740 C.3   508  ANP508      0.5254
     27  N3         5.8620   -9.1880   30.7140 N.2   508  ANP508     -0.0055
     28  C4         4.7300   -8.4320   30.7520 C.2   508  ANP508      0.3518
@<TRIPOS>BOND
     1    17    16    1
     2    16    14    1
     3    16    18    1
     4    14    15    1
     5    14    12    1
     6     8     6    2
     7     7     6    1
     8    10     6    1
     9    10    11    1
    10     6     9    1
    11    18    19    1
    12    18    13    1
    13    27    28    2
    14    27    26    1
    15    19    28    1
    16    19    20    1
    17    11    12    1
    18    28    22    1
    19    26    25    1
    20    12    13    1
    21    25    23    2
    22    20    21    1
    23    22    21    2
    24    22    23    1
    25    23    24    1
    26     4     2    2
    27     9     2    1
    28     2     3    1
    29     2     5    1
    30     1     5    1
