@<TRIPOS>MOLECULE
3ku9_SPM_A_1.pdb
 14 13 0 0 0
SMALL
GASTEIGER

@<TRIPOS>ATOM
      1  N1       -61.3170   31.2250   35.8470 N.3   700  SPM700     -0.1313
      2  C2       -61.2390   31.0330   34.4180 C.3   700  SPM700      0.1108
      3  C3       -59.8180   30.6840   34.0460 C.3   700  SPM700      0.0393
      4  C4       -59.7750   30.1700   32.6330 C.3   700  SPM700      0.0902
      5  N5       -59.2410   31.2020   31.7980 N.3   700  SPM700     -0.2180
      6  C6       -58.7620   30.9230   30.4740 C.3   700  SPM700      0.0887
      7  C7       -59.1780   32.0530   29.5580 C.3   700  SPM700      0.0203
      8  C8       -58.2500   33.2370   29.7150 C.3   700  SPM700      0.0203
      9  C9       -58.3320   34.1370   28.5030 C.3   700  SPM700      0.0887
     10  N10      -59.3040   35.1940   28.6600 N.3   700  SPM700     -0.2180
     11  C11      -58.9080   36.4370   29.2850 C.3   700  SPM700      0.0902
     12  C12      -58.5940   37.5370   28.2820 C.3   700  SPM700      0.0393
     13  C13      -58.0700   38.7980   28.9530 C.3   700  SPM700      0.1108
     14  N14      -59.1570   39.6290   29.4280 N.3   700  SPM700     -0.1313
@<TRIPOS>BOND
     1    12    13    1
     2    12    11    1
     3     9    10    1
     4     9     8    1
     5    10    11    1
     6    13    14    1
     7     7     8    1
     8     7     6    1
     9     6     5    1
    10     5     4    1
    11     4     3    1
    12     3     2    1
    13     2     1    1
