@<TRIPOS>MOLECULE
3kuc_GDP_A_1.pdb
 28 30 0 0 0
SMALL
GASTEIGER

@<TRIPOS>ATOM
      1  PB        -1.2940   -9.8380   21.0070 P.3   170  GDP170      0.5373
      2  O1B       -2.4580   -9.6270   22.0290 O.3   170  GDP170     -0.1143
      3  O2B       -1.2790  -11.1540   20.4270 O.3   170  GDP170     -0.1143
      4  O3B       -1.2200   -8.7340   19.9300 O.2   170  GDP170     -0.2221
      5  O3A        0.0710   -9.6390   21.8930 O.3   170  GDP170     -0.2261
      6  PA         1.3300  -10.6150   22.0270 P.3   170  GDP170      0.2231
      7  O1A        1.9450  -10.4390   20.6450 O.2   170  GDP170     -0.5169
      8  O2A        1.0370  -11.9440   22.5510 O.3   170  GDP170     -0.4370
      9  O5'        2.1990   -9.8080   23.1090 O.3   170  GDP170     -0.3111
     10  C5'        2.5130   -8.4210   22.9490 C.3   170  GDP170      0.1813
     11  C4'        3.8080   -8.1350   23.7740 C.3   170  GDP170      0.1799
     12  O4'        3.5630   -8.3390   25.1790 O.3   170  GDP170     -0.3326
     13  C3'        4.8920   -9.1510   23.4450 C.3   170  GDP170      0.2158
     14  O3'        6.1940   -8.5500   23.4750 O.3   170  GDP170     -0.2175
     15  C2'        4.8730  -10.1420   24.5670 C.3   170  GDP170      0.2310
     16  O2'        6.1750  -10.5640   24.8210 O.3   170  GDP170     -0.2158
     17  C1'        4.4050   -9.2790   25.7310 C.3   170  GDP170      0.2293
     18  N9         3.6020  -10.0270   26.6930 N.pl3 170  GDP170     -0.2354
     19  C8         2.5370  -10.8280   26.4100 C.3   170  GDP170      0.2246
     20  N7         2.0580  -11.3560   27.5350 N.2   170  GDP170     -0.2322
     21  C5         2.8670  -10.9250   28.5460 C.2   170  GDP170      0.2182
     22  C6         2.9670  -11.1220   29.9780 C.1   170  GDP170      0.2372
     23  O6         2.1160  -11.8010   30.5500 O.2   170  GDP170     -0.2069
     24  N1         3.9370  -10.4530   30.6660 N.2   170  GDP170     -0.2485
     25  C2         4.8670   -9.7060   30.0390 C.1   170  GDP170      0.2531
     26  N2         5.8230   -9.0490   30.7320 N.pl3 170  GDP170     -0.0226
     27  N3         4.8410   -9.4760   28.7200 N.2   170  GDP170     -0.3074
     28  C4         3.8600  -10.0340   27.9770 C.2   170  GDP170      0.2300
@<TRIPOS>BOND
     1     4     1    2
     2     3     1    1
     3     7     6    2
     4     1     5    1
     5     1     2    1
     6     5     6    1
     7     6     8    1
     8     6     9    1
     9    10     9    1
    10    10    11    1
    11    13    14    1
    12    13    11    1
    13    13    15    1
    14    11    12    1
    15    15    16    1
    16    15    17    1
    17    12    17    1
    18    17    18    1
    19    19    18    1
    20    19    20    1
    21    18    28    1
    22    20    21    2
    23    28    21    1
    24    28    27    2
    25    21    22    1
    26    27    25    2
    27    22    23    2
    28    22    24    2
    29    25    24    2
    30    25    26    1
