@<TRIPOS>MOLECULE
3kud_GDP_A_1.pdb
 28 30 0 0 0
SMALL
GASTEIGER

@<TRIPOS>ATOM
      1  PB       -29.1050  -24.5420  -27.3100 P.3   170  GDP170      0.5373
      2  O1B      -29.8310  -23.6110  -28.2250 O.2   170  GDP170     -0.2221
      3  O2B      -27.6960  -24.0230  -26.9660 O.3   170  GDP170     -0.1143
      4  O3B      -30.0530  -24.6720  -26.1130 O.3   170  GDP170     -0.1143
      5  O3A      -29.0110  -26.0360  -27.8210 O.3   170  GDP170     -0.2261
      6  PA       -27.7050  -26.9560  -27.7280 P.3   170  GDP170      0.2231
      7  O1A      -27.5450  -27.2030  -26.3070 O.3   170  GDP170     -0.4370
      8  O2A      -26.5520  -26.2920  -28.4860 O.2   170  GDP170     -0.5169
      9  O5'      -28.1690  -28.3120  -28.4550 O.3   170  GDP170     -0.3111
     10  C5'      -29.5200  -28.8100  -28.2460 C.3   170  GDP170      0.1813
     11  C4'      -29.4960  -30.3040  -28.6140 C.3   170  GDP170      0.1799
     12  O4'      -29.5790  -30.4150  -30.0520 O.3   170  GDP170     -0.3326
     13  C3'      -28.1610  -30.9700  -28.2290 C.3   170  GDP170      0.2158
     14  O3'      -28.3710  -32.3630  -28.1460 O.3   170  GDP170     -0.2175
     15  C2'      -27.3570  -30.8380  -29.4910 C.3   170  GDP170      0.2310
     16  O2'      -26.4850  -31.9380  -29.6160 O.3   170  GDP170     -0.2158
     17  C1'      -28.4050  -31.0440  -30.5780 C.3   170  GDP170      0.2293
     18  N9       -27.9600  -30.3030  -31.7720 N.pl3 170  GDP170     -0.2354
     19  C8       -27.4790  -29.0390  -31.7740 C.3   170  GDP170      0.2246
     20  N7       -27.1490  -28.6610  -33.0320 N.2   170  GDP170     -0.2322
     21  C5       -27.4620  -29.6900  -33.8640 C.2   170  GDP170      0.2182
     22  C6       -27.3640  -29.9590  -35.3110 C.1   170  GDP170      0.2372
     23  O6       -26.9560  -29.1150  -36.1390 O.2   170  GDP170     -0.2069
     24  N1       -27.7660  -31.1590  -35.7450 N.2   170  GDP170     -0.2485
     25  C2       -28.2400  -32.1030  -34.8960 C.1   170  GDP170      0.2531
     26  N2       -28.5890  -33.2840  -35.4220 N.pl3 170  GDP170     -0.0226
     27  N3       -28.3660  -31.9570  -33.5700 N.2   170  GDP170     -0.3074
     28  C4       -27.9970  -30.7740  -33.0210 C.2   170  GDP170      0.2300
@<TRIPOS>BOND
     1    23    22    2
     2    24    22    2
     3    24    25    2
     4    26    25    1
     5    22    21    1
     6    25    27    2
     7    21    20    2
     8    21    28    1
     9    27    28    2
    10    20    19    1
    11    28    18    1
    12    19    18    1
    13    18    17    1
    14    17    12    1
    15    17    15    1
    16    12    11    1
    17    16    15    1
    18    15    13    1
    19    11    10    1
    20    11    13    1
    21     8     6    2
    22     9    10    1
    23     9     6    1
    24    13    14    1
    25     2     1    2
    26     5     6    1
    27     5     1    1
    28     6     7    1
    29     1     3    1
    30     1     4    1
