@<TRIPOS>MOLECULE
3kuh_APC_A_1.pdb
 31 33 0 0 0
SMALL
GASTEIGER

@<TRIPOS>ATOM
      1  PG        -6.0630    2.0440    3.7480 P.3   171  APC171      0.5389
      2  O1G       -6.4540    0.6400    3.3550 O.3   171  APC171     -0.1143
      3  O2G       -4.9900    2.6610    2.8660 O.2   171  APC171     -0.2220
      4  O3G       -5.6830    2.1250    5.2000 O.3   171  APC171     -0.1143
      5  PB        -8.8470    2.8110    4.0710 P.3   171  APC171      0.3895
      6  O1B       -8.7290    1.9700    5.3200 O.3   171  APC171     -0.1388
      7  O2B       -9.4790    4.1640    4.1960 O.2   171  APC171     -0.2544
      8  O3B       -7.3680    3.0020    3.4920 O.3   171  APC171     -0.2026
      9  PA       -11.4030    1.5760    3.1940 P.3   171  APC171      0.3820
     10  O1A      -11.5960    1.4940    4.6700 O.3   171  APC171     -0.1392
     11  O2A      -12.2570    2.5540    2.4630 O.2   171  APC171     -0.2548
     12  C3A       -9.6730    1.8530    2.7960 C.3   171  APC171      0.2357
     13  O5'      -11.7400    0.0850    2.7190 O.3   171  APC171     -0.2896
     14  C5'      -11.7820   -0.1700    1.3010 C.3   171  APC171      0.1836
     15  C4'      -11.8700   -1.6560    1.0870 C.3   171  APC171      0.1822
     16  O4'      -10.6930   -2.2890    1.6470 O.3   171  APC171     -0.3135
     17  C3'      -13.0170   -2.3880    1.7920 C.3   171  APC171      0.2184
     18  O3'      -14.2580   -2.3070    1.1530 O.3   171  APC171     -0.2174
     19  C2'      -12.4810   -3.7970    1.9600 C.3   171  APC171      0.2570
     20  O2'      -13.1330   -4.6940    1.0380 O.3   171  APC171     -0.2130
     21  C1'      -11.0130   -3.6850    1.5890 C.3   171  APC171      0.3186
     22  N9       -10.0920   -4.4140    2.4440 N.pl3 171  APC171     -0.1439
     23  C8        -9.1070   -5.2380    1.9680 C.3   171  APC171      0.3377
     24  N7        -8.3640   -5.7590    2.9270 N.2   171  APC171     -0.2095
     25  C5        -8.9170   -5.2350    4.0940 C.2   171  APC171      0.2526
     26  C6        -8.5430   -5.4410    5.4370 C.2   171  APC171      0.4393
     27  N6        -7.5050   -6.2350    5.7670 N.pl3 171  APC171      0.2180
     28  N1        -9.2660   -4.8050    6.3910 N.2   171  APC171      0.0021
     29  C2       -10.2780   -4.0240    5.9790 C.3   171  APC171      0.5254
     30  N3       -10.7250   -3.7620    4.7480 N.2   171  APC171     -0.0055
     31  C4        -9.9890   -4.4000    3.8290 C.2   171  APC171      0.3518
@<TRIPOS>BOND
     1    20    19    1
     2    15    14    1
     3    15    16    1
     4    15    17    1
     5    18    17    1
     6    14    13    1
     7    21    16    1
     8    21    19    1
     9    21    22    1
    10    17    19    1
    11    23    22    1
    12    23    24    1
    13    22    31    1
    14    11     9    2
    15    13     9    1
    16    12     9    1
    17    12     5    1
    18     3     1    2
    19    24    25    2
    20     9    10    1
    21     2     1    1
    22     8     1    1
    23     8     5    1
    24     1     4    1
    25    31    25    1
    26    31    30    2
    27     5     7    2
    28     5     6    1
    29    25    26    1
    30    30    29    1
    31    26    27    1
    32    26    28    2
    33    29    28    1
