@<TRIPOS>MOLECULE
3kuh_PH2_A_1.pdb
 14 15 0 0 0
SMALL
GASTEIGER

@<TRIPOS>ATOM
      1  N1        -5.5460    6.1620    7.6410 N.2   181  PH2181     -0.3830
      2  C2        -5.7620    6.5110    6.4160 C.2   181  PH2181      0.1470
      3  C3        -5.3670    7.8730    5.9160 C.3   181  PH2181      0.1940
      4  N4        -4.1590    8.3130    6.6270 N.2   181  PH2181     -0.1992
      5  N5        -3.2880    8.7430    8.7720 N.2   181  PH2181     -0.2672
      6  C6        -3.1930    8.4610   10.0580 C.1   181  PH2181      0.2609
      7  N6        -2.3650    9.2160   10.8460 N.pl3 181  PH2181     -0.0220
      8  N7        -3.8760    7.4250   10.6160 N.2   181  PH2181     -0.2466
      9  C8        -4.6810    6.6440    9.8600 C.1   181  PH2181      0.2569
     10  O8        -5.3060    5.7220   10.3660 O.2   181  PH2181     -0.2052
     11  C9        -4.7930    6.9330    8.4820 C.2   181  PH2181      0.2989
     12  C10       -4.0590    8.0160    7.9720 C.1   181  PH2181      0.1401
     13  C11       -6.5830    5.6450    5.4990 C.3   181  PH2181      0.2380
     14  O4        -7.1810    4.5760    6.2320 O.3   181  PH2181     -0.2126
@<TRIPOS>BOND
     1    13    14    1
     2    13     2    1
     3     3     2    1
     4     3     4    1
     5     2     1    2
     6     4    12    2
     7     1    11    2
     8    12    11    1
     9    12     5    2
    10    11     9    1
    11     5     6    2
    12     9    10    2
    13     9     8    2
    14     6     8    2
    15     6     7    1
