@<TRIPOS>MOLECULE
3kuk_DUR_A_1.pdb
 16 17 0 0 0
SMALL
GASTEIGER

@<TRIPOS>ATOM
      1  N1        -5.3240   38.4320 -124.9550 N.am  311  DUR311     -0.1790
      2  C2        -5.1020   37.0200 -125.2770 C.1   311  DUR311      0.2844
      3  N3        -6.0560   36.0760 -124.8810 N.2   311  DUR311     -0.2452
      4  C4        -7.2020   36.4590 -124.1960 C.1   311  DUR311      0.2182
      5  C5        -7.4110   37.8100 -123.8920 C.2   311  DUR311      0.1242
      6  C6        -6.4410   38.7860 -124.2920 C.2   311  DUR311      0.0928
      7  O2        -4.1260   36.6500 -125.8550 O.2   311  DUR311     -0.1918
      8  O4        -8.1480   35.4890 -123.8220 O.2   311  DUR311     -0.2085
      9  C1'       -4.3630   39.4990 -125.2960 C.3   311  DUR311      0.2090
     10  C2'       -3.2170   39.1500 -126.1560 C.3   311  DUR311      0.0874
     11  C3'       -3.4800   39.8090 -127.5030 C.3   311  DUR311      0.1858
     12  C4'       -4.8930   40.5230 -127.2720 C.3   311  DUR311      0.1802
     13  O3'       -2.4520   40.6300 -128.0220 O.3   311  DUR311     -0.2203
     14  O4'       -4.9790   40.6610 -125.8130 O.3   311  DUR311     -0.3338
     15  C5'       -6.1400   39.9110 -127.8930 C.3   311  DUR311      0.2141
     16  O5'       -7.3260   40.4460 -127.3680 O.3   311  DUR311     -0.2176
@<TRIPOS>BOND
     1    13    11    1
     2    15    16    1
     3    15    12    1
     4    11    12    1
     5    11    10    1
     6    12    14    1
     7    10     9    1
     8     7     2    2
     9    14     9    1
    10     9     1    1
    11     2     1   am
    12     2     3    2
    13     1     6    1
    14     3     4    2
    15     6     5    2
    16     4     5    1
    17     4     8    2
