@<TRIPOS>MOLECULE
3kum_ARG_A_1.pdb
 11 10 0 0 0
SMALL
GASTEIGER

@<TRIPOS>ATOM
      1  N         74.3200   -3.8310    5.3490 N.3   355  ARG355     -0.1245
      2  CA        72.9800   -3.9360    4.6870 C.3   355  ARG355      0.1563
      3  C         72.0380   -4.7700    5.5460 C.2   355  ARG355      0.2260
      4  O         72.4730   -5.6790    6.2610 O.2   355  ARG355     -0.2867
      5  CB        73.1160   -4.6040    3.3180 C.3   355  ARG355      0.0307
      6  CG        74.2610   -4.0940    2.4880 C.3   355  ARG355      0.0489
      7  CD        74.6190   -5.1160    1.4370 C.3   355  ARG355      0.2205
      8  NE        75.9610   -4.9090    0.9110 N.pl3 355  ARG355     -0.0865
      9  CZ        76.6360   -5.8220    0.2220 C.cat 355  ARG355      0.5346
     10  NH1       76.0900   -7.0070   -0.0210 N.pl3 355  ARG355      0.1354
     11  NH2       77.8540   -5.5510   -0.2260 N.pl3 355  ARG355      0.1354
@<TRIPOS>BOND
     1    11     9    1
     2    10     9    1
     3     9     8    2
     4     8     7    1
     5     7     6    1
     6     6     5    1
     7     5     2    1
     8     2     1    1
     9     2     3    1
    10     3     4    2
