@<TRIPOS>MOLECULE
3kum_TYR_A_1.pdb
 13 13 0 0 0
SMALL
GASTEIGER

@<TRIPOS>ATOM
      1  N         70.7480   -4.4610    5.4660 N.3   356  TYR356     -0.1205
      2  CA        69.7360   -5.1850    6.2260 C.3   356  TYR356      0.1986
      3  C         70.0550   -5.2860    7.7160 C.2   356  TYR356      0.3822
      4  O         70.8830   -4.4870    8.2110 O.co2 356  TYR356     -0.2440
      5  CB        69.5600   -6.5860    5.6450 C.3   356  TYR356      0.0569
      6  CG        69.0340   -6.5960    4.2310 C.ar  356  TYR356     -0.0200
      7  CD1       69.5030   -7.5270    3.3100 C.ar  356  TYR356     -0.0009
      8  CD2       68.0620   -5.6800    3.8120 C.ar  356  TYR356     -0.0009
      9  CE1       69.0260   -7.5550    2.0090 C.ar  356  TYR356      0.0417
     10  CE2       67.5760   -5.6950    2.5030 C.ar  356  TYR356      0.0417
     11  CZ        68.0680   -6.6390    1.6070 C.ar  356  TYR356      0.1957
     12  OH        67.6350   -6.6690    0.3020 O.3   356  TYR356     -0.2866
     13  OXT       69.4440   -6.1630    8.3710 O.co2 356  TYR356     -0.2440
@<TRIPOS>BOND
     1    12    11    1
     2    11     9   ar
     3    11    10   ar
     4     9     7   ar
     5    10     8   ar
     6     7     6   ar
     7     8     6   ar
     8     6     5    1
     9     1     2    1
    10     5     2    1
    11     2     3    1
    12     3     4   ar
    13     3    13   ar
