@<TRIPOS>MOLECULE
3kun_HEM_A_1.pdb
 43 50 0 0 0
SMALL
GASTEIGER

@<TRIPOS>ATOM
      1  CHA       -6.9300    5.2030   12.2590 C.2   139  HEM139      0.0000
      2  CHB       -8.1990    0.7380   10.8310 C.2   139  HEM139      0.0000
      3  CHC       -4.1430   -1.0520   12.7630 C.2   139  HEM139      0.0000
      4  CHD       -2.7780    3.3910   14.1340 C.2   139  HEM139      0.0000
      5  C1A       -7.6510    4.1450   11.7470 C.ar  139  HEM139      0.0000
      6  C2A       -8.9880    4.2160   11.1950 C.ar  139  HEM139      0.0000
      7  C3A       -9.3400    2.9820   10.7980 C.ar  139  HEM139      0.0000
      8  C4A       -8.2360    2.0930   11.0850 C.ar  139  HEM139      0.0000
      9  CMA      -10.6720    2.5430   10.1470 C.3   139  HEM139      0.0000
     10  CAA       -9.8310    5.5120   11.1270 C.3   139  HEM139      0.0000
     11  CBA      -10.7900    5.5210   12.3180 C.3   139  HEM139      0.0000
     12  CGA      -10.8420    6.8810   12.9640 C.2   139  HEM139      0.0000
     13  O1A      -11.4920    7.7920   12.3860 O.co2 139  HEM139      0.0000
     14  O2A      -10.2390    7.0530   14.0570 O.co2 139  HEM139      0.0000
     15  C1B       -7.2220   -0.1440   11.2430 C.2   139  HEM139      0.0000
     16  C2B       -7.2490   -1.5810   11.0480 C.2   139  HEM139      0.0000
     17  C3B       -6.1260   -2.0840   11.5790 C.2   139  HEM139      0.0000
     18  C4B       -5.3640   -0.9740   12.1220 C.2   139  HEM139      0.0000
     19  CMB       -8.4150   -2.3320   10.3620 C.3   139  HEM139      0.0000
     20  CAB       -5.6780   -3.5640   11.6370 C.2   139  HEM139      0.0000
     21  CBB       -6.0410   -4.4870   10.7430 C.2   139  HEM139      0.0000
     22  C1C       -3.4470   -0.0110   13.3470 C.ar  139  HEM139      0.0000
     23  C2C       -2.2680   -0.1500   14.1690 C.ar  139  HEM139      0.0000
     24  C3C       -1.8930    1.0760   14.5500 C.ar  139  HEM139      0.0000
     25  C4C       -2.8220    2.0260   13.9900 C.ar  139  HEM139      0.0000
     26  CMC       -1.5970   -1.4990   14.5010 C.3   139  HEM139      0.0000
     27  CAC       -0.7030    1.5050   15.4280 C.2   139  HEM139      0.0000
     28  CBC       -0.1860    0.7050   16.3470 C.2   139  HEM139      0.0000
     29  C1D       -3.7750    4.2770   13.7980 C.2   139  HEM139      0.0000
     30  C2D       -3.7890    5.6660   14.1850 C.2   139  HEM139      0.0000
     31  C3D       -5.0810    6.2400   13.6030 C.2   139  HEM139      0.0000
     32  C4D       -5.7250    5.1370   12.9230 C.2   139  HEM139      0.0000
     33  CMD       -2.7180    6.3990   15.0140 C.3   139  HEM139      0.0000
     34  CAD       -5.5870    7.6930   13.7310 C.3   139  HEM139      0.0000
     35  CBD       -6.6000    7.7870   14.8680 C.3   139  HEM139      0.0000
     36  CGD       -5.8980    7.6070   16.1900 C.2   139  HEM139      0.0000
     37  O1D       -4.9960    8.4270   16.5110 O.co2 139  HEM139      0.0000
     38  O2D       -6.2390    6.6410   16.9240 O.co2 139  HEM139      0.0000
     39  NA        -7.2230    2.8340   11.6570 N.ar  139  HEM139      0.0000
     40  NB        -6.0590    0.1940   11.9080 N.2   139  HEM139      0.0000
     41  NC        -3.7500    1.3300   13.2540 N.ar  139  HEM139      0.0000
     42  ND        -4.9260    4.0060   13.0590 N.2   139  HEM139      0.0000
     43 FE         -5.4830    2.1070   12.4580 Fe    139  HEM139      0.0000
@<TRIPOS>BOND
     1     9     7    1
     2    19    16    1
     3    21    20    2
     4     7     8   ar
     5     7     6   ar
     6     2     8    2
     7     2    15    1
     8    16    15    1
     9    16    17    2
    10     8    39   ar
    11    10     6    1
    12    10    11    1
    13     6     5   ar
    14    15    40    2
    15    17    20    1
    16    17    18    1
    17    39     5   ar
    18    39    43    1
    19     5     1    2
    20    40    18    1
    21    40    43    1
    22    18     3    2
    23     1    32    1
    24    11    12    1
    25    13    12   ar
    26    43    42    1
    27    43    41    1
    28     3    22    1
    29    32    42    2
    30    32    31    1
    31    12    14   ar
    32    42    29    1
    33    41    22   ar
    34    41    25   ar
    35    22    23   ar
    36    31    34    1
    37    31    30    2
    38    34    35    1
    39    29     4    2
    40    29    30    1
    41    25     4    1
    42    25    24   ar
    43    23    26    1
    44    23    24   ar
    45    30    33    1
    46    24    27    1
    47    35    36    1
    48    27    28    2
    49    36    37   ar
    50    36    38   ar
