@<TRIPOS>MOLECULE
3kuo_HEM_A_1.pdb
 43 50 0 0 0
SMALL
GASTEIGER

@<TRIPOS>ATOM
      1  CHA        7.1290    4.9780  -11.7570 C.2   139  HEM139      0.0000
      2  CHB        8.4360    0.5050  -10.4390 C.2   139  HEM139      0.0000
      3  CHC        4.3740   -1.2750  -12.4240 C.2   139  HEM139      0.0000
      4  CHD        2.9680    3.1860  -13.6660 C.2   139  HEM139      0.0000
      5  C1A        7.8690    3.9170  -11.2840 C.2   139  HEM139      0.0000
      6  C2A        9.2050    3.9830  -10.7350 C.2   139  HEM139      0.0000
      7  C3A        9.5760    2.7480  -10.3720 C.2   139  HEM139      0.0000
      8  C4A        8.4700    1.8590  -10.6630 C.2   139  HEM139      0.0000
      9  CMA       10.9240    2.3210   -9.7390 C.3   139  HEM139      0.0000
     10  CAA       10.0510    5.2720  -10.6620 C.3   139  HEM139      0.0000
     11  CBA       11.1040    5.1570  -11.7700 C.3   139  HEM139      0.0000
     12  CGA       11.4860    6.4790  -12.3790 C.2   139  HEM139      0.0000
     13  O1A       11.1400    6.7160  -13.5700 O.co2 139  HEM139      0.0000
     14  O2A       12.1480    7.2850  -11.6800 O.co2 139  HEM139      0.0000
     15  C1B        7.4540   -0.3630  -10.8640 C.ar  139  HEM139      0.0000
     16  C2B        7.4790   -1.7950  -10.6980 C.ar  139  HEM139      0.0000
     17  C3B        6.3560   -2.2920  -11.2360 C.ar  139  HEM139      0.0000
     18  C4B        5.5930   -1.1840  -11.7810 C.ar  139  HEM139      0.0000
     19  CMB        8.6350   -2.5620  -10.0360 C.3   139  HEM139      0.0000
     20  CAB        5.9270   -3.7690  -11.3390 C.2   139  HEM139      0.0000
     21  CBB        6.2330   -4.7070  -10.4450 C.2   139  HEM139      0.0000
     22  C1C        3.6610   -0.2310  -12.9750 C.2   139  HEM139      0.0000
     23  C2C        2.4600   -0.3550  -13.7850 C.2   139  HEM139      0.0000
     24  C3C        2.0800    0.8760  -14.1480 C.2   139  HEM139      0.0000
     25  C4C        3.0150    1.8170  -13.5620 C.2   139  HEM139      0.0000
     26  CMC        1.7810   -1.6980  -14.1520 C.3   139  HEM139      0.0000
     27  CAC        0.8640    1.3130  -14.9930 C.2   139  HEM139      0.0000
     28  CBC        0.4280    0.6110  -16.0310 C.2   139  HEM139      0.0000
     29  C1D        3.9580    4.0740  -13.2990 C.ar  139  HEM139      0.0000
     30  C2D        3.9430    5.4790  -13.6040 C.ar  139  HEM139      0.0000
     31  C3D        5.2350    6.0410  -13.0120 C.ar  139  HEM139      0.0000
     32  C4D        5.9080    4.9170  -12.4000 C.ar  139  HEM139      0.0000
     33  CMD        2.8480    6.2380  -14.3810 C.3   139  HEM139      0.0000
     34  CAD        5.7340    7.4970  -13.0650 C.3   139  HEM139      0.0000
     35  CBD        6.5750    7.6450  -14.3280 C.3   139  HEM139      0.0000
     36  CGD        6.9220    9.0990  -14.5130 C.2   139  HEM139      0.0000
     37  O1D        6.5140    9.6730  -15.5550 O.co2 139  HEM139      0.0000
     38  O2D        7.6000    9.6770  -13.6220 O.co2 139  HEM139      0.0000
     39  NA         7.4450    2.6020  -11.2150 N.2   139  HEM139      0.0000
     40  NB         6.2990   -0.0220  -11.5430 N.ar  139  HEM139      0.0000
     41  NC         3.9640    1.1120  -12.8560 N.2   139  HEM139      0.0000
     42  ND         5.1170    3.7870  -12.5820 N.ar  139  HEM139      0.0000
     43 FE          5.6740    1.8900  -12.0180 Fe    139  HEM139      0.0000
@<TRIPOS>BOND
     1    28    27    2
     2    37    36   ar
     3    27    24    1
     4    36    35    1
     5    36    38   ar
     6    33    30    1
     7    35    34    1
     8    26    23    1
     9    24    23    2
    10    24    25    1
    11    23    22    1
    12     4    25    1
    13     4    29    2
    14    30    29   ar
    15    30    31   ar
    16    13    12   ar
    17    25    41    2
    18    29    42   ar
    19    34    31    1
    20    31    32   ar
    21    22    41    1
    22    22     3    2
    23    41    43    1
    24    42    32   ar
    25    42    43    1
    26     3    18    1
    27    32     1    2
    28    12    11    1
    29    12    14   ar
    30    43    40    1
    31    43    39    1
    32    18    40   ar
    33    18    17   ar
    34    11    10    1
    35     1     5    1
    36    40    15   ar
    37    20    17    1
    38    20    21    2
    39     5    39    2
    40     5     6    1
    41    17    16   ar
    42    39     8    1
    43    15    16   ar
    44    15     2    1
    45     6    10    1
    46     6     7    2
    47    16    19    1
    48     8     2    2
    49     8     7    1
    50     7     9    1
