@<TRIPOS>MOLECULE
3kv2_NNH_A_1.pdb
 12 11 0 0 0
SMALL
GASTEIGER

@<TRIPOS>ATOM
      1  N         25.9850   -9.8980   -2.9660 N.3   901  NNH901     -0.1158
      2  CA        25.5890   -9.8810   -4.3640 C.3   901  NNH901      0.2193
      3  C         24.1130   -9.4890   -4.5470 C.2   901  NNH901      0.3861
      4  O         23.3360   -9.2110   -3.6570 O.co2 901  NNH901     -0.2437
      5  CB        25.8450  -11.2720   -4.9030 C.2   901  NNH901      0.0440
      6  CG        25.0820  -12.5130   -4.5800 C.2   901  NNH901      0.1905
      7  ND        25.3350  -13.6680   -5.4720 N.pl3 901  NNH901     -0.0583
      8  CE        25.3700  -14.9930   -5.1650 C.2   901  NNH901      0.5331
      9  NH1       25.1380  -15.4010   -3.8210 N.4   901  NNH901      0.1137
     10  NH2       25.6130  -15.9740   -6.0600 N.pl3 901  NNH901      0.1352
     11  OH1       25.1690  -16.6460   -3.5170 O.3   901  NNH901      0.0294
     12  OXT       23.7530   -9.4850   -5.8500 O.co2 901  NNH901     -0.2437
@<TRIPOS>BOND
     1    10     8    2
     2    12     3   ar
     3     7     8    1
     4     7     6    1
     5     8     9    1
     6     5     6    2
     7     5     2    1
     8     3     2    1
     9     3     4   ar
    10     2     1    1
    11     9    11    1
