@<TRIPOS>MOLECULE
3kv3_NAD_O_1.pdb
 44 48 0 0 0
SMALL
GASTEIGER

@<TRIPOS>ATOM
      1  PA        16.2160    3.9250   16.9670 P.3     0  NAD0        0.2189
      2  O1A       14.7890    4.3020   17.1700 O.2     0  NAD0       -0.5170
      3  O2A       16.8940    3.1760   18.0370 O.3     0  NAD0       -0.4371
      4  O5B       16.9690    5.3240   16.8860 O.3     0  NAD0       -0.3112
      5  C5B       16.2180    6.4400   16.5140 C.3     0  NAD0        0.1813
      6  C4B       16.6500    7.4870   17.5090 C.3     0  NAD0        0.1821
      7  O4B       16.4030    8.7490   16.9730 O.3     0  NAD0       -0.3135
      8  C3B       15.8670    7.3990   18.8070 C.3     0  NAD0        0.2184
      9  O3B       16.8180    7.7060   19.8140 O.3     0  NAD0       -0.2174
     10  C2B       14.8010    8.4680   18.6970 C.3     0  NAD0        0.2570
     11  O2B       14.5680    9.0470   19.9510 O.3     0  NAD0       -0.2130
     12  C1B       15.5610    9.4730   17.8690 C.3     0  NAD0        0.3186
     13  N9A       14.7660   10.4570   17.1150 N.pl3   0  NAD0       -0.1439
     14  C8A       13.6390   10.2490   16.3890 C.3     0  NAD0        0.3377
     15  N7A       13.3060   11.4400   15.8280 N.2     0  NAD0       -0.2095
     16  C5A       14.2090   12.3770   16.1700 C.2     0  NAD0        0.2526
     17  C6A       14.3290   13.7420   15.8790 C.2     0  NAD0        0.4393
     18  N6A       13.5330   14.3290   14.9850 N.pl3   0  NAD0        0.2180
     19  N1A       15.3930   14.4440   16.3990 N.2     0  NAD0        0.0021
     20  C2A       16.3270   13.8050   17.1960 C.3     0  NAD0        0.5254
     21  N3A       16.1780   12.4640   17.4810 N.2     0  NAD0       -0.0055
     22  C4A       15.1370   11.7640   16.9770 C.2     0  NAD0        0.3518
     23  O3        16.3990    3.2470   15.5230 O.3     0  NAD0       -0.2703
     24  PN        17.6810    2.6010   14.8460 P.3     0  NAD0        0.2189
     25  O1N       17.6300    1.1360   14.6440 O.2     0  NAD0       -0.5170
     26  O2N       18.8460    3.1600   15.5520 O.3     0  NAD0       -0.4371
     27  O5D       17.5030    3.1630   13.3710 O.3     0  NAD0       -0.3112
     28  C5D       17.7490    4.5340   13.0690 C.3     0  NAD0        0.1813
     29  C4D       18.0210    4.6100   11.5740 C.3     0  NAD0        0.1799
     30  O4D       19.0720    3.7120   11.2180 O.3     0  NAD0       -0.3327
     31  C3D       16.7920    4.1170   10.8290 C.3     0  NAD0        0.2158
     32  O3D       16.6210    4.8660    9.6610 O.3     0  NAD0       -0.2175
     33  C2D       17.1040    2.7090   10.4140 C.3     0  NAD0        0.2309
     34  O2D       16.5980    2.5070    9.1410 O.3     0  NAD0       -0.2158
     35  C1D       18.5990    2.7500   10.2750 C.3     0  NAD0        0.2263
     36  N1N       19.2420    1.4030   10.3730 N.pl3   0  NAD0       -0.2787
     37  C2N       19.0060    0.5340   11.4140 C.3     0  NAD0        0.1244
     38  C3N       19.6470   -0.7070   11.4580 C.2     0  NAD0        0.0544
     39  C7N       19.2510   -1.7250   12.4950 C.2     0  NAD0        0.2818
     40  O7N       18.6720   -1.2690   13.6550 O.2     0  NAD0       -0.2670
     41  N7N       19.4100   -3.0360   12.3480 N.am    0  NAD0       -0.0839
     42  C4N       20.5060   -1.0650   10.4370 C.2     0  NAD0        0.0033
     43  C5N       20.7320   -0.1860    9.3800 C.2     0  NAD0        0.0157
     44  C6N       20.0950    1.0400    9.3600 C.2     0  NAD0        0.0633
@<TRIPOS>BOND
     1    34    33    1
     2    44    43    2
     3    44    36    1
     4    43    42    1
     5    32    31    1
     6    35    36    1
     7    35    33    1
     8    35    30    1
     9    36    37    1
    10    33    31    1
    11    42    38    2
    12    31    29    1
    13    30    29    1
    14    37    38    1
    15    38    39    1
    16    29    28    1
    17    41    39   am
    18    39    40    2
    19    28    27    1
    20    27    24    1
    21    25    24    2
    22    24    23    1
    23    24    26    1
    24    18    17    1
    25    23     1    1
    26    15    16    2
    27    15    14    1
    28    17    16    1
    29    17    19    2
    30    16    22    1
    31    14    13    1
    32    19    20    1
    33     5     4    1
    34     5     6    1
    35     4     1    1
    36     1     2    2
    37     1     3    1
    38     7     6    1
    39     7    12    1
    40    22    13    1
    41    22    21    2
    42    13    12    1
    43    20    21    1
    44     6     8    1
    45    12    10    1
    46    10     8    1
    47    10    11    1
    48     8     9    1
