@<TRIPOS>MOLECULE
3kv3_3PG_O_1.pdb
 11 10 0 0 0
SMALL
GASTEIGER

@<TRIPOS>ATOM
      1  C1        16.8630   -3.2020    6.7670 C.2   337  3PG337      0.3972
      2  O1        17.4840   -4.2190    7.1250 O.co2 337  3PG337     -0.2427
      3  O2        16.0820   -3.1690    5.7750 O.co2 337  3PG337     -0.2427
      4  C2        17.1550   -1.9960    7.5830 C.3   337  3PG337      0.2838
      5  O3        18.5770   -2.0710    7.7240 O.3   337  3PG337     -0.2081
      6  C3        16.4060   -2.0800    8.9240 C.3   337  3PG337      0.1983
      7  O1P       15.8690   -0.8090    9.3700 O.3   337  3PG337     -0.2669
      8  P         14.4650   -0.5250   10.1870 P.3   337  3PG337      0.5327
      9  O2P       14.8750   -0.3500   11.6380 O.3   337  3PG337     -0.1145
     10  O3P       13.8830    0.7320    9.5510 O.2   337  3PG337     -0.2224
     11  O4P       13.5490   -1.7060    9.9370 O.3   337  3PG337     -0.1145
@<TRIPOS>BOND
     1     3     1   ar
     2     1     2   ar
     3     1     4    1
     4     4     5    1
     5     4     6    1
     6     6     7    1
     7     7     8    1
     8    10     8    2
     9    11     8    1
    10     8     9    1
