@<TRIPOS>MOLECULE
3kv5_OGA_A_1.pdb
 10 9 0 0 0
SMALL
GASTEIGER

@<TRIPOS>ATOM
      1  C1        22.0810  -23.1030  -18.1080 C.2   5798  OGA5798     0.4419
      2  C2        22.3650  -22.1050  -17.0220 C.2   5798  OGA5798     0.3455
      3  C4        22.9170  -21.6600  -14.5990 C.3   5798  OGA5798     0.2290
      4  C5        23.2430  -22.4460  -13.3570 C.2   5798  OGA5798     0.3866
      5  O1        22.0320  -24.2930  -17.8730 O.co2 5798  OGA5798    -0.2354
      6  O2        21.8790  -22.7380  -19.3920 O.co2 5798  OGA5798    -0.2354
      7  O2'       22.4020  -20.9240  -17.3190 O.2   5798  OGA5798    -0.2611
      8  O3        23.6260  -21.8350  -12.2310 O.co2 5798  OGA5798    -0.2437
      9  N1        22.5960  -22.5120  -15.7520 N.am  5798  OGA5798    -0.1838
     10  O4        23.2220  -23.6470  -13.3180 O.co2 5798  OGA5798    -0.2437
@<TRIPOS>BOND
     1     6     1   ar
     2     1     5   ar
     3     1     2    1
     4     7     2    2
     5     2     9   am
     6     9     3    1
     7     3     4    1
     8     4    10   ar
     9     4     8   ar
