@<TRIPOS>MOLECULE
3kv6_AKG_A_1.pdb
 10 9 0 0 0
SMALL
GASTEIGER

@<TRIPOS>ATOM
      1  C1        12.1800   22.2370   16.9910 C.2   702  AKG702      0.4261
      2  O1        11.8560   23.4240   16.9660 O.co2 702  AKG702     -0.2369
      3  O2        11.9740   21.5430   18.1340 O.co2 702  AKG702     -0.2369
      4  C2        12.8150   21.5480   15.8010 C.2   702  AKG702      0.2749
      5  O5        13.1190   20.3740   15.9120 O.2   702  AKG702     -0.2795
      6  C3        13.0840   22.3350   14.5150 C.2   702  AKG702      0.0558
      7  C4        13.8680   21.5950   13.4160 C.2   702  AKG702      0.0896
      8  C5        14.1200   22.3810   12.1400 C.2   702  AKG702      0.3881
      9  O3        13.6610   23.4850   11.9430 O.co2 702  AKG702     -0.2405
     10  O4        14.8780   21.8330   11.1700 O.co2 702  AKG702     -0.2405
@<TRIPOS>BOND
     1    10     8   ar
     2     9     8   ar
     3     8     7    1
     4     7     6    2
     5     6     4    1
     6     4     5    2
     7     4     1    1
     8     2     1   ar
     9     1     3   ar
