@<TRIPOS>MOLECULE
3kva_AKG_A_1.pdb
 10 9 0 0 0
SMALL
GASTEIGER

@<TRIPOS>ATOM
      1  C1       -41.3400   23.9960    7.3610 C.2   701  AKG701      0.4219
      2  O1       -40.6020   23.4560    6.5130 O.co2 701  AKG701     -0.2373
      3  O2       -41.1420   25.3180    7.6020 O.co2 701  AKG701     -0.2373
      4  C2       -42.4580   23.2600    8.1340 C.2   701  AKG701      0.2526
      5  O5       -43.1170   23.8980    8.9360 O.2   701  AKG701     -0.2843
      6  C3       -42.7750   21.7690    7.8950 C.3   701  AKG701      0.0881
      7  C4       -43.8890   21.1110    8.7600 C.3   701  AKG701      0.1224
      8  C5       -44.2730   19.6840    8.3430 C.2   701  AKG701      0.3653
      9  O3       -43.7880   19.1520    7.3860 O.co2 701  AKG701     -0.2456
     10  O4       -45.2030   18.9510    8.9990 O.co2 701  AKG701     -0.2456
@<TRIPOS>BOND
     1     2     1   ar
     2     1     3   ar
     3     1     4    1
     4     9     8   ar
     5     6     4    1
     6     6     7    1
     7     4     5    2
     8     8     7    1
     9     8    10   ar
