@<TRIPOS>MOLECULE
3kvb_OGA_A_1.pdb
 10 9 0 0 0
SMALL
GASTEIGER

@<TRIPOS>ATOM
      1  C1       -41.7540   23.5250   10.2390 C.2   5798  OGA5798     0.4422
      2  C2       -42.6950   23.1650    9.1230 C.2   5798  OGA5798     0.3494
      3  C4       -43.8670   21.3170    7.8770 C.2   5798  OGA5798     0.1751
      4  C5       -44.2770   19.8710    7.9730 C.2   5798  OGA5798     0.4043
      5  O1       -41.3030   22.6930   10.9970 O.co2 5798  OGA5798    -0.2353
      6  O2       -41.3430   24.7900   10.4520 O.co2 5798  OGA5798    -0.2353
      7  O2'      -43.0970   24.0440    8.3750 O.2   5798  OGA5798    -0.2607
      8  O3       -44.9430   19.3130    6.9610 O.co2 5798  OGA5798    -0.2390
      9  N1       -43.0600   21.8670    8.9730 N.am  5798  OGA5798    -0.1615
     10  O4       -44.0570   19.1580    8.9170 O.co2 5798  OGA5798    -0.2390
@<TRIPOS>BOND
     1     8     4   ar
     2     3     4    1
     3     3     9    2
     4     4    10   ar
     5     7     2    2
     6     9     2    1
     7     2     1    1
     8     1     6   ar
     9     1     5   ar
