@<TRIPOS>MOLECULE
3kvg_ANP_A_1.pdb
 31 33 0 0 0
SMALL
GASTEIGER

@<TRIPOS>ATOM
      1  PG        23.1730    3.8840  -46.3890 P.3   401  ANP401      0.4884
      2  O1G       23.6570    3.5550  -45.0380 O.3   401  ANP401     -0.1240
      3  O2G       23.9950    2.9430  -47.3600 O.2   401  ANP401     -0.2331
      4  O3G       23.4090    5.3930  -46.8170 O.3   401  ANP401     -0.1240
      5  PB        20.2940    4.3050  -46.2040 P.3   401  ANP401      0.4669
      6  O1B       19.2610    3.4790  -45.5940 O.2   401  ANP401     -0.2351
      7  O2B       20.6550    5.5070  -45.2630 O.3   401  ANP401     -0.1253
      8  N3B       21.5950    3.2710  -46.5210 N.3   401  ANP401     -0.0163
      9  PA        18.7360    4.3720  -48.5400 P.3   401  ANP401      0.2220
     10  O1A       17.4000    4.9640  -48.3100 O.3   401  ANP401     -0.4370
     11  O2A       18.6760    2.8110  -48.6900 O.2   401  ANP401     -0.5170
     12  O3A       19.8590    4.9750  -47.5900 O.3   401  ANP401     -0.2360
     13  O5'       19.2600    4.8520  -50.0020 O.3   401  ANP401     -0.3111
     14  C5'       19.3560    6.2700  -50.1420 C.3   401  ANP401      0.1813
     15  C4'       19.8380    6.4880  -51.5700 C.3   401  ANP401      0.1821
     16  O4'       18.8980    5.9000  -52.4970 O.3   401  ANP401     -0.3135
     17  C3'       20.0540    7.9580  -52.0210 C.3   401  ANP401      0.2184
     18  O3'       21.3850    8.0100  -52.5440 O.3   401  ANP401     -0.2174
     19  C2'       19.0460    8.0520  -53.2080 C.3   401  ANP401      0.2570
     20  O2'       19.4950    8.9440  -54.2170 O.3   401  ANP401     -0.2130
     21  C1'       18.9820    6.5920  -53.7270 C.3   401  ANP401      0.3186
     22  N9        17.7410    6.4040  -54.5370 N.pl3 401  ANP401     -0.1439
     23  C8        16.4460    6.4890  -54.0960 C.3   401  ANP401      0.3377
     24  N7        15.5900    6.3150  -55.0980 N.2   401  ANP401     -0.2095
     25  C5        16.3120    6.1140  -56.2390 C.2   401  ANP401      0.2526
     26  C6        15.9990    5.8910  -57.6170 C.2   401  ANP401      0.4393
     27  N6        14.6790    5.8340  -58.0560 N.pl3 401  ANP401      0.2180
     28  N1        17.0290    5.7160  -58.4970 N.2   401  ANP401      0.0021
     29  C2        18.3170    5.7880  -58.0870 C.3   401  ANP401      0.5254
     30  N3        18.6510    6.0180  -56.8080 N.2   401  ANP401     -0.0055
     31  C4        17.7060    6.1780  -55.8680 C.2   401  ANP401      0.3518
@<TRIPOS>BOND
     1    28    29    1
     2    28    26    2
     3    29    30    1
     4    27    26    1
     5    26    25    1
     6    30    31    2
     7    25    31    1
     8    25    24    2
     9    31    22    1
    10    24    23    1
    11    22    23    1
    12    22    21    1
    13    20    19    1
    14    21    19    1
    15    21    16    1
    16    19    17    1
    17    18    17    1
    18    16    15    1
    19    17    15    1
    20    15    14    1
    21    14    13    1
    22    13     9    1
    23    11     9    2
    24     9    10    1
    25     9    12    1
    26    12     5    1
    27     3     1    2
    28     4     1    1
    29     8     1    1
    30     8     5    1
    31     1     2    1
    32     5     6    2
    33     5     7    1
