@<TRIPOS>MOLECULE
3kvj_1X5_A_1.pdb
 24 26 0 0 0
SMALL
GASTEIGER

@<TRIPOS>ATOM
      1  CAA       -4.4680   37.0050   -2.4320 C.ar  402  1X5402      0.0798
      2  CAB       -4.3990   36.2240   -3.5850 C.ar  402  1X5402      0.0963
      3  CAC       -5.0980   36.5010   -1.2980 C.ar  402  1X5402      0.0181
      4  NAD       -3.9870   38.2480   -2.4460 N.am  402  1X5402     -0.1790
      5  CAE       -4.9610   34.9510   -3.5920 C.ar  402  1X5402      0.0224
      6  CAF       -3.7440   36.7600   -4.8610 C.2   402  1X5402      0.3891
      7  CAG       -5.6620   35.2280   -1.3110 C.ar  402  1X5402      0.0159
      8  CAH       -5.6000   34.4470   -2.4610 C.ar  402  1X5402      0.0484
      9  OAI       -3.2150   37.8920   -4.8270 O.co2 402  1X5402     -0.2405
     10  OAJ       -3.7740   36.0370   -5.8800 O.co2 402  1X5402     -0.2405
     11  CAK       -7.1610   32.1270   -0.5470 C.ar  402  1X5402      0.0168
     12  CAL       -7.1100   32.4550    0.8030 C.ar  402  1X5402      0.0005
     13  CAM       -8.3610   31.6710   -1.0850 C.ar  402  1X5402      0.0962
     14  CAN       -5.9230   32.2810   -1.4350 C.3   402  1X5402      0.1193
     15  CAO       -8.2620   32.3210    1.5720 C.ar  402  1X5402      0.0204
     16  NAP       -9.4360   31.5570   -0.3240 N.ar  402  1X5402     -0.2426
     17  NAQ       -6.1980   33.2570   -2.5020 N.pl3 402  1X5402     -0.3018
     18  CAR       -9.4260   31.8620    0.9640 C.ar  402  1X5402      0.0989
     19  CAS       -7.1180   32.9780   -3.6160 C.3   402  1X5402      0.1125
     20  CAT       -2.2720   39.8470   -1.8890 C.3   402  1X5402      0.0786
     21  CAU       -3.2480   38.7510   -1.4600 C.2   402  1X5402      0.2451
     22  CAV       -1.0560   40.2950   -1.0750 C.3   402  1X5402      0.0096
     23  CAW       -2.2660   41.2220   -1.2160 C.3   402  1X5402      0.0096
     24  OAX       -3.3390   38.4110   -0.2800 O.2   402  1X5402     -0.2730
@<TRIPOS>BOND
     1    10     6   ar
     2     6     9   ar
     3     6     2    1
     4    19    17    1
     5     5     2   ar
     6     5     8   ar
     7     2     1   ar
     8    17     8    1
     9    17    14    1
    10     8     7   ar
    11     4     1    1
    12     4    21   am
    13     1     3   ar
    14    20    21    1
    15    20    23    1
    16    20    22    1
    17    21    24    2
    18    14    11    1
    19     7     3   ar
    20    23    22    1
    21    13    11   ar
    22    13    16   ar
    23    11    12   ar
    24    16    18   ar
    25    12    15   ar
    26    18    15   ar
