@<TRIPOS>MOLECULE
3kvj_FMN_A_1.pdb
 31 33 0 0 0
SMALL
GASTEIGER

@<TRIPOS>ATOM
      1  N1         3.5430   42.4150    8.7280 N.2   398  FMN398     -0.2890
      2  C2         3.1090   43.0780    9.8820 C.1   398  FMN398      0.3669
      3  O2         3.7140   42.9360   10.9430 O.2   398  FMN398     -0.1744
      4  N3         1.9710   43.8930    9.8150 N.2   398  FMN398     -0.2300
      5  C4         1.2760   44.0400    8.6080 C.1   398  FMN398      0.2513
      6  O4         0.2760   44.7570    8.5670 O.2   398  FMN398     -0.2057
      7  C4A        1.7090   43.3750    7.4660 C.2   398  FMN398      0.2700
      8  N5         1.0190   43.5130    6.2530 N.2   398  FMN398     -0.3878
      9  C5A        1.4430   42.8290    5.1060 C.2   398  FMN398      0.1320
     10  C6         0.7140   42.9220    3.9250 C.2   398  FMN398      0.0250
     11  C7         1.0910   42.1840    2.8050 C.2   398  FMN398     -0.0238
     12  C7M        0.2740   42.3070    1.5150 C.3   398  FMN398      0.0308
     13  C8         2.2040   41.3500    2.8690 C.2   398  FMN398     -0.0280
     14  C8M        2.6210   40.4890    1.6740 C.3   398  FMN398      0.0304
     15  C9         2.9370   41.2660    4.0500 C.2   398  FMN398     -0.0041
     16  C9A        2.5640   42.0030    5.1710 C.3   398  FMN398      0.1497
     17  N10        3.2790   41.8960    6.3750 N.pl3 398  FMN398     -0.2691
     18  C10        2.8400   42.5660    7.5250 C.2   398  FMN398      0.2416
     19  C1'        4.4900   41.0460    6.4650 C.3   398  FMN398      0.1294
     20  C2'        4.1530   39.5690    6.6810 C.3   398  FMN398      0.2044
     21  O2'        3.5220   39.4100    7.9540 O.3   398  FMN398     -0.2185
     22  C3'        5.4090   38.6950    6.6410 C.3   398  FMN398      0.2164
     23  O3'        6.2900   39.1100    7.6900 O.3   398  FMN398     -0.2175
     24  C4'        6.1500   38.8020    5.3040 C.3   398  FMN398      0.2147
     25  O4'        5.2150   38.8710    4.2240 O.3   398  FMN398     -0.2176
     26  C5'        7.0850   37.6080    5.1020 C.3   398  FMN398      0.1892
     27  O5'        6.3450   36.3850    5.0280 O.3   398  FMN398     -0.2674
     28  P          5.9110   35.7670    3.6050 P.3   398  FMN398      0.5327
     29  O1P        5.3000   34.3170    3.9390 O.3   398  FMN398     -0.1145
     30  O2P        7.0440   35.7010    2.6540 O.2   398  FMN398     -0.2224
     31  O3P        4.6820   36.6540    3.0650 O.3   398  FMN398     -0.1145
@<TRIPOS>BOND
     1    12    11    1
     2    14    13    1
     3    30    28    2
     4    11    13    1
     5    11    10    2
     6    13    15    2
     7    31    28    1
     8    28    29    1
     9    28    27    1
    10    10     9    1
    11    15    16    1
    12    25    24    1
    13    27    26    1
    14    26    24    1
    15     9    16    1
    16     9     8    2
    17    16    17    1
    18    24    22    1
    19     8     7    2
    20    17    19    1
    21    17    18    1
    22    19    20    1
    23    22    20    1
    24    22    23    1
    25    20    21    1
    26     7    18    1
    27     7     5    1
    28    18     1    2
    29     6     5    2
    30     5     4    2
    31     1     2    2
    32     4     2    2
    33     2     3    2
