@<TRIPOS>MOLECULE
3kvj_DOR_A_1.pdb
 11 11 0 0 0
SMALL
GASTEIGER

@<TRIPOS>ATOM
      1  O2         5.2040   44.5890    4.3500 O.2   399  DOR399     -0.1881
      2  C2         4.6030   45.2120    5.2220 C.1   399  DOR399      0.3067
      3  N1         3.6270   46.1550    4.8740 N.2   399  DOR399     -0.1649
      4  N3         4.9060   45.0090    6.5750 N.2   399  DOR399     -0.2467
      5  C4         4.2550   45.7450    7.5740 C.1   399  DOR399      0.1951
      6  O4         4.5480   45.5630    8.7550 O.2   399  DOR399     -0.2133
      7  C5         3.2040   46.7960    7.2080 C.3   399  DOR399      0.1724
      8  C6         2.5780   46.5050    5.8420 C.3   399  DOR399      0.2370
      9  C7         1.8150   47.7430    5.3640 C.2   399  DOR399      0.3887
     10  O72        2.3600   48.4400    4.4790 O.co2 399  DOR399     -0.2434
     11  O71        0.7120   47.9720    5.9030 O.co2 399  DOR399     -0.2434
@<TRIPOS>BOND
     1     1     2    2
     2    10     9   ar
     3     3     2    2
     4     3     8    1
     5     2     4    2
     6     9     8    1
     7     9    11   ar
     8     8     7    1
     9     4     5    2
    10     7     5    1
    11     5     6    2
