@<TRIPOS>MOLECULE
3kvk_FMN_A_1.pdb
 31 33 0 0 0
SMALL
GASTEIGER

@<TRIPOS>ATOM
      1  N1         3.3990   42.3840    8.6280 N.2   398  FMN398     -0.2887
      2  C2         2.9500   43.0600    9.7700 C.1   398  FMN398      0.3669
      3  O2         3.5330   42.9240   10.8430 O.2   398  FMN398     -0.1744
      4  N3         1.8200   43.8830    9.6770 N.2   398  FMN398     -0.2300
      5  C4         1.1470   44.0250    8.4550 C.1   398  FMN398      0.2513
      6  O4         0.1490   44.7410    8.3950 O.2   398  FMN398     -0.2057
      7  C4A        1.5940   43.3470    7.3250 C.2   398  FMN398      0.2703
      8  N5         0.9280   43.4840    6.0990 N.2   398  FMN398     -0.3882
      9  C5A        1.3670   42.7850    4.9650 C.2   398  FMN398      0.1277
     10  C6         0.6480   42.8620    3.7760 C.3   398  FMN398      0.0820
     11  C7         1.0200   42.0920    2.6780 C.2   398  FMN398     -0.0408
     12  C7M        0.2100   42.1890    1.3830 C.3   398  FMN398      0.0265
     13  C8         2.1190   41.2420    2.7710 C.2   398  FMN398     -0.0280
     14  C8M        2.5210   40.3390    1.6020 C.3   398  FMN398      0.0304
     15  C9         2.8440   41.1780    3.9560 C.2   398  FMN398      0.0123
     16  C9A        2.4760   41.9470    5.0580 C.2   398  FMN398      0.0793
     17  N10        3.1780   41.8540    6.2710 N.pl3 398  FMN398     -0.2545
     18  C10        2.7190   42.5300    7.4110 C.2   398  FMN398      0.2449
     19  C1'        4.3840   41.0020    6.3890 C.3   398  FMN398      0.1336
     20  C2'        4.0510   39.5250    6.6120 C.3   398  FMN398      0.2048
     21  O2'        3.4290   39.3740    7.8900 O.3   398  FMN398     -0.2185
     22  C3'        5.3080   38.6530    6.5680 C.3   398  FMN398      0.2165
     23  O3'        6.1950   39.0610    7.6140 O.3   398  FMN398     -0.2175
     24  C4'        6.0420   38.7650    5.2290 C.3   398  FMN398      0.2147
     25  O4'        5.1040   38.8190    4.1510 O.3   398  FMN398     -0.2176
     26  C5'        6.9980   37.5880    5.0280 C.3   398  FMN398      0.1892
     27  O5'        6.2960   36.3430    5.0060 O.3   398  FMN398     -0.2674
     28  P          5.8180   35.6610    3.6280 P.3   398  FMN398      0.5327
     29  O1P        4.7460   36.6460    2.9470 O.3   398  FMN398     -0.1145
     30  O2P        5.2740   34.3040    3.8500 O.3   398  FMN398     -0.1145
     31  O3P        7.1020   35.6440    2.6610 O.2   398  FMN398     -0.2224
@<TRIPOS>BOND
     1    12    11    1
     2    14    13    1
     3    31    28    2
     4    11    13    2
     5    11    10    1
     6    13    15    1
     7    29    28    1
     8    28    30    1
     9    28    27    1
    10    10     9    1
    11    15    16    2
    12    25    24    1
    13     9    16    1
    14     9     8    2
    15    27    26    1
    16    26    24    1
    17    16    17    1
    18    24    22    1
    19     8     7    2
    20    17    19    1
    21    17    18    1
    22    19    20    1
    23    22    20    1
    24    22    23    1
    25    20    21    1
    26     7    18    1
    27     7     5    1
    28    18     1    2
    29     6     5    2
    30     5     4    2
    31     1     2    2
    32     4     2    2
    33     2     3    2
