@<TRIPOS>MOLECULE
3kvk_6X1_A_1.pdb
 21 22 0 0 0
SMALL
GASTEIGER

@<TRIPOS>ATOM
      1  CAA       -3.3410   38.1000   -2.3580 C.ar  401  6X1401      0.0813
      2  CAB       -2.5880   38.8220   -3.2800 C.ar  401  6X1401      0.0951
      3  NAC       -4.0610   37.0660   -2.7950 N.am  401  6X1401     -0.1605
      4  CAD       -3.3130   38.4710   -1.0150 C.ar  401  6X1401      0.0169
      5  CAE       -1.8070   39.8970   -2.8610 C.ar  401  6X1401      0.0079
      6  CAF       -2.5710   38.4110   -4.7540 C.2   401  6X1401      0.3890
      7  CAG       -4.7870   36.2380   -2.0450 C.2   401  6X1401      0.3478
      8  CAH       -2.5350   39.5450   -0.5950 C.ar  401  6X1401      0.0013
      9  CAI       -1.7770   40.2590   -1.5180 C.ar  401  6X1401      0.0003
     10  OAJ       -1.6030   38.7780   -5.4550 O.co2 401  6X1401     -0.2405
     11  OAK       -3.5300   37.7370   -5.1900 O.co2 401  6X1401     -0.2405
     12  NAL       -5.4230   35.2770   -2.7130 N.am  401  6X1401     -0.1606
     13  OAM       -4.8800   36.3660   -0.8250 O.2   401  6X1401     -0.2484
     14  CAN       -6.1610   34.2990   -2.1870 C.ar  401  6X1401      0.0767
     15  CAO       -6.7870   33.4160   -3.0610 C.ar  401  6X1401      0.0281
     16  CAP       -6.2190   34.0510   -0.8160 C.ar  401  6X1401      0.0281
     17  CAQ       -7.4680   32.3000   -2.5790 C.ar  401  6X1401      0.0598
     18  CAR       -6.8890   32.9320   -0.3300 C.ar  401  6X1401      0.0598
     19  CAS       -7.5150   32.0560   -1.2110 C.ar  401  6X1401      0.0229
     20 CLAT       -8.3030   31.2510   -3.6710 Cl    401  6X1401     -0.0822
     21 CLAU       -6.9590   32.6060    1.3670 Cl    401  6X1401     -0.0822
@<TRIPOS>BOND
     1    10     6   ar
     2    11     6   ar
     3     6     2    1
     4    20    17    1
     5     2     5   ar
     6     2     1   ar
     7    15    17   ar
     8    15    14   ar
     9     5     9   ar
    10     3     1    1
    11     3     7   am
    12    12    14    1
    13    12     7   am
    14    17    19   ar
    15     1     4   ar
    16    14    16   ar
    17     7    13    2
    18     9     8   ar
    19    19    18   ar
    20     4     8   ar
    21    16    18   ar
    22    18    21    1
