@<TRIPOS>MOLECULE
3kvk_DOR_A_1.pdb
 11 11 0 0 0
SMALL
GASTEIGER

@<TRIPOS>ATOM
      1  O2         5.0670   44.5590    4.2990 O.2   399  DOR399     -0.1881
      2  C2         4.4740   45.1800    5.1800 C.1   399  DOR399      0.3067
      3  N1         3.5140   46.1440    4.8440 N.2   399  DOR399     -0.1649
      4  N3         4.7810   44.9630    6.5290 N.2   399  DOR399     -0.2467
      5  C4         4.1510   45.7070    7.5350 C.1   399  DOR399      0.1951
      6  O4         4.4540   45.5230    8.7130 O.2   399  DOR399     -0.2133
      7  C5         3.1170   46.7780    7.1800 C.3   399  DOR399      0.1724
      8  C6         2.4720   46.4870    5.8230 C.3   399  DOR399      0.2370
      9  C7         1.6950   47.7210    5.3600 C.2   399  DOR399      0.3887
     10  O72        2.2840   48.5070    4.5860 O.co2 399  DOR399     -0.2434
     11  O71        0.5330   47.8550    5.7990 O.co2 399  DOR399     -0.2434
@<TRIPOS>BOND
     1     1     2    2
     2    10     9   ar
     3     3     2    2
     4     3     8    1
     5     2     4    2
     6     9    11   ar
     7     9     8    1
     8     8     7    1
     9     4     5    2
    10     7     5    1
    11     5     6    2
