@<TRIPOS>MOLECULE
3kvl_FMN_A_1.pdb
 31 33 0 0 0
SMALL
GASTEIGER

@<TRIPOS>ATOM
      1  N1         3.6390   42.4450    8.7990 N.2   398  FMN398     -0.2887
      2  C2         3.2120   43.1020    9.9600 C.1   398  FMN398      0.3669
      3  O2         3.8170   42.9430   11.0190 O.2   398  FMN398     -0.1744
      4  N3         2.0800   43.9240    9.9050 N.2   398  FMN398     -0.2300
      5  C4         1.3800   44.0850    8.7020 C.1   398  FMN398      0.2513
      6  O4         0.3750   44.7950    8.6730 O.2   398  FMN398     -0.2057
      7  C4A        1.8070   43.4280    7.5530 C.2   398  FMN398      0.2706
      8  N5         1.1170   43.5860    6.3430 N.2   398  FMN398     -0.3841
      9  C5A        1.5380   42.9140    5.1870 C.2   398  FMN398      0.1452
     10  C6         0.8040   43.0300    4.0110 C.2   398  FMN398      0.0252
     11  C7         1.1720   42.3060    2.8800 C.2   398  FMN398     -0.0375
     12  C7M        0.3520   42.4590    1.5970 C.3   398  FMN398      0.0268
     13  C8         2.2800   41.4630    2.9290 C.3   398  FMN398      0.0417
     14  C8M        2.6720   40.6020    1.7250 C.3   398  FMN398      0.0091
     15  C9         3.0190   41.3600    4.1040 C.2   398  FMN398     -0.0049
     16  C9A        2.6550   42.0820    5.2380 C.2   398  FMN398      0.0795
     17  N10        3.3700   41.9550    6.4400 N.pl3 398  FMN398     -0.2545
     18  C10        2.9340   42.6110    7.5990 C.2   398  FMN398      0.2449
     19  C1'        4.5800   41.1030    6.5210 C.3   398  FMN398      0.1336
     20  C2'        4.2500   39.6230    6.7280 C.3   398  FMN398      0.2048
     21  O2'        3.6230   39.4520    8.0020 O.3   398  FMN398     -0.2185
     22  C3'        5.5070   38.7490    6.6760 C.3   398  FMN398      0.2165
     23  O3'        6.3910   39.1440    7.7290 O.3   398  FMN398     -0.2175
     24  C4'        6.2410   38.8730    5.3380 C.3   398  FMN398      0.2147
     25  O4'        5.3010   38.9660    4.2640 O.3   398  FMN398     -0.2176
     26  C5'        7.1710   37.6790    5.1080 C.3   398  FMN398      0.1892
     27  O5'        6.4300   36.4560    5.0430 O.3   398  FMN398     -0.2674
     28  P          5.9730   35.8380    3.6260 P.3   398  FMN398      0.5327
     29  O1P        5.3690   34.3850    3.9590 O.3   398  FMN398     -0.1145
     30  O2P        7.0910   35.7810    2.6570 O.2   398  FMN398     -0.2224
     31  O3P        4.7390   36.7320    3.1090 O.3   398  FMN398     -0.1145
@<TRIPOS>BOND
     1    12    11    1
     2    14    13    1
     3    30    28    2
     4    11    13    1
     5    11    10    2
     6    13    15    1
     7    31    28    1
     8    28    29    1
     9    28    27    1
    10    10     9    1
    11    15    16    2
    12    25    24    1
    13    27    26    1
    14    26    24    1
    15     9    16    1
    16     9     8    2
    17    16    17    1
    18    24    22    1
    19     8     7    2
    20    17    19    1
    21    17    18    1
    22    19    20    1
    23    22    20    1
    24    22    23    1
    25    20    21    1
    26     7    18    1
    27     7     5    1
    28    18     1    2
    29     6     5    2
    30     5     4    2
    31     1     2    2
    32     4     2    2
    33     2     3    2
