@<TRIPOS>MOLECULE
3kvl_7Z5_A_1.pdb
 23 24 0 0 0
SMALL
GASTEIGER

@<TRIPOS>ATOM
      1  CAA       -4.2400   36.6070   -3.5680 C.ar  402  7Z5402      0.0963
      2  CAB       -4.0580   37.2420   -2.3420 C.ar  402  7Z5402      0.0798
      3  CAC       -4.9910   35.4370   -3.6420 C.ar  402  7Z5402      0.0224
      4  CAD       -3.6390   37.1970   -4.8470 C.2   402  7Z5402      0.3891
      5  CAE       -4.6390   36.6940   -1.1990 C.ar  402  7Z5402      0.0181
      6  NAF       -3.3240   38.3530   -2.2960 N.am  402  7Z5402     -0.1790
      7  CAG       -5.5730   34.8890   -2.5030 C.ar  402  7Z5402      0.0484
      8  OAH       -3.8500   36.5970   -5.9240 O.co2 402  7Z5402     -0.2405
      9  OAI       -2.9720   38.2500   -4.7550 O.co2 402  7Z5402     -0.2405
     10  CAJ       -5.3920   35.5260   -1.2780 C.ar  402  7Z5402      0.0159
     11  CAK       -3.0620   39.0490   -1.1910 C.2   402  7Z5402      0.2456
     12  NAL       -6.3220   33.7900   -2.5960 N.pl3 402  7Z5402     -0.3018
     13  CAM       -2.1960   40.2910   -1.4100 C.3   402  7Z5402      0.0872
     14  OAN       -3.4600   38.7530   -0.0650 O.2   402  7Z5402     -0.2730
     15  CAO       -6.0490   32.6570   -1.6970 C.3   402  7Z5402      0.1193
     16  CAP       -7.3930   33.7660   -3.6050 C.3   402  7Z5402      0.1125
     17  CAQ       -0.7120   39.9260   -1.4770 C.3   402  7Z5402      0.0101
     18  CAR       -7.2720   32.3640   -0.8250 C.ar  402  7Z5402      0.0168
     19  CAS       -8.4600   31.9250   -1.4000 C.ar  402  7Z5402      0.0005
     20  CAT       -7.2220   32.5490    0.5530 C.ar  402  7Z5402      0.0962
     21  CAU       -9.5630   31.6870   -0.5850 C.ar  402  7Z5402      0.0204
     22  NAV       -8.2900   32.3120    1.2960 N.ar  402  7Z5402     -0.2426
     23  CAW       -9.4370   31.8960    0.7840 C.ar  402  7Z5402      0.0989
@<TRIPOS>BOND
     1     8     4   ar
     2     4     9   ar
     3     4     1    1
     4     3     1   ar
     5     3     7   ar
     6    16    12    1
     7     1     2   ar
     8    12     7    1
     9    12    15    1
    10     7    10   ar
    11     2     6    1
    12     2     5   ar
    13     6    11   am
    14    15    18    1
    15    17    13    1
    16    13    11    1
    17    19    18   ar
    18    19    21   ar
    19    10     5   ar
    20    11    14    2
    21    18    20   ar
    22    21    23   ar
    23    20    22   ar
    24    23    22   ar
