@<TRIPOS>MOLECULE
3kvl_DOR_A_1.pdb
 11 11 0 0 0
SMALL
GASTEIGER

@<TRIPOS>ATOM
      1  O2         5.2380   44.5530    4.4250 O.2   399  DOR399     -0.1881
      2  C2         4.6380   45.1810    5.2960 C.1   399  DOR399      0.3067
      3  N1         3.6600   46.1200    4.9440 N.2   399  DOR399     -0.1649
      4  N3         4.9510   44.9850    6.6480 N.2   399  DOR399     -0.2467
      5  C4         4.3090   45.7270    7.6480 C.1   399  DOR399      0.1951
      6  O4         4.6020   45.5440    8.8280 O.2   399  DOR399     -0.2133
      7  C5         3.2580   46.7790    7.2810 C.3   399  DOR399      0.1724
      8  C6         2.6230   46.4860    5.9210 C.3   399  DOR399      0.2370
      9  C7         1.8500   47.7190    5.4440 C.2   399  DOR399      0.3887
     10  O72        0.8060   48.0040    6.0670 O.co2 399  DOR399     -0.2434
     11  O71        2.3250   48.3520    4.4760 O.co2 399  DOR399     -0.2434
@<TRIPOS>BOND
     1     1     2    2
     2    11     9   ar
     3     3     2    2
     4     3     8    1
     5     2     4    2
     6     9     8    1
     7     9    10   ar
     8     8     7    1
     9     4     5    2
    10     7     5    1
    11     5     6    2
