@<TRIPOS>MOLECULE
3kvm_FMN_A_1.pdb
 31 33 0 0 0
SMALL
GASTEIGER

@<TRIPOS>ATOM
      1  N1        34.9930  -24.1100  -11.8790 N.2   398  FMN398     -0.2887
      2  C2        35.8040  -24.0600  -10.7390 C.1   398  FMN398      0.3669
      3  O2        35.3990  -24.5130   -9.6700 O.2   398  FMN398     -0.1744
      4  N3        37.0780  -23.4850  -10.8290 N.2   398  FMN398     -0.2300
      5  C4        37.5340  -22.9620  -12.0480 C.1   398  FMN398      0.2513
      6  O4        38.6460  -22.4460  -12.1080 O.2   398  FMN398     -0.2057
      7  C4A       36.7200  -23.0110  -13.1780 C.2   398  FMN398      0.2703
      8  N5        37.1670  -22.4980  -14.4020 N.2   398  FMN398     -0.3882
      9  C5A       36.3400  -22.5280  -15.5350 C.2   398  FMN398      0.1277
     10  C6        36.7640  -21.9400  -16.7250 C.3   398  FMN398      0.0820
     11  C7        35.9110  -21.8820  -17.8220 C.2   398  FMN398     -0.0408
     12  C7M       36.3990  -21.2340  -19.1200 C.3   398  FMN398      0.0265
     13  C8        34.6270  -22.4170  -17.7290 C.2   398  FMN398     -0.0280
     14  C8M       33.6460  -22.3280  -18.9010 C.3   398  FMN398      0.0304
     15  C9        34.2120  -23.0130  -16.5440 C.2   398  FMN398      0.0123
     16  C9A       35.0630  -23.0740  -15.4420 C.2   398  FMN398      0.0793
     17  N10       34.6320  -23.6350  -14.2280 N.pl3 398  FMN398     -0.2545
     18  C10       35.4530  -23.5850  -13.0930 C.2   398  FMN398      0.2449
     19  C1'       33.2900  -24.2540  -14.1110 C.3   398  FMN398      0.1336
     20  C2'       32.1780  -23.2270  -13.8880 C.3   398  FMN398      0.2048
     21  O2'       32.3570  -22.6090  -12.6100 O.3   398  FMN398     -0.2185
     22  C3'       30.7910  -23.8770  -13.9270 C.3   398  FMN398      0.2165
     23  O3'       30.6900  -24.8330  -12.8680 O.3   398  FMN398     -0.2175
     24  C4'       30.5130  -24.5890  -15.2540 C.3   398  FMN398      0.2147
     25  O4'       31.0380  -23.8280  -16.3460 O.3   398  FMN398     -0.2176
     26  C5'       29.0110  -24.8080  -15.4430 C.3   398  FMN398      0.1892
     27  O5'       28.3160  -23.5590  -15.5130 O.3   398  FMN398     -0.2674
     28  P         27.9400  -22.9100  -16.9380 P.3   398  FMN398      0.5327
     29  O1P       26.9930  -21.6540  -16.6030 O.3   398  FMN398     -0.1145
     30  O2P       27.2910  -23.8730  -17.8570 O.2   398  FMN398     -0.2224
     31  O3P       29.3080  -22.2980  -17.5250 O.3   398  FMN398     -0.1145
@<TRIPOS>BOND
     1    12    11    1
     2    14    13    1
     3    30    28    2
     4    11    13    2
     5    11    10    1
     6    13    15    1
     7    31    28    1
     8    28    29    1
     9    28    27    1
    10    10     9    1
    11    15    16    2
    12    25    24    1
    13     9    16    1
    14     9     8    2
    15    27    26    1
    16    26    24    1
    17    16    17    1
    18    24    22    1
    19     8     7    2
    20    17    19    1
    21    17    18    1
    22    19    20    1
    23    22    20    1
    24    22    23    1
    25    20    21    1
    26     7    18    1
    27     7     5    1
    28    18     1    2
    29     6     5    2
    30     5     4    2
    31     1     2    2
    32     4     2    2
    33     2     3    2
