@<TRIPOS>MOLECULE
3kvm_951_A_1.pdb
 24 26 0 0 0
SMALL
GASTEIGER

@<TRIPOS>ATOM
      1  CAA       32.1100   -9.7620  -21.7760 C.ar  402  951402      0.1462
      2  CAB       34.9480  -16.9850  -23.7220 C.ar  402  951402      0.0966
      3  OAC       32.4220  -10.5730  -22.8280 O.2   402  951402     -0.4518
      4  CAD       31.7500   -8.4350  -22.0020 C.ar  402  951402      0.0451
      5  CAE       34.6090  -16.8300  -25.2070 C.2   402  951402      0.3891
      6  CAF       32.2420  -10.4640  -20.6510 C.ar  402  951402      0.0407
      7  CAG       32.7590  -11.7740  -22.2770 C.ar  402  951402      0.1661
      8  NAH       33.7310  -13.9470  -22.4890 N.2   402  951402     -0.1541
      9  CAI       32.6450  -11.6970  -20.9520 C.ar  402  951402      0.0423
     10  CAJ       33.2580  -12.8340  -23.0230 C.2   402  951402      0.1569
     11  CAK       34.6110  -15.9920  -22.8080 C.ar  402  951402      0.0978
     12  CAL       31.9380   -7.4060  -21.0780 C.ar  402  951402      0.0606
     13  OAM       34.4440  -15.6760  -25.6580 O.co2 402  951402     -0.2405
     14  NAN       34.1020  -14.8390  -23.2460 N.pl3 402  951402     -0.1168
     15  OAO       34.4710  -17.8680  -25.8910 O.co2 402  951402     -0.2405
     16 CLAP       32.5880   -7.6730  -19.4970 Cl    402  951402     -0.0821
     17  CAQ       35.5480  -18.1610  -23.2760 C.ar  402  951402      0.0079
     18  CAR       31.2160   -8.1350  -23.2530 C.ar  402  951402      0.0039
     19  CAS       34.8740  -16.1750  -21.4540 C.ar  402  951402      0.0185
     20  CAT       31.6010   -6.0980  -21.4170 C.ar  402  951402      0.0115
     21  CAU       35.8100  -18.3450  -21.9210 C.ar  402  951402      0.0003
     22  CAV       30.8780   -6.8280  -23.5920 C.ar  402  951402      0.0002
     23  CAW       35.4730  -17.3500  -21.0080 C.ar  402  951402      0.0014
     24  CAX       31.0730   -5.8050  -22.6710 C.ar  402  951402      0.0009
@<TRIPOS>BOND
     1    15     5   ar
     2    13     5   ar
     3     5     2    1
     4     2    17   ar
     5     2    11   ar
     6    22    18   ar
     7    22    24   ar
     8    17    21   ar
     9    18     4   ar
    10    14    11    1
    11    14     8    1
    12    10     8    2
    13    10     7    1
    14     3     7   ar
    15     3     1   ar
    16    11    19   ar
    17    24    20   ar
    18     7     9   ar
    19     4     1    1
    20     4    12   ar
    21    21    23   ar
    22     1     6   ar
    23    19    23   ar
    24    20    12   ar
    25    12    16    1
    26     9     6   ar
