@<TRIPOS>MOLECULE
3kvm_DOR_A_1.pdb
 11 11 0 0 0
SMALL
GASTEIGER

@<TRIPOS>ATOM
      1  O2        36.0030  -26.6600  -16.1860 O.2   399  DOR399     -0.1881
      2  C2        36.8490  -26.4610  -15.3160 C.1   399  DOR399      0.3067
      3  N1        38.1550  -26.1020  -15.6690 N.2   399  DOR399     -0.1649
      4  N3        36.5240  -26.6160  -13.9610 N.2   399  DOR399     -0.2467
      5  C4        37.4950  -26.4310  -12.9680 C.1   399  DOR399      0.1951
      6  O4        37.1950  -26.5800  -11.7840 O.2   399  DOR399     -0.2133
      7  C5        38.9340  -26.0660  -13.3440 C.3   399  DOR399      0.1724
      8  C6        38.9800  -25.3620  -14.7030 C.3   399  DOR399      0.2370
      9  C7        40.4270  -25.2840  -15.1910 C.2   399  DOR399      0.3887
     10  O72       41.1370  -24.3740  -14.7090 O.co2 399  DOR399     -0.2434
     11  O71       40.7960  -26.1380  -16.0260 O.co2 399  DOR399     -0.2434
@<TRIPOS>BOND
     1     1     2    2
     2    11     9   ar
     3     3     2    2
     4     3     8    1
     5     2     4    2
     6     9    10   ar
     7     9     8    1
     8     8     7    1
     9     4     5    2
    10     7     5    1
    11     5     6    2
