@<TRIPOS>MOLECULE
3kvn_C8E_A_1.pdb
 20 19 0 0 0
SMALL
GASTEIGER

@<TRIPOS>ATOM
      1  C2         8.1160   43.9410   73.9310 C.3   623  C8E623      0.0000
      2  C3         7.6280   42.5740   74.4090 C.3   623  C8E623      0.0000
      3  C4         6.1260   42.5410   74.6690 C.3   623  C8E623      0.0000
      4  C5         5.8000   42.3320   76.1490 C.3   623  C8E623      0.0001
      5  C6         6.2090   40.9470   76.6430 C.3   623  C8E623      0.0026
      6  C7         5.4880   40.6000   77.9370 C.3   623  C8E623      0.0321
      7  C8         6.3860   39.8600   78.9200 C.3   623  C8E623      0.1423
      8  O9         5.6190   39.5060   80.0530 O.3   623  C8E623     -0.3511
      9  C10        6.1110   38.3590   80.7260 C.3   623  C8E623      0.1741
     10  C11        4.9040   37.6660   81.3350 C.3   623  C8E623      0.1742
     11  O12        5.2110   36.4160   81.8880 O.3   623  C8E623     -0.3484
     12  C13        4.0420   35.6190   81.9240 C.3   623  C8E623      0.1742
     13  C14        3.1390   35.9580   83.1050 C.3   623  C8E623      0.1742
     14  O15        2.5490   34.7500   83.5180 O.3   623  C8E623     -0.3484
     15  C16        1.3320   34.9330   84.1970 C.3   623  C8E623      0.1742
     16  C17        1.6060   35.4560   85.6020 C.3   623  C8E623      0.1742
     17  O18        0.3660   35.7350   86.2100 O.3   623  C8E623     -0.3483
     18  C19        0.3410   35.4310   87.5830 C.3   623  C8E623      0.1777
     19  C20       -0.5250   36.4620   88.2920 C.3   623  C8E623      0.2140
     20  O21       -1.6910   35.8240   88.7770 O.3   623  C8E623     -0.2176
@<TRIPOS>BOND
     1     1     2    1
     2     2     3    1
     3     3     4    1
     4     4     5    1
     5     5     6    1
     6     6     7    1
     7     7     8    1
     8     8     9    1
     9     9    10    1
    10    10    11    1
    11    11    12    1
    12    12    13    1
    13    13    14    1
    14    14    15    1
    15    15    16    1
    16    16    17    1
    17    17    18    1
    18    18    19    1
    19    19    20    1
