@<TRIPOS>MOLECULE
3kvo_NAP_A_1.pdb
 48 52 0 0 0
SMALL
GASTEIGER

@<TRIPOS>ATOM
      1  PA        14.7290   13.7550   92.9090 P.3   501  NAP501      0.2189
      2  O1A       15.6870   14.5890   92.1210 O.2   501  NAP501     -0.5170
      3  O2A       13.6970   14.4990   93.6890 O.3   501  NAP501     -0.4371
      4  O5B       15.6210   12.7470   93.7930 O.3   501  NAP501     -0.3112
      5  C5B       17.0040   12.7100   93.5940 C.3   501  NAP501      0.1813
      6  C4B       17.5630   12.4510   94.9630 C.3   501  NAP501      0.1820
      7  O4B       18.9330   12.1700   94.8590 O.3   501  NAP501     -0.3136
      8  C3B       17.3960   13.6620   95.8520 C.3   501  NAP501      0.2157
      9  O3B       17.0970   13.2000   97.1500 O.3   501  NAP501     -0.2175
     10  C2B       18.7470   14.3420   95.7890 C.3   501  NAP501      0.2314
     11  O2B       18.9620   14.9990   97.0250 O.3   501  NAP501     -0.2630
     12  C1B       19.6820   13.1480   95.5420 C.3   501  NAP501      0.3158
     13  N9A       20.9110   13.4780   94.8140 N.pl3 501  NAP501     -0.1439
     14  C8A       21.0350   14.1270   93.6150 C.3   501  NAP501      0.3377
     15  N7A       22.3560   14.2290   93.3420 N.2   501  NAP501     -0.2095
     16  C5A       23.0630   13.6590   94.3300 C.2   501  NAP501      0.2526
     17  C6A       24.4170   13.5200   94.5400 C.2   501  NAP501      0.4393
     18  N6A       25.2880   13.9860   93.6450 N.pl3 501  NAP501      0.2180
     19  N1A       24.8570   12.8930   95.6830 N.2   501  NAP501      0.0021
     20  C2A       23.9530   12.4050   96.6030 C.3   501  NAP501      0.5254
     21  N3A       22.6040   12.5550   96.3990 N.2   501  NAP501     -0.0055
     22  C4A       22.1700   13.1780   95.2680 C.2   501  NAP501      0.3518
     23  O3        13.9690   12.7270   91.9220 O.3   501  NAP501     -0.2703
     24  PN        13.0960   11.4140   92.2560 P.3   501  NAP501      0.2189
     25  O1N       13.1080   11.2090   93.7280 O.3   501  NAP501     -0.4371
     26  O2N       11.7560   11.5210   91.5940 O.2   501  NAP501     -0.5170
     27  O5D       14.0270   10.3250   91.5470 O.3   501  NAP501     -0.3112
     28  C5D       14.7940    9.4330   92.3430 C.3   501  NAP501      0.1813
     29  C4D       15.2130    8.2130   91.5350 C.3   501  NAP501      0.1799
     30  O4D       14.0850    7.6670   90.9040 O.3   501  NAP501     -0.3327
     31  C3D       16.1890    8.5160   90.4180 C.3   501  NAP501      0.2158
     32  O3D       17.0900    7.4300   90.3500 O.3   501  NAP501     -0.2175
     33  C2D       15.3490    8.5960   89.1610 C.3   501  NAP501      0.2309
     34  O2D       16.0550    8.3260   87.9490 O.3   501  NAP501     -0.2158
     35  C1D       14.3120    7.5540   89.5030 C.3   501  NAP501      0.2263
     36  N1N       13.0780    7.7240   88.6990 N.pl3 501  NAP501     -0.2787
     37  C2N       12.0520    8.5500   89.0860 C.3   501  NAP501      0.1244
     38  C3N       10.9280    8.6490   88.2710 C.2   501  NAP501      0.0544
     39  C7N        9.8080    9.5790   88.6220 C.2   501  NAP501      0.2818
     40  O7N        8.6740    9.5710   87.7910 O.2   501  NAP501     -0.2670
     41  N7N        9.9070   10.3840   89.6800 N.am  501  NAP501     -0.0839
     42  C4N       10.8480    7.9220   87.0830 C.2   501  NAP501      0.0033
     43  C5N       11.8940    7.1000   86.7130 C.2   501  NAP501      0.0157
     44  C6N       13.0120    7.0170   87.5290 C.2   501  NAP501      0.0633
     45  P2B       19.9860   16.2150   97.1990 P.3   501  NAP501      0.5328
     46  O1X       19.8910   16.6370   98.6320 O.3   501  NAP501     -0.1145
     47  O2X       19.5770   17.3260   96.2900 O.2   501  NAP501     -0.2224
     48  O3X       21.4040   15.7980   96.8910 O.3   501  NAP501     -0.1145
@<TRIPOS>BOND
     1    43    42    1
     2    43    44    2
     3    42    38    2
     4    44    36    1
     5    40    39    2
     6    34    33    1
     7    38    39    1
     8    38    37    1
     9    39    41   am
    10    36    37    1
    11    36    35    1
    12    33    35    1
    13    33    31    1
    14    35    30    1
    15    32    31    1
    16    31    29    1
    17    30    29    1
    18    29    28    1
    19    27    24    1
    20    27    28    1
    21    26    24    2
    22    23    24    1
    23    23     1    1
    24     2     1    2
    25    24    25    1
    26     1     3    1
    27     1     4    1
    28    15    14    1
    29    15    16    2
    30     5     4    1
    31     5     6    1
    32    14    13    1
    33    18    17    1
    34    16    17    1
    35    16    22    1
    36    17    19    2
    37    13    22    1
    38    13    12    1
    39     7     6    1
    40     7    12    1
    41     6     8    1
    42    22    21    2
    43    12    10    1
    44    19    20    1
    45    10     8    1
    46    10    11    1
    47     8     9    1
    48    47    45    2
    49    21    20    1
    50    48    45    1
    51    11    45    1
    52    45    46    1
