@<TRIPOS>MOLECULE
3kvs_BLA_A_1.pdb
 43 46 0 0 0
SMALL
GASTEIGER

@<TRIPOS>ATOM
      1  CHA       17.5980   35.1650  -13.2560 C.3   484  BLA484      0.1170
      2  NA        15.0760   35.0390  -12.2280 N.2   484  BLA484     -0.4104
      3  C1A       16.2950   34.4930  -12.9200 C.2   484  BLA484      0.1114
      4  C2A       16.0620   33.0410  -13.2900 C.2   484  BLA484      0.0024
      5  C3A       14.6970   32.6750  -12.8370 C.2   484  BLA484      0.0021
      6  C4A       14.0850   33.9370  -12.1850 C.2   484  BLA484      0.1099
      7  CMA       14.0790   31.2910  -13.0110 C.3   484  BLA484      0.0331
      8  CAA       17.1040   32.1230  -13.9350 C.3   484  BLA484      0.0402
      9  CBA       16.8260   31.8960  -15.4270 C.3   484  BLA484      0.1188
     10  CGA       16.7430   33.2420  -16.1450 C.2   484  BLA484      0.3652
     11  O1A       17.9290   33.8770  -16.4880 O.co2 484  BLA484     -0.2456
     12  O2A       15.6940   33.7440  -16.3940 O.co2 484  BLA484     -0.2456
     13  CHB       12.7540   34.1090  -11.4970 C.3   484  BLA484      0.0994
     14  NB        11.6080   32.8770  -13.5320 N.2   484  BLA484     -0.2487
     15  C1B       11.5830   33.8670  -12.4220 C.2   484  BLA484      0.0413
     16  C2B       10.2320   33.7670  -11.7730 C.3   484  BLA484      0.0447
     17  C3B        9.3800   33.2560  -12.8980 C.3   484  BLA484      0.0812
     18  C4B       10.2980   32.1940  -13.5100 C.3   484  BLA484      0.2578
     19  CMB        9.7870   34.7220  -10.6600 C.3   484  BLA484      0.0064
     20  OB         9.9130   31.7700  -14.7760 O.3   484  BLA484     -0.1958
     21  CAB        7.9350   32.8480  -12.5990 C.2   484  BLA484     -0.0215
     22  CBB        7.0270   33.1710  -13.5070 C.2   484  BLA484     -0.0048
     23  NC        19.2830   40.4690   -9.4180 N.3   484  BLA484     -0.1899
     24  C1C       19.4220   41.3490   -8.2020 C.3   484  BLA484      0.2258
     25  C2C       18.2000   42.2650   -8.1280 C.3   484  BLA484      0.0529
     26  C3C       17.1620   41.2320   -8.5030 C.3   484  BLA484      0.0424
     27  C4C       17.8190   40.6620   -9.7550 C.3   484  BLA484      0.0864
     28  CMC       18.0700   43.1210   -6.8640 C.3   484  BLA484      0.0045
     29  OC        20.6490   41.9670   -8.0860 O.3   484  BLA484     -0.2036
     30  CAC       15.6430   41.4650   -8.5000 C.2   484  BLA484     -0.0249
     31  CBC       14.9060   41.7740   -7.4440 C.2   484  BLA484     -0.0049
     32  CHD       17.0800   39.4310  -10.2150 C.3   484  BLA484      0.0764
     33  ND        16.9830   37.2620  -11.6220 N.2   484  BLA484     -0.4107
     34  C1D       17.7340   38.5160  -11.2470 C.2   484  BLA484      0.1057
     35  C2D       19.1000   38.5040  -11.9900 C.2   484  BLA484      0.0018
     36  C3D       19.1370   37.2370  -12.8050 C.2   484  BLA484      0.0024
     37  C4D       17.8410   36.4830  -12.5630 C.2   484  BLA484      0.1114
     38  CMD       20.1890   39.5640  -12.0110 C.3   484  BLA484      0.0331
     39  CAD       20.2520   36.6300  -13.6550 C.3   484  BLA484      0.0402
     40  CBD       20.8030   35.4370  -12.8360 C.3   484  BLA484      0.1188
     41  CGD       21.8590   34.6550  -13.6290 C.2   484  BLA484      0.3652
     42  O1D       21.8270   34.6950  -15.0220 O.co2 484  BLA484     -0.2456
     43  O2D       22.7060   34.0260  -13.0720 O.co2 484  BLA484     -0.2456
@<TRIPOS>BOND
     1    11    10   ar
     2    12    10   ar
     3    10     9    1
     4     9     8    1
     5    42    41   ar
     6    20    18    1
     7     8     4    1
     8    39    40    1
     9    39    36    1
    10    41    43   ar
    11    41    40    1
    12    14    18    1
    13    14    15    2
    14    18    17    1
    15    22    21    2
    16     4     3    1
    17     4     5    2
    18     1     3    1
    19     1    37    1
    20     7     5    1
    21     3     2    2
    22    17    21    1
    23    17    16    1
    24     5     6    1
    25    36    37    1
    26    36    35    2
    27    37    33    2
    28    15    16    1
    29    15    13    1
    30     2     6    2
    31     6    13    1
    32    38    35    1
    33    35    34    1
    34    16    19    1
    35    33    34    2
    36    34    32    1
    37    32    27    1
    38    27    23    1
    39    27    26    1
    40    23    24    1
    41    26    30    1
    42    26    25    1
    43    30    31    2
    44    24    25    1
    45    24    29    1
    46    25    28    1
