@<TRIPOS>MOLECULE
3kvu_ACO_A_1.pdb
 16 15 0 0 0
SMALL
GASTEIGER

@<TRIPOS>ATOM
      1  CAP       -0.5210   -5.8130   22.9800 C.3   201  ACO201      0.2680
      2  OAP       -0.5370   -6.7290   21.8350 O.3   201  ACO201     -0.2098
      3  C9P       -0.9410   -4.3590   22.7670 C.2   201  ACO201      0.2750
      4  O9P       -1.9400   -3.9470   23.3560 O.2   201  ACO201     -0.2705
      5  N8P       -0.1980   -3.5950   21.9460 N.am  201  ACO201     -0.2027
      6  C7P       -0.3190   -2.2010   21.5710 C.3   201  ACO201      0.1248
      7  C6P       -0.3080   -2.1800   20.0520 C.3   201  ACO201      0.1102
      8  C5P       -0.3140   -0.7600   19.5080 C.2   201  ACO201      0.2432
      9  O5P        0.3440    0.1620   19.9190 O.2   201  ACO201     -0.2733
     10  N4P       -1.0360   -0.3790   18.4880 N.am  201  ACO201     -0.2044
     11  C3P       -0.8730    1.0280   18.1960 C.3   201  ACO201      0.1272
     12  C2P       -1.3750    1.1440   16.8040 C.3   201  ACO201      0.0883
     13  S1P       -3.0020    1.8140   16.7940 S.3   201  ACO201     -0.0753
     14  C         -2.9720    1.8230   15.1680 C.2   201  ACO201      0.1992
     15  O         -2.5540    2.8180   14.6000 O.2   201  ACO201     -0.2845
     16  CH3       -3.3940    0.5100   14.5900 C.3   201  ACO201      0.0845
@<TRIPOS>BOND
     1    16    14    1
     2    15    14    2
     3    14    13    1
     4    13    12    1
     5    12    11    1
     6    11    10    1
     7    10     8   am
     8     8     9    2
     9     8     7    1
    10     7     6    1
    11     6     5    1
    12     2     1    1
    13     5     3   am
    14     3     1    1
    15     3     4    2
