@<TRIPOS>MOLECULE
3kvx_FMY_A_1.pdb
 37 42 0 0 0
SMALL
GASTEIGER

@<TRIPOS>ATOM
      1  C01      -27.3880   34.8420   11.7600 C.ar  403  FMY403      0.0187
      2  C02      -26.1580   35.9270    9.9440 C.ar  403  FMY403      0.0187
      3  C03      -26.1110   34.4450   12.2410 C.ar  403  FMY403      0.0178
      4  C04      -24.9400   35.4500   10.3980 C.ar  403  FMY403      0.0178
      5  C05      -23.6690   33.4280   13.0930 C.3   403  FMY403      0.2532
      6  C06      -32.1740   32.8600   13.5160 C.ar  403  FMY403      0.0323
      7  C07      -30.4980   31.7390   14.9190 C.ar  403  FMY403      0.0441
      8  C08      -29.7790   33.1180   13.0800 C.ar  403  FMY403      0.0172
      9  C09      -26.1090   33.4950   14.3140 C.3   403  FMY403      0.1636
     10  C10      -26.1280   31.0100   14.1410 C.3   403  FMY403      0.1636
     11  C11      -18.5470   31.7580   12.3810 C.3   403  FMY403      0.1643
     12  C12      -18.3370   33.3240   10.5480 C.3   403  FMY403      0.1643
     13  C13      -27.5590   33.3960   14.7600 C.3   403  FMY403      0.1231
     14  C14      -27.4240   31.3000   13.4290 C.3   403  FMY403      0.1231
     15  C15      -19.5590   32.7330   13.0310 C.3   403  FMY403      0.1334
     16  C16      -19.5860   34.1630   10.9160 C.3   403  FMY403      0.1334
     17  N17      -22.3550   33.0950   13.2160 N.2   403  FMY403     -0.1823
     18  N18      -22.5060   34.3900   11.3720 N.2   403  FMY403     -0.1076
     19  N19      -28.4790   36.0950   10.1070 N.pl3 403  FMY403     -0.1358
     20  O20      -25.4950   32.2460   14.6130 O.3   403  FMY403     -0.3501
     21  O21      -18.4300   31.9420   10.9570 O.3   403  FMY403     -0.3501
     22  C22      -31.8170   32.0750   14.6360 C.ar  403  FMY403      0.1415
     23  C23      -27.3600   35.6020   10.6130 C.ar  403  FMY403      0.0827
     24  C24      -31.1010   33.3510   12.7210 C.ar  403  FMY403      0.0340
     25  C25      -29.4830   32.2330   14.0990 C.ar  403  FMY403      0.0503
     26  C26      -24.8750   34.6750   11.5760 C.ar  403  FMY403      0.0721
     27  C27      -21.6740   33.7300   12.2210 C.1   403  FMY403      0.1073
     28  N28      -28.1470   32.0510   14.4610 N.pl3 403  FMY403     -0.3027
     29  N29      -20.3080   33.5270   12.0260 N.pl3 403  FMY403     -0.2469
     30  N30      -23.7390   34.1540   11.9990 N.pl3 403  FMY403     -0.1767
     31  C31      -29.6710   35.5070   10.2230 C.1   403  FMY403      0.1696
     32  N31      -30.6510   35.7850    9.2990 N.2   403  FMY403     -0.1683
     33  N32      -29.8660   34.7510   11.3240 N.2   403  FMY403     -0.3361
     34  C33      -31.0950   34.2710   11.5850 C.2   403  FMY403      0.1458
     35  C34      -32.1210   34.5350   10.7560 C.2   403  FMY403      0.0545
     36  C35      -31.8690   35.3370    9.6320 C.2   403  FMY403      0.1144
     37  F37      -32.6910   31.5420   15.4700 F     403  FMY403     -0.2041
@<TRIPOS>BOND
     1    32    36    1
     2    32    31    2
     3    36    35    2
     4     2     4   ar
     5     2    23   ar
     6    19    31    1
     7    19    23    1
     8    31    33    2
     9     4    26   ar
    10    12    16    1
    11    12    21    1
    12    23     1   ar
    13    35    34    1
    14    16    29    1
    15    21    11    1
    16    33    34    2
    17    18    30    1
    18    18    27    2
    19    26    30    1
    20    26     3   ar
    21    34    24    1
    22     1     3   ar
    23    30     5    1
    24    29    27    1
    25    29    15    1
    26    27    17    2
    27    11    15    1
    28    24     8   ar
    29    24     6   ar
    30     8    25   ar
    31     5    17    1
    32    14    10    1
    33    14    28    1
    34     6    22   ar
    35    25    28    1
    36    25     7   ar
    37    10    20    1
    38     9    20    1
    39     9    13    1
    40    28    13    1
    41    22     7   ar
    42    22    37    1
