@<TRIPOS>MOLECULE
3kvz_ENV_B_1.pdb
 11 10 0 0 0
SMALL
GASTEIGER

@<TRIPOS>ATOM
      1  C2        33.9870   -3.2800   -5.4890 C.2   201  ENV201      0.1862
      2  C3        34.7170   -2.7640   -4.2500 C.3   201  ENV201      0.2569
      3  C4        32.8050   -2.5340   -6.1120 C.3   201  ENV201      0.0693
      4  F4        34.2100   -3.1750   -3.0220 F     201  ENV201     -0.2258
      5  O5        34.3610   -4.3420   -5.9710 O.2   201  ENV201     -0.2931
      6  C6        33.0270   -1.9340   -7.5040 C.3   201  ENV201      0.0313
      7  C7        31.7880   -2.0730   -8.4010 C.3   201  ENV201      0.1156
      8  N8        30.6680   -1.1340   -8.2340 N.am  201  ENV201     -0.2054
      9  C9        30.3650   -0.2270   -9.1910 C.2   201  ENV201      0.2419
     10  C10       31.2510   -0.1940  -10.4040 C.3   201  ENV201      0.0964
     11  O11       29.4420    0.5690   -9.1290 O.2   201  ENV201     -0.2733
@<TRIPOS>BOND
     1    10     9    1
     2     9    11    2
     3     9     8   am
     4     7     8    1
     5     7     6    1
     6     6     3    1
     7     3     1    1
     8     5     1    2
     9     1     2    1
    10     2     4    1
