@<TRIPOS>MOLECULE
3kw0_LYS_A_1.pdb
 10 9 0 0 0
SMALL
GASTEIGER

@<TRIPOS>ATOM
      1  N        -20.3370   12.6670   34.6060 N.3   201  LYS201     -0.1208
      2  CA       -21.6770   12.8940   34.0300 C.3   201  LYS201      0.1943
      3  C        -22.7050   11.9380   34.6270 C.2   201  LYS201      0.3819
      4  O        -22.4540   10.7470   34.7890 O.co2 201  LYS201     -0.2441
      5  CB       -21.6300   12.7170   32.5130 C.3   201  LYS201      0.0307
      6  CG       -22.5990   13.6230   31.7470 C.3   201  LYS201      0.0036
      7  CD       -23.9600   12.9940   31.5570 C.3   201  LYS201      0.0206
      8  CE       -24.7500   13.6310   30.4080 C.3   201  LYS201      0.1093
      9  NZ       -25.2100   15.0100   30.7070 N.3   201  LYS201     -0.1314
     10  OXT      -23.8280   12.3360   34.9750 O.co2 201  LYS201     -0.2441
@<TRIPOS>BOND
     1     8     9    1
     2     8     7    1
     3     7     6    1
     4     6     5    1
     5     5     2    1
     6     2     1    1
     7     2     3    1
     8     3     4   ar
     9     3    10   ar
