@<TRIPOS>MOLECULE
3kw1_ENW_D_1.pdb
 11 10 0 0 0
SMALL
GASTEIGER

@<TRIPOS>ATOM
      1  C2        18.9460    5.3500   39.5430 C.2   140  ENW140      0.3535
      2  C3        19.4900    4.5960   40.7620 C.3   140  ENW140      0.3016
      3  F4        20.7540    3.9990   40.6670 F     140  ENW140     -0.2215
      4  O4        17.6610    5.1790   39.1910 O.3   140  ENW140     -0.4446
      5  O5        19.6230    6.1240   38.8520 O.2   140  ENW140     -0.2469
      6  C6        17.0540    6.2290   38.4450 C.3   140  ENW140      0.2318
      7  C7        15.6400    5.8180   38.0760 C.3   140  ENW140      0.1624
      8  N8        15.3860    6.1920   36.7120 N.am  140  ENW140     -0.2014
      9  C9        14.3830    5.7450   35.9590 C.2   140  ENW140      0.2420
     10  C10       13.3980    4.7380   36.4810 C.3   140  ENW140      0.0964
     11  O11       14.3020    6.1630   34.8180 O.2   140  ENW140     -0.2733
@<TRIPOS>BOND
     1    11     9    2
     2     9    10    1
     3     9     8   am
     4     8     7    1
     5     7     6    1
     6     6     4    1
     7     5     1    2
     8     4     1    1
     9     1     2    1
    10     3     2    1
