@<TRIPOS>MOLECULE
3kw2_ADN_A_1.pdb
 19 21 0 0 0
SMALL
GASTEIGER

@<TRIPOS>ATOM
      1  O5'        9.9860   47.4820   58.3240 O.3   300  ADN300     -0.2176
      2  C5'       10.4210   46.1180   58.4830 C.3   300  ADN300      0.2143
      3  C4'        9.2360   45.1920   58.7290 C.3   300  ADN300      0.1851
      4  O4'        8.4230   45.7160   59.8120 O.3   300  ADN300     -0.3134
      5  C3'        8.2560   45.0560   57.5660 C.3   300  ADN300      0.2186
      6  O3'        8.6820   44.0540   56.6620 O.3   300  ADN300     -0.2174
      7  C2'        6.9390   44.6780   58.2480 C.3   300  ADN300      0.2570
      8  O2'        6.8100   43.2790   58.4890 O.3   300  ADN300     -0.2130
      9  C1'        7.0400   45.4430   59.5660 C.3   300  ADN300      0.3186
     10  N9         6.2520   46.6860   59.7570 N.pl3 300  ADN300     -0.1439
     11  C8         6.7730   47.8980   60.1710 C.3   300  ADN300      0.3377
     12  N7         5.8920   48.8650   60.3010 N.2   300  ADN300     -0.2095
     13  C5         4.6930   48.2480   59.9770 C.2   300  ADN300      0.2526
     14  C6         3.3690   48.7450   59.9170 C.2   300  ADN300      0.4393
     15  N6         3.0850   50.0140   60.2310 N.pl3 300  ADN300      0.2180
     16  N1         2.3740   47.8920   59.5370 N.2   300  ADN300      0.0021
     17  C2         2.6950   46.6180   59.2380 C.3   300  ADN300      0.5254
     18  N3         3.9050   46.0450   59.2500 N.2   300  ADN300     -0.0055
     19  C4         4.8810   46.9060   59.6330 C.2   300  ADN300      0.3518
@<TRIPOS>BOND
     1     6     5    1
     2     5     7    1
     3     5     3    1
     4     7     8    1
     5     7     9    1
     6     1     2    1
     7     2     3    1
     8     3     4    1
     9    17    18    1
    10    17    16    1
    11    18    19    2
    12    16    14    2
    13     9    10    1
    14     9     4    1
    15    19    10    1
    16    19    13    1
    17    10    11    1
    18    14    13    1
    19    14    15    1
    20    13    12    2
    21    11    12    1
