@<TRIPOS>MOLECULE
3kw4_TIC_A_1.pdb
 17 19 0 0 0
SMALL
GASTEIGER

@<TRIPOS>ATOM
      1  C1        -5.6610   31.1370   21.9540 C.3   600  TIC600      0.0779
      2  N1        -4.5740   32.1490   21.8400 N.3   600  TIC600     -0.2648
      3  S1        -7.2040   32.2500   25.4850 S.2   600  TIC600     -0.0910
      4 CL1        -2.1550   31.6710   19.4560 Cl    600  TIC600     -0.0825
      5  C2        -4.9970   33.4660   22.4040 C.3   600  TIC600      0.0996
      6  C3        -6.0310   30.8250   23.4170 C.3   600  TIC600      0.0500
      7  C4        -5.8330   33.3100   23.6140 C.ar  600  TIC600     -0.0036
      8  C5        -6.2900   32.1080   24.0760 C.ar  600  TIC600      0.0060
      9  C6        -3.2580   31.6260   22.3190 C.3   600  TIC600      0.1002
     10  C7        -2.9090   30.2950   21.7170 C.ar  600  TIC600      0.0045
     11  C8        -6.2430   34.3950   24.4520 C.ar  600  TIC600      0.0042
     12  C9        -6.9900   33.9410   25.4940 C.ar  600  TIC600      0.0348
     13  C10       -2.3970   30.2390   20.4230 C.ar  600  TIC600      0.0550
     14  C11       -3.0780   29.0870   22.4040 C.ar  600  TIC600     -0.0021
     15  C12       -2.0530   29.0420   19.8100 C.ar  600  TIC600      0.0111
     16  C13       -2.7400   27.8820   21.7990 C.ar  600  TIC600     -0.0002
     17  C14       -2.2280   27.8530   20.5070 C.ar  600  TIC600      0.0008
@<TRIPOS>BOND
     1     4    13    1
     2    15    13   ar
     3    15    17   ar
     4    13    10   ar
     5    17    16   ar
     6    10     9    1
     7    10    14   ar
     8    16    14   ar
     9     2     1    1
    10     2     9    1
    11     2     5    1
    12     1     6    1
    13     5     7    1
    14     6     8    1
    15     7     8   ar
    16     7    11   ar
    17     8     3   ar
    18    11    12   ar
    19     3    12   ar
