@<TRIPOS>MOLECULE
3kw4_HEM_A_1.pdb
 43 50 0 0 0
SMALL
GASTEIGER

@<TRIPOS>ATOM
      1  CHA        1.2120   28.9320   18.1580 C.2   500  HEM500      0.0000
      2  CHB        1.7400   33.6260   18.9990 C.2   500  HEM500      0.0000
      3  CHC       -1.0230   34.9010   15.2680 C.2   500  HEM500      0.0000
      4  CHD       -1.1550   30.2780   14.1350 C.2   500  HEM500      0.0000
      5  C1A        1.5800   30.1180   18.7180 C.2   500  HEM500      0.0000
      6  C2A        2.4200   30.2830   19.8740 C.2   500  HEM500      0.0000
      7  C3A        2.5610   31.5840   20.0830 C.2   500  HEM500      0.0000
      8  C4A        1.8290   32.2730   19.0690 C.2   500  HEM500      0.0000
      9  CMA        3.3590   32.2810   21.1980 C.3   500  HEM500      0.0000
     10  CAA        3.0470   29.1540   20.7150 C.3   500  HEM500      0.0000
     11  CBA        4.0900   28.3800   19.9240 C.3   500  HEM500      0.0000
     12  CGA        4.6510   27.3030   20.8250 C.2   500  HEM500      0.0000
     13  O1A        3.9080   26.3580   21.1980 O.co2 500  HEM500      0.0000
     14  O2A        5.8570   27.3870   21.1820 O.co2 500  HEM500      0.0000
     15  C1B        1.0150   34.3180   18.0720 C.ar  500  HEM500      0.0000
     16  C2B        0.9500   35.7520   18.0730 C.ar  500  HEM500      0.0000
     17  C3B        0.1830   36.1100   17.0410 C.ar  500  HEM500      0.0000
     18  C4B       -0.2430   34.9180   16.3760 C.ar  500  HEM500      0.0000
     19  CMB        1.6840   36.6170   19.1230 C.3   500  HEM500      0.0000
     20  CAB       -0.2010   37.5190   16.6050 C.2   500  HEM500      0.0000
     21  CBB       -0.0170   38.5530   17.4320 C.2   500  HEM500      0.0000
     22  C1C       -1.2660   33.7460   14.5930 C.2   500  HEM500      0.0000
     23  C2C       -1.9410   33.6120   13.3260 C.2   500  HEM500      0.0000
     24  C3C       -1.9770   32.3200   13.0410 C.2   500  HEM500      0.0000
     25  C4C       -1.3180   31.6250   14.1060 C.2   500  HEM500      0.0000
     26  CMC       -2.5000   34.7800   12.4960 C.3   500  HEM500      0.0000
     27  CAC       -2.5700   31.5890   11.8240 C.2   500  HEM500      0.0000
     28  CBC       -3.1050   32.2290   10.7920 C.2   500  HEM500      0.0000
     29  C1D       -0.5850   29.5510   15.1260 C.ar  500  HEM500      0.0000
     30  C2D       -0.6680   28.1260   15.1130 C.ar  500  HEM500      0.0000
     31  C3D        0.0660   27.6670   16.3590 C.ar  500  HEM500      0.0000
     32  C4D        0.5160   28.8830   16.9870 C.ar  500  HEM500      0.0000
     33  CMD       -1.3750   27.2900   14.0400 C.3   500  HEM500      0.0000
     34  CAD        0.2910   26.2230   16.8120 C.3   500  HEM500      0.0000
     35  CBD        1.6990   25.9270   16.3100 C.3   500  HEM500      0.0000
     36  CGD        2.0360   24.4760   16.4800 C.2   500  HEM500      0.0000
     37  O1D        2.6300   23.8860   15.5430 O.co2 500  HEM500      0.0000
     38  O2D        1.7020   23.9130   17.5460 O.co2 500  HEM500      0.0000
     39  NA         1.2340   31.3640   18.2350 N.2   500  HEM500      0.0000
     40  NB         0.2680   33.8140   17.0220 N.ar  500  HEM500      0.0000
     41  NC        -0.8830   32.5140   15.0530 N.2   500  HEM500      0.0000
     42  ND         0.1110   29.9880   16.2410 N.ar  500  HEM500      0.0000
     43 FE          0.2730   31.9530   16.6000 Fe    500  HEM500      0.0000
@<TRIPOS>BOND
     1    28    27    2
     2    27    24    1
     3    26    23    1
     4    24    23    2
     5    24    25    1
     6    23    22    1
     7    33    30    1
     8    25     4    1
     9    25    41    2
    10     4    29    2
    11    22    41    1
    12    22     3    2
    13    41    43    1
    14    30    29   ar
    15    30    31   ar
    16    29    42   ar
    17     3    18    1
    18    37    36   ar
    19    42    43    1
    20    42    32   ar
    21    35    36    1
    22    35    34    1
    23    31    34    1
    24    31    32   ar
    25    18    40   ar
    26    18    17   ar
    27    36    38   ar
    28    43    40    1
    29    43    39    1
    30    20    17    1
    31    20    21    2
    32    32     1    2
    33    40    15   ar
    34    17    16   ar
    35    15    16   ar
    36    15     2    1
    37    16    19    1
    38     1     5    1
    39    39     5    2
    40    39     8    1
    41     5     6    1
    42     2     8    2
    43     8     7    1
    44     6     7    2
    45     6    10    1
    46    11    10    1
    47    11    12    1
    48     7     9    1
    49    12    14   ar
    50    12    13   ar
