@<TRIPOS>MOLECULE
3kw4_CM5_A_1.pdb
 34 36 0 0 0
SMALL
GASTEIGER

@<TRIPOS>ATOM
      1  C7        -5.3360   28.6520   42.1010 C.3   601  CM5601      0.0000
      2  C8        -5.2580   28.0560   40.6980 C.3   601  CM5601      0.0000
      3  C9        -4.9460   29.1060   39.6360 C.3   601  CM5601      0.0000
      4  C10       -3.6310   29.7840   39.9740 C.3   601  CM5601      0.0000
      5  C11       -3.7830   30.4060   41.3560 C.3   601  CM5601      0.0000
      6  C6        -4.0430   29.3530   42.4290 C.3   601  CM5601      0.0000
      7  C5        -4.1940   30.0340   43.7770 C.3   601  CM5601      0.0000
      8  C4        -4.4180   29.0040   44.8630 C.3   601  CM5601      0.0001
      9  C3        -4.5210   29.6930   46.2080 C.3   601  CM5601      0.0026
     10  C2        -3.1610   29.6970   46.8570 C.3   601  CM5601      0.0322
     11  C1        -3.0790   30.8950   47.7710 C.3   601  CM5601      0.1449
     12  O12       -1.7660   30.9340   48.3200 O.3   601  CM5601     -0.3286
     13  C13       -1.8430   31.2400   49.7000 C.3   601  CM5601      0.2695
     14  C18       -2.1330   29.9220   50.3670 C.3   601  CM5601      0.2404
     15  O22       -3.3040   29.3640   49.7860 O.3   601  CM5601     -0.2149
     16  C17       -2.3670   30.2590   51.8090 C.3   601  CM5601      0.2167
     17  O21       -3.0050   29.1600   52.4690 O.3   601  CM5601     -0.2175
     18  O14       -0.6190   31.7690   50.2010 O.3   601  CM5601     -0.3257
     19  C15       -0.6070   31.9390   51.6240 C.3   601  CM5601      0.1803
     20  C19        0.7780   32.4570   52.0280 C.3   601  CM5601      0.2141
     21  O20        1.3010   33.3600   51.0320 O.3   601  CM5601     -0.2176
     22  C16       -0.9710   30.6140   52.2950 C.3   601  CM5601      0.1804
     23  O23       -0.9230   30.6930   53.7170 O.3   601  CM5601     -0.3257
     24  C24       -0.2160   29.5630   54.2390 C.3   601  CM5601      0.2695
     25  O25        0.9480   30.0360   54.9500 O.3   601  CM5601     -0.3256
     26  C26        1.5080   29.2130   55.9980 C.3   601  CM5601      0.1835
     27  C30        2.3780   28.1100   55.3970 C.3   601  CM5601      0.2142
     28  O31        3.7520   28.5120   55.4480 O.3   601  CM5601     -0.2176
     29  C27        0.4590   28.6310   56.9580 C.3   601  CM5601      0.2144
     30  O32        0.7700   28.9740   58.3170 O.3   601  CM5601     -0.2176
     31  C28       -0.9250   29.1400   56.5750 C.3   601  CM5601      0.2198
     32  O33       -1.9640   28.5900   57.3990 O.3   601  CM5601     -0.2174
     33  C29       -1.1190   28.7120   55.1350 C.3   601  CM5601      0.2406
     34  O34       -2.5070   28.7660   54.7670 O.3   601  CM5601     -0.2149
@<TRIPOS>BOND
     1     3     4    1
     2     3     2    1
     3     4     5    1
     4     2     1    1
     5     5     6    1
     6     1     6    1
     7     6     7    1
     8     7     8    1
     9     8     9    1
    10     9    10    1
    11    10    11    1
    12    11    12    1
    13    12    13    1
    14    13    18    1
    15    13    14    1
    16    15    14    1
    17    18    19    1
    18    14    16    1
    19    21    20    1
    20    19    20    1
    21    19    22    1
    22    16    22    1
    23    16    17    1
    24    22    23    1
    25    23    24    1
    26    24    25    1
    27    24    33    1
    28    34    33    1
    29    25    26    1
    30    33    31    1
    31    27    28    1
    32    27    26    1
    33    26    29    1
    34    31    29    1
    35    31    32    1
    36    29    30    1
