@<TRIPOS>MOLECULE
3kw9_ORG_A_1.pdb
 21 23 0 0 0
SMALL
GASTEIGER

@<TRIPOS>ATOM
      1  N1        45.1940   16.5930   59.6270 N.2   216  ORG216     -0.2618
      2  C2        44.9690   15.3420   59.7920 C.1   216  ORG216      0.2405
      3  N3        44.3940   14.9470   61.0670 N.2   216  ORG216     -0.2452
      4  C4        44.1050   15.7720   62.0130 C.1   216  ORG216      0.2235
      5  N5        44.3910   17.1680   61.7390 N.2   216  ORG216     -0.2629
      6  C6        44.8980   17.5830   60.6400 C.1   216  ORG216      0.1592
      7  N7        45.2320   14.4470   58.8770 N.pl3 216  ORG216     -0.1524
      8  N8        43.5850   15.3830   63.1620 N.pl3 216  ORG216     -0.2301
      9  C9        45.1600   18.9650   60.4300 C.3   216  ORG216      0.2349
     10  C10       43.2990   13.9550   63.4470 C.3   216  ORG216      0.1220
     11  C11       44.0640   13.5570   64.7440 C.3   216  ORG216      0.1110
     12  N12       43.7270   14.5240   65.8340 N.3   216  ORG216     -0.2144
     13  C13       44.0400   15.9500   65.5090 C.3   216  ORG216      0.1110
     14  C14       43.2640   16.3620   64.2290 C.3   216  ORG216      0.1220
     15  N15       44.9020   20.0480   61.2530 N.3   216  ORG216     -0.1115
     16  C16       46.1610   14.6690   57.7570 C.3   216  ORG216      0.1056
     17  C17       47.6460   14.5140   58.2110 C.3   216  ORG216      0.0225
     18  C18       48.6310   14.7370   57.0170 C.3   216  ORG216      0.0018
     19  C19       48.3070   13.7330   55.8580 C.3   216  ORG216      0.0001
     20  C20       46.8140   13.8590   55.4060 C.3   216  ORG216      0.0018
     21  C21       45.8440   13.6530   56.6180 C.3   216  ORG216      0.0225
@<TRIPOS>BOND
     1    20    19    1
     2    20    21    1
     3    19    18    1
     4    21    16    1
     5    18    17    1
     6    16    17    1
     7    16     7    1
     8     7     2    1
     9     1     2    2
    10     1     6    2
    11     2     3    2
    12     9     6    1
    13     9    15    1
    14     6     5    2
    15     3     4    2
    16     5     4    2
    17     4     8    1
    18     8    10    1
    19     8    14    1
    20    10    11    1
    21    14    13    1
    22    11    12    1
    23    13    12    1
