@<TRIPOS>MOLECULE
3kwa_SPM_A_1.pdb
 14 13 0 0 0
SMALL
GASTEIGER

@<TRIPOS>ATOM
      1  N1        -6.0090    0.3650   17.8620 N.3   300  SPM300     -0.1313
      2  C2        -5.4920    1.7110   17.8750 C.3   300  SPM300      0.1108
      3  C3        -6.6490    2.6550   17.6320 C.3   300  SPM300      0.0393
      4  C4        -6.4610    3.4630   16.3440 C.3   300  SPM300      0.0902
      5  N5        -5.9940    2.6970   15.2120 N.3   300  SPM300     -0.2180
      6  C6        -4.5760    2.3910   15.1380 C.3   300  SPM300      0.0887
      7  C7        -4.1760    1.5000   13.9810 C.3   300  SPM300      0.0203
      8  C8        -4.6120    2.2790   12.7530 C.3   300  SPM300      0.0203
      9  C9        -5.2030    3.5720   13.2440 C.3   300  SPM300      0.0887
     10  N10       -4.2130    4.3280   13.9730 N.3   300  SPM300     -0.2180
     11  C11       -4.4170    5.6670   14.4380 C.3   300  SPM300      0.0902
     12  C12       -3.2020    6.1340   15.2130 C.3   300  SPM300      0.0393
     13  C13       -1.8940    5.8300   14.4860 C.3   300  SPM300      0.1108
     14  N14       -1.1910    4.7290   15.1110 N.3   300  SPM300     -0.1313
@<TRIPOS>BOND
     1     8     9    1
     2     8     7    1
     3     9    10    1
     4    10    11    1
     5     7     6    1
     6    11    12    1
     7    13    14    1
     8    13    12    1
     9     6     5    1
    10     5     4    1
    11     4     3    1
    12     3     2    1
    13     1     2    1
