@<TRIPOS>MOLECULE
3kwb_ORH_X_1.pdb
 29 31 0 0 0
SMALL
GASTEIGER

@<TRIPOS>ATOM
      1  C1        -8.4810   13.5700   37.0730 C.3   1216  ORH1216     0.0741
      2  F1        -9.4890    2.1950   38.3040 F     1216  ORH1216    -0.1659
      3  N1        -7.1750   13.6770   37.5980 N.3   1216  ORH1216    -0.2726
      4  O1        -7.8260   10.5380   34.4440 O.2   1216  ORH1216    -0.2654
      5  C2        -8.5990   12.0840   36.7660 C.3   1216  ORH1216     0.0420
      6  F2        -9.3770    3.1330   40.1590 F     1216  ORH1216    -0.1659
      7  N2        -9.5870   10.0920   35.9970 N.ar  1216  ORH1216    -0.2463
      8  O2       -11.2300    9.4610   37.4740 O.2   1216  ORH1216    -0.2443
      9  C3        -9.8900   11.5030   36.1700 C.3   1216  ORH1216     0.1151
     10  F3        -7.8840    3.5520   38.6430 F     1216  ORH1216    -0.1659
     11  N3        -9.8650    7.7090   36.6700 N.ar  1216  ORH1216    -0.1800
     12  C4       -10.2880    9.1220   36.7660 C.ar  1216  ORH1216     0.3535
     13  N4        -8.7530    7.3760   35.8440 N.ar  1216  ORH1216    -0.1594
     14  C5        -8.4650    9.6830   35.1470 C.ar  1216  ORH1216     0.2810
     15  C6        -8.0590    8.3310   35.0970 C.ar  1216  ORH1216     0.1541
     16  C7        -9.5590    5.5390   37.7950 C.ar  1216  ORH1216     0.0232
     17  C8       -10.0470    4.3750   38.4440 C.ar  1216  ORH1216     0.0729
     18  C9       -10.4680    6.5730   37.3600 C.ar  1216  ORH1216     0.0873
     19  C10      -11.4590    4.2210   38.6580 C.ar  1216  ORH1216     0.0039
     20  C11      -11.9080    6.4120   37.5780 C.ar  1216  ORH1216     0.0193
     21  C12      -12.3840    5.2270   38.2400 C.ar  1216  ORH1216     0.0015
     22  C13       -9.1620    3.2970   38.8940 C.3   1216  ORH1216     0.4186
     23  C14       -6.8130    7.9150   34.5420 C.3   1216  ORH1216     0.1615
     24  C15       -6.5090   14.9120   37.1660 C.3   1216  ORH1216     0.0721
     25  N15       -6.1250    8.8220   33.7590 N.3   1216  ORH1216    -0.1243
     26  C17       -5.1200   15.0630   37.7450 C.3   1216  ORH1216     0.0174
     27  C18       -7.2110   13.4990   39.0770 C.3   1216  ORH1216     0.0721
     28  C19       -5.2870   14.9490   39.2680 C.3   1216  ORH1216     0.0029
     29  C20       -5.8430   13.5810   39.7010 C.3   1216  ORH1216     0.0174
@<TRIPOS>BOND
     1    25    23    1
     2     4    14    2
     3    23    15    1
     4    15    14   ar
     5    15    13   ar
     6    14     7   ar
     7    13    11   ar
     8     7     9    1
     9     7    12   ar
    10     9     5    1
    11    11    12   ar
    12    11    18    1
    13     5     1    1
    14    12     8    2
    15     1     3    1
    16    24     3    1
    17    24    26    1
    18    18    20   ar
    19    18    16   ar
    20    20    21   ar
    21     3    27    1
    22    26    28    1
    23    16    17   ar
    24    21    19   ar
    25     2    22    1
    26    17    19   ar
    27    17    22    1
    28    10    22    1
    29    22     6    1
    30    27    29    1
    31    28    29    1
