@<TRIPOS>MOLECULE
3kwf_B1Q_A_1.pdb
 27 30 0 0 0
SMALL
GASTEIGER

@<TRIPOS>ATOM
      1  N1        48.7350   51.7550   37.1960 N.am    1  B1Q1       -0.2783
      2  C2        48.2640   51.8230   35.8120 C.3     1  B1Q1        0.1088
      3  N3        48.1470   50.6300   33.7140 N.3     1  B1Q1       -0.2685
      4  C4        46.6950   50.9460   33.5510 C.3     1  B1Q1        0.0814
      5  C5        49.4710   52.7140   37.7600 C.2     1  B1Q1        0.2258
      6  C6        46.3340   51.0010   32.0960 C.ar    1  B1Q1       -0.0084
      7  C7        48.4810   50.4660   35.1410 C.3     1  B1Q1        0.0938
      8  C8        46.2830   52.2260   34.3140 C.3     1  B1Q1        0.0412
      9  C9        46.7800   52.2400   35.7600 C.3     1  B1Q1        0.1129
     10  C10       47.1310   50.3550   31.1400 C.ar    1  B1Q1       -0.0203
     11  C11       45.1740   51.6760   31.6670 C.ar    1  B1Q1        0.0368
     12  C12       44.8200   51.7160   30.3100 C.ar    1  B1Q1        0.1721
     13  C13       48.4090   50.5870   38.0070 C.3     1  B1Q1        0.0967
     14  C14       46.7640   50.3920   29.7960 C.ar    1  B1Q1        0.0356
     15  C15       45.6120   51.0640   29.3700 C.ar    1  B1Q1        0.1721
     16  C16       49.6790   52.3580   39.2140 C.3     1  B1Q1        0.0898
     17  C17       48.5130   49.3980   32.9940 C.3     1  B1Q1        0.0771
     18  C18       48.7340   51.1670   39.3910 C.3     1  B1Q1        0.0643
     19  O19       49.9350   53.7120   37.2250 O.2     1  B1Q1       -0.2749
     20  C20       48.3950   49.6020   31.4910 C.3     1  B1Q1        0.0435
     21  N21       46.5900   53.5710   36.2940 N.3     1  B1Q1       -0.1311
     22  O22       43.6840   52.3590   29.8690 O.3     1  B1Q1       -0.4684
     23  O23       45.2700   51.0880   28.0280 O.3     1  B1Q1       -0.4684
     24  F24       48.2900   49.4930   40.9380 F       1  B1Q1       -0.2343
     25  C25       49.3250   50.1300   40.3040 C.3     1  B1Q1        0.1953
     26  C26       45.6530   50.0350   27.1280 C.3     1  B1Q1        0.2526
     27  C27       43.0620   53.4560   30.5460 C.3     1  B1Q1        0.2526
@<TRIPOS>BOND
     1    26    23    1
     2    23    15    1
     3    15    14   ar
     4    15    12   ar
     5    14    10   ar
     6    22    12    1
     7    22    27    1
     8    12    11   ar
     9    10    20    1
    10    10     6   ar
    11    20    17    1
    12    11     6   ar
    13     6     4    1
    14    17     3    1
    15     4     3    1
    16     4     8    1
    17     3     7    1
    18     8     9    1
    19     7     2    1
    20     9     2    1
    21     9    21    1
    22     2     1    1
    23     1     5   am
    24     1    13    1
    25    19     5    2
    26     5    16    1
    27    13    18    1
    28    16    18    1
    29    18    25    1
    30    25    24    1
