@<TRIPOS>MOLECULE
3kwj_23Q_A_1.pdb
 27 30 0 0 0
SMALL
GASTEIGER

@<TRIPOS>ATOM
      1  N1        47.9100   49.8050   34.0260 N.3     1  23Q1       -0.2696
      2  C4        48.0280   51.1810   36.0810 C.3     1  23Q1        0.0559
      3  C5        46.3240   51.6280   34.3830 C.3     1  23Q1        0.0399
      4  C6        48.3730   49.8610   35.4190 C.3     1  23Q1        0.0781
      5  C7        47.0000   49.4600   31.3990 C.ar    1  23Q1       -0.0203
      6  C8        46.5580   51.5300   35.8780 C.3     1  23Q1        0.0988
      7  C10       48.3150   51.1350   37.5290 C.ar    1  23Q1       -0.0200
      8  C13       45.5290   50.1250   29.5460 C.ar    1  23Q1        0.1721
      9  C15       47.7730   50.1330   38.3450 C.ar    1  23Q1       -0.0057
     10  C22       49.1220   52.1400   38.0730 C.ar    1  23Q1       -0.0042
     11  C24       47.4670   49.0860   40.6180 C.3     1  23Q1        0.2197
     12  C26       45.6070   49.1350   27.2370 C.3     1  23Q1        0.2526
     13  F21       48.4830   48.3120   41.1440 F       1  23Q1       -0.2291
     14  C18       48.0430   50.1450   39.7080 C.ar    1  23Q1        0.0126
     15  C25       48.8520   51.1410   40.2450 C.ar    1  23Q1       -0.0016
     16  C23       49.3890   52.1410   39.4370 C.ar    1  23Q1       -0.0006
     17  N17       46.2630   52.8290   36.4500 N.3     1  23Q1       -0.1325
     18  C2        46.5410   50.2560   33.7260 C.3     1  23Q1        0.0814
     19  C3        46.3770   50.3840   32.2430 C.ar    1  23Q1       -0.0084
     20  C9        45.3370   51.1760   31.7240 C.ar    1  23Q1        0.0368
     21  C16       48.2110   48.6860   31.8760 C.3     1  23Q1        0.0435
     22  C14       48.1100   48.5010   33.3930 C.3     1  23Q1        0.0770
     23  C12       46.5800   49.3310   30.0640 C.ar    1  23Q1        0.0356
     24  O20       45.0710   50.0220   28.2290 O.3     1  23Q1       -0.4684
     25  C11       44.9080   51.0610   30.3910 C.ar    1  23Q1        0.1721
     26  O19       43.8930   51.8590   29.8850 O.3     1  23Q1       -0.4684
     27  C27       42.7330   52.1990   30.6420 C.3     1  23Q1        0.2526
@<TRIPOS>BOND
     1    12    24    1
     2    24     8    1
     3     8    23   ar
     4     8    25   ar
     5    26    25    1
     6    26    27    1
     7    23     5   ar
     8    25    20   ar
     9     5    21    1
    10     5    19   ar
    11    20    19   ar
    12    21    22    1
    13    19    18    1
    14    22     1    1
    15    18     1    1
    16    18     3    1
    17     1     4    1
    18     3     6    1
    19     4     2    1
    20     6     2    1
    21     6    17    1
    22     2     7    1
    23     7    10   ar
    24     7     9   ar
    25    10    16   ar
    26     9    14   ar
    27    16    15   ar
    28    14    15   ar
    29    14    11    1
    30    11    13    1
