@<TRIPOS>MOLECULE
3kwk_FMN_A_1.pdb
 31 33 0 0 0
SMALL
GASTEIGER

@<TRIPOS>ATOM
      1  N1        25.4820    6.0270   88.0500 N.2   300  FMN300     -0.2890
      2  C2        26.2970    5.8910   86.9640 C.1   300  FMN300      0.3669
      3  O2        26.4570    4.7620   86.4670 O.2   300  FMN300     -0.1744
      4  N3        26.9490    6.9910   86.4300 N.2   300  FMN300     -0.2300
      5  C4        26.8210    8.2580   86.9580 C.1   300  FMN300      0.2513
      6  O4        27.4290    9.2390   86.4280 O.2   300  FMN300     -0.2057
      7  C4A       25.9880    8.3910   88.0720 C.2   300  FMN300      0.2700
      8  N5        25.8240    9.6300   88.6770 N.2   300  FMN300     -0.3878
      9  C5A       24.8690    9.8050   89.6410 C.2   300  FMN300      0.1320
     10  C6        24.6150   11.1000   90.1160 C.2   300  FMN300      0.0250
     11  C7        23.6110   11.2820   91.0550 C.2   300  FMN300     -0.0238
     12  C7M       23.2780   12.6790   91.6070 C.3   300  FMN300      0.0308
     13  C8        22.8670   10.2210   91.5340 C.2   300  FMN300     -0.0280
     14  C8M       21.7860   10.4900   92.5510 C.3   300  FMN300      0.0304
     15  C9        23.1340    8.9430   91.0760 C.2   300  FMN300     -0.0041
     16  C9A       24.1370    8.7230   90.1200 C.3   300  FMN300      0.1497
     17  N10       24.4490    7.4410   89.6590 N.pl3 300  FMN300     -0.2691
     18  C10       25.3090    7.2910   88.6090 C.2   300  FMN300      0.2416
     19  C1'       23.7070    6.2680   90.1830 C.3   300  FMN300      0.1294
     20  C2'       24.2320    5.8640   91.5580 C.3   300  FMN300      0.2044
     21  O2'       25.5220    5.2530   91.4570 O.3   300  FMN300     -0.2185
     22  C3'       23.2260    4.9610   92.3020 C.3   300  FMN300      0.2164
     23  O3'       22.0210    5.6770   92.5710 O.3   300  FMN300     -0.2175
     24  C4'       23.7850    4.4420   93.6570 C.3   300  FMN300      0.2147
     25  O4'       24.8780    3.5490   93.4000 O.3   300  FMN300     -0.2176
     26  C5'       22.7240    3.7520   94.5180 C.3   300  FMN300      0.1892
     27  O5'       22.2630    2.6410   93.7550 O.3   300  FMN300     -0.2674
     28  P         20.6870    2.4800   93.3680 P.3   300  FMN300      0.5327
     29  O1P       20.3080    3.6390   92.4270 O.2   300  FMN300     -0.2224
     30  O2P       20.7280    1.1090   92.6590 O.3   300  FMN300     -0.1145
     31  O3P       19.8420    2.4880   94.6260 O.3   300  FMN300     -0.1145
@<TRIPOS>BOND
     1     6     5    2
     2     4     5    2
     3     4     2    2
     4     3     2    2
     5     5     7    1
     6     2     1    2
     7     1    18    2
     8     7    18    1
     9     7     8    2
    10    18    17    1
    11     8     9    2
    12     9    10    1
    13     9    16    1
    14    17    16    1
    15    17    19    1
    16    10    11    2
    17    16    15    1
    18    19    20    1
    19    11    13    1
    20    11    12    1
    21    15    13    2
    22    21    20    1
    23    13    14    1
    24    20    22    1
    25    22    23    1
    26    22    24    1
    27    29    28    2
    28    30    28    1
    29    28    27    1
    30    28    31    1
    31    25    24    1
    32    24    26    1
    33    27    26    1
