@<TRIPOS>MOLECULE
3kwn_23Z_A_1.pdb
 45 49 0 0 0
SMALL
GASTEIGER

@<TRIPOS>ATOM
      1  C1         8.6150   -6.6000   12.0190 C.2   901  23Z901      0.2264
      2  O2         8.8840   -6.6780   10.8260 O.2   901  23Z901     -0.2748
      3  N3         8.2000   -5.4550   12.5800 N.am  901  23Z901     -0.2749
      4  C4         8.0270   -5.2380   14.0230 C.3   901  23Z901      0.1000
      5  C5         6.5280   -5.2800   14.3560 C.3   901  23Z901      0.0667
      6  C6         5.7850   -4.4230   13.3500 C.ar  901  23Z901      0.0565
      7  C7         6.4090   -3.9680   12.1040 C.ar  901  23Z901      0.0303
      8  C8         7.8290   -4.3110   11.7420 C.3   901  23Z901      0.1228
      9  C9         5.3780   -3.1570   11.4020 C.ar  901  23Z901      0.0996
     10  N10        4.2640   -3.1500   12.1810 N.ar  901  23Z901     -0.1698
     11  N11        4.5330   -3.9310   13.3220 N.ar  901  23Z901     -0.2525
     12  C12        3.4170   -3.9560   14.2550 C.3   901  23Z901      0.1612
     13  C13        3.5120   -2.5620   14.8990 C.3   901  23Z901      0.1921
     14  O14        4.5120   -2.6050   15.9280 O.3   901  23Z901     -0.2195
     15  C15        2.1480   -2.0820   15.3850 C.3   901  23Z901      0.1075
     16  N16        2.3000   -0.8220   16.1140 N.3   901  23Z901     -0.2705
     17  C17        2.3300   -0.8640   17.5730 C.3   901  23Z901      0.0722
     18  C18        1.3870    0.2090   18.1070 C.3   901  23Z901      0.0198
     19  C19        1.5490    1.6080   17.4740 C.3   901  23Z901      0.0308
     20  C20        2.6490    1.5730   16.4120 C.3   901  23Z901      0.0198
     21  C21        2.4050    0.4460   15.3980 C.3   901  23Z901      0.0722
     22  C22        1.6960    2.7460   18.5180 C.3   901  23Z901      0.1268
     23  C23        5.5660   -2.4790   10.0910 C.ar  901  23Z901      0.0196
     24  C24        4.5820   -2.5630    9.1080 C.ar  901  23Z901      0.0015
     25  C25        4.7570   -1.9450    7.8830 C.ar  901  23Z901      0.0044
     26  C26        5.9060   -1.2130    7.6140 C.ar  901  23Z901      0.0771
     27  C27        6.9650   -1.1210    8.6560 C.ar  901  23Z901      0.0296
     28  C28        6.7360   -1.7560    9.8740 C.ar  901  23Z901      0.0077
     29  S29        8.4140   -0.2390    8.4470 S.3   901  23Z901     -0.1037
     30  C30        8.2480    0.9470    9.7320 C.3   901  23Z901      0.1503
     31  C31        9.4540    1.8280    9.9670 C.2   901  23Z901      0.2526
     32  O32       10.4140    1.8130    9.1930 O.2   901  23Z901     -0.2706
     33  N33        9.3720    2.6270   11.0430 N.ar  901  23Z901     -0.2745
     34  C34        8.3410    2.4900   12.0740 C.ar  901  23Z901      0.0827
     35  C35        8.4940    3.7150   12.9590 C.ar  901  23Z901      0.0206
     36  C36        9.6580    4.5220   12.4240 C.ar  901  23Z901      0.0206
     37  C37       10.2990    3.7280   11.2830 C.ar  901  23Z901      0.0827
     38  C38        6.0780   -0.5660    6.2660 C.3   901  23Z901      0.4190
     39  F39        7.1970   -1.0070    5.7370 F     901  23Z901     -0.1658
     40  F40        5.0720   -0.8970    5.4990 F     901  23Z901     -0.1658
     41  F41        6.1450    0.7320    6.3390 F     901  23Z901     -0.1658
     42  O42        1.5490    4.0270   17.8820 O.3   901  23Z901     -0.2257
     43  C43        8.7060   -7.8210   12.8940 C.3   901  23Z901      0.0948
     44  C44        3.0600    2.8100   19.2040 C.3   901  23Z901      0.0329
     45  C45        0.5700    2.6560   19.5570 C.3   901  23Z901      0.0329
@<TRIPOS>BOND
     1    40    38    1
     2    39    38    1
     3    38    41    1
     4    38    26    1
     5    26    25   ar
     6    26    27   ar
     7    25    24   ar
     8    29    27    1
     9    29    30    1
    10    27    28   ar
    11    24    23   ar
    12    32    31    2
    13    30    31    1
    14    28    23   ar
    15    31    33   am
    16    23     9    1
    17     2     1    2
    18    33    37   ar
    19    33    34   ar
    20    37    36   ar
    21     9     7   ar
    22     9    10   ar
    23     8     7    1
    24     8     3    1
    25     1     3   am
    26     1    43    1
    27    34    35   ar
    28     7     6   ar
    29    10    11   ar
    30    36    35   ar
    31     3     4    1
    32    11     6   ar
    33    11    12    1
    34     6     5    1
    35     4     5    1
    36    12    13    1
    37    13    15    1
    38    13    14    1
    39    15    16    1
    40    21    16    1
    41    21    20    1
    42    16    17    1
    43    20    19    1
    44    19    18    1
    45    19    22    1
    46    17    18    1
    47    42    22    1
    48    22    44    1
    49    22    45    1
