@<TRIPOS>MOLECULE
3kwy_T9T_A_1.pdb
 19 21 0 0 0
SMALL
GASTEIGER

@<TRIPOS>ATOM
      1  C1        -1.7110  -17.3010   30.1950 C.ar    1  T9T1        0.0000
      2  C2        -2.0170  -18.6150   29.8200 C.ar    1  T9T1        0.0000
      3  C3        -2.1090  -16.2580   29.3580 C.ar    1  T9T1        0.0000
      4  C4        -2.7020  -18.8620   28.6160 C.ar    1  T9T1        0.0000
      5  C5        -2.8010  -16.5040   28.1640 C.ar    1  T9T1        0.0000
      6  C6        -3.0980  -17.8100   27.7890 C.ar    1  T9T1        0.0000
      7 SN7        -0.6960  -16.9190   31.9620 Sn      1  T9T1        0.0000
      8  C8        -1.9380  -16.8750   33.6120 C.ar    1  T9T1        0.0000
      9  C9        -3.8430  -17.7630   34.8270 C.ar    1  T9T1        0.0000
     10  C10       -3.6460  -16.8260   35.8380 C.ar    1  T9T1        0.0000
     11  C11       -2.9930  -17.7840   33.7120 C.ar    1  T9T1        0.0000
     12  C12       -2.5980  -15.9200   35.7470 C.ar    1  T9T1        0.0000
     13  C13       -1.7530  -15.9450   34.6320 C.ar    1  T9T1        0.0000
     14  C14        0.6260  -18.4670   32.3460 C.ar    1  T9T1        0.0000
     15  C15        2.1180  -20.2100   31.5550 C.ar    1  T9T1        0.0000
     16  C16        1.2400  -19.1470   31.3000 C.ar    1  T9T1        0.0000
     17  C17        2.4060  -20.5790   32.8750 C.ar    1  T9T1        0.0000
     18  C18        1.7960  -19.8840   33.9270 C.ar    1  T9T1        0.0000
     19  C19        0.9090  -18.8340   33.6620 C.ar    1  T9T1        0.0000
@<TRIPOS>BOND
     1     6     5   ar
     2     6     4   ar
     3     5     3   ar
     4     4     2   ar
     5     3     1   ar
     6     2     1   ar
     7     1     7    1
     8    16    15   ar
     9    16    14   ar
    10    15    17   ar
    11     7    14    1
    12     7     8    1
    13    14    19   ar
    14    17    18   ar
    15     8    11   ar
    16     8    13   ar
    17    19    18   ar
    18    11     9   ar
    19    13    12   ar
    20     9    10   ar
    21    12    10   ar
