@<TRIPOS>MOLECULE
3kwz_KWZ_A_1.pdb
 27 29 0 0 0
SMALL
GASTEIGER

@<TRIPOS>ATOM
      1  N1        11.8050  -17.3100    4.1940 N.2   222  KWZ222     -0.3426
      2  C2        13.0920  -17.0520    3.9760 C.2   222  KWZ222      0.1281
      3  C3        13.4210  -16.2530    2.8600 C.3   222  KWZ222      0.1151
      4  C4        12.4200  -15.6800    2.0740 C.2   222  KWZ222      0.1063
      5  N5        11.1460  -15.9490    2.3690 N.2   222  KWZ222     -0.3470
      6  C6        10.8630  -16.7760    3.3910 C.1   222  KWZ222      0.1596
      7  C7        14.0860  -17.7270    4.8840 C.ar  222  KWZ222      0.0267
      8  C8        12.7380  -14.8060    0.8850 C.3   222  KWZ222      0.0576
      9  C9        12.0650  -15.3110   -0.3800 C.3   222  KWZ222      0.0285
     10  C10       12.5550  -16.7220   -0.7410 C.3   222  KWZ222      0.0912
     11  N11       12.2080  -17.2780   -2.0870 N.pl3 222  KWZ222     -0.3068
     12  C12       13.6090  -18.3790    6.0290 C.ar  222  KWZ222      0.0061
     13  C13       14.4510  -19.0680    6.8980 C.ar  222  KWZ222      0.0715
     14  C14       15.8160  -19.1120    6.6080 C.ar  222  KWZ222      0.0039
     15  C15       16.2920  -18.4690    5.4690 C.ar  222  KWZ222      0.0000
     16  C16       15.4480  -17.7760    4.6040 C.ar  222  KWZ222      0.0022
     17  C17       13.9100  -19.7470    8.1230 C.3   222  KWZ222      0.4186
     18  F18       12.9280  -20.5900    7.8270 F     222  KWZ222     -0.1659
     19  F19       14.8890  -20.4280    8.6380 F     222  KWZ222     -0.1659
     20  F20       13.5040  -18.9290    9.0830 F     222  KWZ222     -0.1659
     21  C21       11.0780  -16.5910   -2.7670 C.2   222  KWZ222      0.0567
     22  C22       10.4010  -17.3000   -3.9540 C.2   222  KWZ222     -0.0103
     23  C23       10.7830  -18.7600   -4.1890 C.3   222  KWZ222      0.0291
     24  C24       11.8590  -19.3940   -3.2970 C.3   222  KWZ222      0.0261
     25  C25       12.0810  -18.7330   -1.9510 C.3   222  KWZ222      0.0911
     26  C26        9.4370  -17.0100    3.6530 C.2   222  KWZ222      0.2183
     27  N27        8.6300  -16.3660    2.9270 N.2   222  KWZ222     -0.1325
@<TRIPOS>BOND
     1    23    22    1
     2    23    24    1
     3    22    21    2
     4    24    25    1
     5    21    11    1
     6    11    25    1
     7    11    10    1
     8    10     9    1
     9     9     8    1
    10     8     4    1
    11     4     5    2
    12     4     3    1
    13     5     6    2
    14     3     2    1
    15    27    26    2
    16     6    26    1
    17     6     1    2
    18     2     1    2
    19     2     7    1
    20    16     7   ar
    21    16    15   ar
    22     7    12   ar
    23    15    14   ar
    24    12    13   ar
    25    14    13   ar
    26    13    17    1
    27    18    17    1
    28    17    19    1
    29    17    20    1
