@<TRIPOS>MOLECULE
3kx1_KX1_A_1.pdb
 24 26 0 0 0
SMALL
GASTEIGER

@<TRIPOS>ATOM
      1  N1       -16.9260   12.0360   -4.1590 N.2   216  KX1216     -0.3470
      2  C2       -16.8330   13.3810   -4.1810 C.2   216  KX1216      0.1058
      3  C3       -16.1480   14.0510   -3.1420 C.3   216  KX1216      0.1106
      4  C4       -15.6040   13.2800   -2.1000 C.2   216  KX1216      0.1059
      5  N5       -15.6960   11.9390   -2.1110 N.2   216  KX1216     -0.3470
      6  C6       -16.3520   11.3800   -3.1390 C.1   216  KX1216      0.1593
      7  C7       -14.8070   13.8190   -0.9160 C.3   216  KX1216      0.0572
      8  C8       -15.6030   14.5560    0.1760 C.3   216  KX1216      0.0244
      9  C9       -15.2720   14.0560    1.5930 C.3   216  KX1216      0.0725
     10  C10      -17.5540   13.9210   -5.4470 C.3   216  KX1216      0.0539
     11  C11      -19.0410   14.2250   -5.1970 C.3   216  KX1216      0.0324
     12  C12      -20.0310   13.9550   -6.3310 C.2   216  KX1216     -0.0303
     13  C13      -16.9350   15.1360   -6.1150 C.3   216  KX1216      0.0074
     14  C14      -20.0260   14.8590   -7.5680 C.2   216  KX1216     -0.0307
     15  C15      -17.4990   15.2980   -7.5260 C.3   216  KX1216      0.0051
     16  C16      -18.9050   15.8820   -7.6390 C.3   216  KX1216      0.0257
     17  C17      -16.5590    9.9250   -3.2250 C.2   216  KX1216      0.2183
     18  N18      -16.2690   14.5740    2.6480 N.3   216  KX1216     -0.2727
     19  N19      -16.3120    9.0120   -2.3410 N.2   216  KX1216     -0.1325
     20  C20      -15.5600   14.8270    3.9770 C.3   216  KX1216      0.0721
     21  C21      -16.5410   15.3120    5.0450 C.3   216  KX1216      0.0174
     22  C22      -17.7030   14.3330    5.2480 C.3   216  KX1216      0.0029
     23  C23      -18.4220   14.1000    3.9220 C.3   216  KX1216      0.0174
     24  C24      -17.4670   13.6420    2.8200 C.3   216  KX1216      0.0721
@<TRIPOS>BOND
     1    16    14    1
     2    16    15    1
     3    14    12    2
     4    15    13    1
     5    12    11    1
     6    13    10    1
     7    10    11    1
     8    10     2    1
     9     2     1    2
    10     2     3    1
    11     1     6    2
    12    17     6    1
    13    17    19    2
    14     3     4    1
    15     6     5    2
    16     5     4    2
    17     4     7    1
    18     7     8    1
    19     8     9    1
    20     9    18    1
    21    18    24    1
    22    18    20    1
    23    24    23    1
    24    23    22    1
    25    20    21    1
    26    21    22    1
