@<TRIPOS>MOLECULE
3kx2_ADP_A_1.pdb
 27 29 0 0 0
SMALL
GASTEIGER

@<TRIPOS>ATOM
      1  PB        32.2910    0.9400   15.3540 P.3   1000  ADP1000     0.5373
      2  O1B       32.5940    0.6240   13.9800 O.2   1000  ADP1000    -0.2221
      3  O2B       32.6750   -0.1940   16.3990 O.3   1000  ADP1000    -0.1143
      4  O3B       32.9220    2.3180   15.7690 O.3   1000  ADP1000    -0.1143
      5  PA        29.4570    0.5020   14.6680 P.3   1000  ADP1000     0.2231
      6  O1A       29.6790   -0.8390   14.1600 O.3   1000  ADP1000    -0.4370
      7  O2A       29.2240    1.6180   13.5700 O.2   1000  ADP1000    -0.5169
      8  O3A       30.7090    1.1830   15.3960 O.3   1000  ADP1000    -0.2261
      9  O5'       28.2220    0.6680   15.6630 O.3   1000  ADP1000    -0.3111
     10  C5'       27.0250   -0.0330   15.3520 C.3   1000  ADP1000     0.1813
     11  C4'       26.1150    0.5730   16.4060 C.3   1000  ADP1000     0.1821
     12  O4'       24.7650    0.5870   15.9070 O.3   1000  ADP1000    -0.3135
     13  C3'       26.1410   -0.1620   17.7580 C.3   1000  ADP1000     0.2184
     14  O3'       26.4710    0.7630   18.7760 O.3   1000  ADP1000    -0.2174
     15  C2'       24.6750   -0.5800   17.9790 C.3   1000  ADP1000     0.2570
     16  O2'       24.1640    0.2790   18.9800 O.3   1000  ADP1000    -0.2130
     17  C1'       23.9180   -0.3640   16.6250 C.3   1000  ADP1000     0.3186
     18  N9        23.5550   -1.5940   15.9150 N.pl3 1000  ADP1000    -0.1439
     19  C8        22.2700   -2.2180   15.8640 C.3   1000  ADP1000     0.3377
     20  N7        22.1590   -3.2570   15.0190 N.2   1000  ADP1000    -0.2095
     21  C5        23.4320   -3.3860   14.4450 C.2   1000  ADP1000     0.2526
     22  C6        23.9610   -4.3010   13.4750 C.2   1000  ADP1000     0.4393
     23  N6        23.1750   -5.2270   12.8370 N.pl3 1000  ADP1000     0.2180
     24  N1        25.2730   -4.1580   13.1090 N.2   1000  ADP1000     0.0021
     25  C2        25.9800   -3.1600   13.6980 C.3   1000  ADP1000     0.5254
     26  N3        25.6190   -2.2360   14.6240 N.2   1000  ADP1000    -0.0055
     27  C4        24.3220   -2.3460   14.9900 C.2   1000  ADP1000     0.3518
@<TRIPOS>BOND
     1    23    22    1
     2    24    22    2
     3    24    25    1
     4    22    21    1
     5     7     5    2
     6    25    26    1
     7     2     1    2
     8     6     5    1
     9    21    27    1
    10    21    20    2
    11    26    27    2
    12     5     8    1
    13     5     9    1
    14    27    18    1
    15    20    19    1
    16    10     9    1
    17    10    11    1
    18     1     8    1
    19     1     4    1
    20     1     3    1
    21    19    18    1
    22    12    11    1
    23    12    17    1
    24    18    17    1
    25    11    13    1
    26    17    15    1
    27    13    15    1
    28    13    14    1
    29    15    16    1
