@<TRIPOS>MOLECULE
3kx3_HEM_A_1.pdb
 43 50 0 0 0
SMALL
GASTEIGER

@<TRIPOS>ATOM
      1  CHA       22.6970    3.2460   11.9470 C.2   471  HEM471      0.0000
      2  CHB       17.8920    2.9670   11.7720 C.2   471  HEM471      0.0000
      3  CHC       18.1910   -1.3070    9.4320 C.2   471  HEM471      0.0000
      4  CHD       23.0150   -1.4120   10.3610 C.2   471  HEM471      0.0000
      5  C1A       21.3520    3.5690   12.0620 C.2   471  HEM471      0.0000
      6  C2A       20.8240    4.7440   12.6760 C.2   471  HEM471      0.0000
      7  C3A       19.4780    4.6570   12.6080 C.2   471  HEM471      0.0000
      8  C4A       19.1560    3.3800   11.9780 C.2   471  HEM471      0.0000
      9  CMA       18.4250    5.6790   13.1560 C.3   471  HEM471      0.0000
     10  CAA       21.6010    5.9710   13.2190 C.3   471  HEM471      0.0000
     11  CBA       21.8690    5.6690   14.7170 C.3   471  HEM471      0.0000
     12  CGA       22.5400    6.8590   15.4480 C.2   471  HEM471      0.0000
     13  O1A       22.8490    6.6880   16.6710 O.co2 471  HEM471      0.0000
     14  O2A       22.7190    7.9950   14.8300 O.co2 471  HEM471      0.0000
     15  C1B       17.5700    1.7790   11.1150 C.ar  471  HEM471      0.0000
     16  C2B       16.2510    1.3500   10.7540 C.ar  471  HEM471      0.0000
     17  C3B       16.3330    0.1910   10.0850 C.ar  471  HEM471      0.0000
     18  C4B       17.7390   -0.2050   10.0750 C.ar  471  HEM471      0.0000
     19  CMB       14.9520    2.1400   11.0490 C.3   471  HEM471      0.0000
     20  CAB       15.2450   -0.7500    9.5350 C.2   471  HEM471      0.0000
     21  CBB       14.0790   -0.2940    9.0890 C.2   471  HEM471      0.0000
     22  C1C       19.5390   -1.6640    9.4160 C.2   471  HEM471      0.0000
     23  C2C       20.0690   -2.8770    8.7840 C.2   471  HEM471      0.0000
     24  C3C       21.3990   -2.8850    9.0720 C.2   471  HEM471      0.0000
     25  C4C       21.7400   -1.7370    9.9150 C.2   471  HEM471      0.0000
     26  CMC       19.2560   -3.9000    7.9410 C.3   471  HEM471      0.0000
     27  CAC       22.4460   -3.9060    8.6600 C.2   471  HEM471      0.0000
     28  CBC       22.3490   -4.8080    7.6550 C.2   471  HEM471      0.0000
     29  C1D       23.2880   -0.1390   10.8720 C.ar  471  HEM471      0.0000
     30  C2D       24.6520    0.2780   11.2450 C.ar  471  HEM471      0.0000
     31  C3D       24.5730    1.6390   11.7120 C.ar  471  HEM471      0.0000
     32  C4D       23.1290    2.0290   11.6240 C.ar  471  HEM471      0.0000
     33  CMD       25.9310   -0.6470   11.1830 C.3   471  HEM471      0.0000
     34  CAD       25.7970    2.5130   12.1530 C.3   471  HEM471      0.0000
     35  CBD       26.2260    3.1700   10.8060 C.3   471  HEM471      0.0000
     36  CGD       27.4720    4.0670   11.0670 C.2   471  HEM471      0.0000
     37  O1D       27.4530    4.9120   11.9710 O.co2 471  HEM471      0.0000
     38  O2D       28.4760    3.8690   10.3570 O.co2 471  HEM471      0.0000
     39  NA        20.3080    2.7110   11.7000 N.2   471  HEM471      0.0000
     40  NB        18.3920    0.8220   10.6880 N.ar  471  HEM471      0.0000
     41  NC        20.5990   -1.0040   10.0770 N.2   471  HEM471      0.0000
     42  ND        22.4690    0.9470   11.1660 N.ar  471  HEM471      0.0000
     43 FE         20.4540    0.9640   10.6840 Fe    471  HEM471      0.0000
@<TRIPOS>BOND
     1    28    27    2
     2    26    23    1
     3    27    24    1
     4    23    24    2
     5    23    22    1
     6    24    25    1
     7    21    20    2
     8    22     3    2
     9    22    41    1
    10     3    18    1
    11    20    17    1
    12    25    41    2
    13    25     4    1
    14    18    17   ar
    15    18    40   ar
    16    41    43    1
    17    17    16   ar
    18    38    36   ar
    19     4    29    2
    20    43    40    1
    21    43    42    1
    22    43    39    1
    23    40    15   ar
    24    16    19    1
    25    16    15   ar
    26    35    36    1
    27    35    34    1
    28    29    42   ar
    29    29    30   ar
    30    36    37   ar
    31    15     2    1
    32    42    32   ar
    33    33    30    1
    34    30    31   ar
    35    32    31   ar
    36    32     1    2
    37    39     8    1
    38    39     5    2
    39    31    34    1
    40     2     8    2
    41     1     5    1
    42     8     7    1
    43     5     6    1
    44     7     6    2
    45     7     9    1
    46     6    10    1
    47    10    11    1
    48    11    12    1
    49    14    12   ar
    50    12    13   ar
