@<TRIPOS>MOLECULE
3kx3_140_A_1.pdb
 22 21 0 0 0
SMALL
GASTEIGER

@<TRIPOS>ATOM
      1  C1        19.5030    8.1880   26.7110 C.2   1470  1401470     0.3865
      2  O1        19.6140    7.2270   26.0590 O.co2 1470  1401470    -0.2437
      3  O2        20.5420    8.7220   27.1800 O.co2 1470  1401470    -0.2437
      4  C2        18.0910    8.6710   26.9900 C.3   1470  1401470     0.2284
      5  N         17.1360    7.6170   26.6590 N.am  1470  1401470    -0.1932
      6  C3        16.1620    7.7190   25.7690 C.2   1470  1401470     0.2419
      7  O3        16.0010    8.7720   25.1550 O.2   1470  1401470    -0.2733
      8  C4        15.2440    6.5150   25.5730 C.3   1470  1401470     0.0868
      9  C5        15.8950    5.4920   24.6550 C.3   1470  1401470     0.0096
     10  C6        16.0240    6.0070   23.2190 C.3   1470  1401470     0.0005
     11  C7        16.5420    4.8520   22.3720 C.3   1470  1401470     0.0000
     12  C8        17.0410    5.2720   21.0100 C.3   1470  1401470     0.0000
     13  C9        17.1270    4.1040   20.0290 C.3   1470  1401470     0.0000
     14  C10       18.5520    3.6310   19.9130 C.3   1470  1401470     0.0000
     15  C11       18.5950    2.5090   18.8960 C.3   1470  1401470     0.0000
     16  C12       19.0840    1.2550   19.5840 C.3   1470  1401470     0.0000
     17  C13       20.0850    0.5210   18.7200 C.3   1470  1401470     0.0000
     18  C14       19.8570   -0.9660   18.7250 C.3   1470  1401470     0.0000
     19  C15       20.9850   -1.5710   17.8600 C.3   1470  1401470     0.0000
     20  C16       22.3450   -1.5390   18.5140 C.3   1470  1401470     0.0000
     21  C17       23.4120   -2.2090   17.6640 C.3   1470  1401470     0.0000
     22  C18       24.5710   -2.6640   18.4860 C.3   1470  1401470     0.0000
@<TRIPOS>BOND
     1    21    22    1
     2    21    20    1
     3    19    20    1
     4    19    18    1
     5    17    18    1
     6    17    16    1
     7    15    16    1
     8    15    14    1
     9    14    13    1
    10    13    12    1
    11    12    11    1
    12    11    10    1
    13    10     9    1
    14     9     8    1
    15     7     6    2
    16     8     6    1
    17     6     5   am
    18     2     1   ar
    19     5     4    1
    20     1     4    1
    21     1     3   ar
