@<TRIPOS>MOLECULE
3kx4_HEM_A_1.pdb
 43 50 0 0 0
SMALL
GASTEIGER

@<TRIPOS>ATOM
      1  CHA       12.6770    3.7960   30.7700 C.2   999  HEM999      0.0000
      2  CHB       12.2550    3.6790   35.6060 C.2   999  HEM999      0.0000
      3  CHC        9.6460   -0.4250   35.3120 C.2   999  HEM999      0.0000
      4  CHD       10.2710   -0.4730   30.5110 C.2   999  HEM999      0.0000
      5  C1A       12.7650    4.1600   32.1000 C.2   999  HEM999      0.0000
      6  C2A       13.3900    5.3530   32.6460 C.2   999  HEM999      0.0000
      7  C3A       13.2740    5.2900   33.9860 C.2   999  HEM999      0.0000
      8  C4A       12.5650    4.0800   34.3340 C.2   999  HEM999      0.0000
      9  CMA       13.7800    6.3390   34.9830 C.3   999  HEM999      0.0000
     10  CAA       14.1240    6.5230   31.8900 C.3   999  HEM999      0.0000
     11  CBA       15.5410    6.0230   31.5530 C.3   999  HEM999      0.0000
     12  CGA       16.4160    7.0820   30.8930 C.2   999  HEM999      0.0000
     13  O1A       16.0060    8.2630   30.7870 O.co2 999  HEM999      0.0000
     14  O2A       17.5390    6.7280   30.4430 O.co2 999  HEM999      0.0000
     15  C1B       11.4900    2.5730   35.9420 C.ar  999  HEM999      0.0000
     16  C2B       11.0120    2.2560   37.2640 C.ar  999  HEM999      0.0000
     17  C3B       10.2880    1.1270   37.1950 C.ar  999  HEM999      0.0000
     18  C4B       10.2800    0.7040   35.8040 C.ar  999  HEM999      0.0000
     19  CMB       11.3530    3.1640   38.4650 C.3   999  HEM999      0.0000
     20  CAB        9.5550    0.3280   38.2880 C.2   999  HEM999      0.0000
     21  CBB        9.2130    0.8270   39.4830 C.2   999  HEM999      0.0000
     22  C1C        9.5580   -0.8050   34.0020 C.2   999  HEM999      0.0000
     23  C2C        8.8480   -1.9540   33.4670 C.2   999  HEM999      0.0000
     24  C3C        9.0490   -1.9580   32.1330 C.2   999  HEM999      0.0000
     25  C4C        9.8750   -0.8250   31.7900 C.2   999  HEM999      0.0000
     26  CMC        8.0540   -2.9940   34.3160 C.3   999  HEM999      0.0000
     27  CAC        8.5430   -2.9390   31.0460 C.2   999  HEM999      0.0000
     28  CBC        7.5860   -3.8400   31.2910 C.2   999  HEM999      0.0000
     29  C1D       10.9410    0.6750   30.1440 C.ar  999  HEM999      0.0000
     30  C2D       11.2510    1.0490   28.7660 C.ar  999  HEM999      0.0000
     31  C3D       12.0010    2.3590   28.8420 C.ar  999  HEM999      0.0000
     32  C4D       12.0800    2.6720   30.2690 C.ar  999  HEM999      0.0000
     33  CMD       10.9010    0.2800   27.4750 C.3   999  HEM999      0.0000
     34  CAD       12.5260    3.1890   27.6490 C.3   999  HEM999      0.0000
     35  CBD       11.3160    3.9480   27.0690 C.3   999  HEM999      0.0000
     36  CGD       11.7780    4.8930   25.9560 C.2   999  HEM999      0.0000
     37  O1D       11.1130    5.0050   24.9120 O.co2 999  HEM999      0.0000
     38  O2D       12.8380    5.5160   26.0940 O.co2 999  HEM999      0.0000
     39  NA        12.2660    3.3880   33.1550 N.2   999  HEM999      0.0000
     40  NB        11.0580    1.6010   35.0730 N.ar  999  HEM999      0.0000
     41  NC        10.1630   -0.1260   32.9500 N.2   999  HEM999      0.0000
     42  ND        11.4230    1.6640   30.9920 N.ar  999  HEM999      0.0000
     43 FE         11.0790    1.7480   33.0050 Fe    999  HEM999      0.0000
@<TRIPOS>BOND
     1    37    36   ar
     2    36    38   ar
     3    36    35    1
     4    35    34    1
     5    33    30    1
     6    34    31    1
     7    30    31   ar
     8    30    29   ar
     9    31    32   ar
    10    29     4    2
    11    29    42   ar
    12    32     1    2
    13    32    42   ar
    14    14    12   ar
    15     4    25    1
    16     1     5    1
    17    13    12   ar
    18    12    11    1
    19    42    43    1
    20    27    28    2
    21    27    24    1
    22    11    10    1
    23    25    24    1
    24    25    41    2
    25    10     6    1
    26     5     6    1
    27     5    39    2
    28    24    23    2
    29     6     7    2
    30    41    43    1
    31    41    22    1
    32    43    39    1
    33    43    40    1
    34    39     8    1
    35    23    22    1
    36    23    26    1
    37     7     8    1
    38     7     9    1
    39    22     3    2
    40     8     2    2
    41    40    18   ar
    42    40    15   ar
    43     3    18    1
    44     2    15    1
    45    18    17   ar
    46    15    16   ar
    47    17    16   ar
    48    17    20    1
    49    16    19    1
    50    20    21    2
