@<TRIPOS>MOLECULE
3kx5_HEM_A_1.pdb
 43 50 0 0 0
SMALL
GASTEIGER

@<TRIPOS>ATOM
      1  CHA       15.3920    1.7400    1.2020 C.2   472  HEM472      0.0000
      2  CHB       14.8950    1.6490    6.0040 C.2   472  HEM472      0.0000
      3  CHC       12.3130   -2.4690    5.6850 C.2   472  HEM472      0.0000
      4  CHD       13.1420   -2.6200    0.9080 C.2   472  HEM472      0.0000
      5  C1A       15.4760    2.0860    2.5200 C.2   472  HEM472      0.0000
      6  C2A       16.1440    3.2600    3.0380 C.2   472  HEM472      0.0000
      7  C3A       16.0010    3.2270    4.3740 C.2   472  HEM472      0.0000
      8  C4A       15.2470    2.0350    4.7310 C.2   472  HEM472      0.0000
      9  CMA       16.5390    4.2510    5.3870 C.3   472  HEM472      0.0000
     10  CAA       16.8970    4.3370    2.2110 C.3   472  HEM472      0.0000
     11  CBA       18.3570    3.8810    2.0300 C.3   472  HEM472      0.0000
     12  CGA       19.2050    4.9020    1.2970 C.2   472  HEM472      0.0000
     13  O1A       18.7980    6.0840    1.2130 O.co2 472  HEM472      0.0000
     14  O2A       20.2880    4.5200    0.7810 O.co2 472  HEM472      0.0000
     15  C1B       14.1420    0.5420    6.3280 C.ar  472  HEM472      0.0000
     16  C2B       13.6630    0.2160    7.6500 C.ar  472  HEM472      0.0000
     17  C3B       12.9510   -0.9240    7.5670 C.ar  472  HEM472      0.0000
     18  C4B       12.9470   -1.3490    6.1830 C.ar  472  HEM472      0.0000
     19  CMB       13.9580    1.0640    8.9070 C.3   472  HEM472      0.0000
     20  CAB       12.2150   -1.7060    8.6800 C.2   472  HEM472      0.0000
     21  CBB       12.0090   -1.2200    9.9120 C.2   472  HEM472      0.0000
     22  C1C       12.2710   -2.8340    4.3540 C.2   472  HEM472      0.0000
     23  C2C       11.5370   -3.9650    3.8170 C.2   472  HEM472      0.0000
     24  C3C       11.7720   -4.0200    2.5000 C.2   472  HEM472      0.0000
     25  C4C       12.6570   -2.9140    2.1650 C.2   472  HEM472      0.0000
     26  CMC       10.6730   -4.9160    4.6810 C.3   472  HEM472      0.0000
     27  CAC       11.2120   -5.0170    1.4530 C.2   472  HEM472      0.0000
     28  CBC       10.1780   -5.8210    1.7310 C.2   472  HEM472      0.0000
     29  C1D       13.8080   -1.4670    0.5790 C.ar  472  HEM472      0.0000
     30  C2D       14.1760   -1.1140   -0.7740 C.ar  472  HEM472      0.0000
     31  C3D       14.8650    0.2300   -0.6730 C.ar  472  HEM472      0.0000
     32  C4D       14.8530    0.5730    0.7290 C.ar  472  HEM472      0.0000
     33  CMD       13.9420   -1.9070   -2.0760 C.3   472  HEM472      0.0000
     34  CAD       15.4260    1.0590   -1.8530 C.3   472  HEM472      0.0000
     35  CBD       14.2390    1.7800   -2.5090 C.3   472  HEM472      0.0000
     36  CGD       14.7140    2.5940   -3.6920 C.2   472  HEM472      0.0000
     37  O1D       14.0830    2.4950   -4.7790 O.co2 472  HEM472      0.0000
     38  O2D       15.7300    3.3250   -3.5340 O.co2 472  HEM472      0.0000
     39  NA        14.9300    1.3670    3.5690 N.2   472  HEM472      0.0000
     40  NB        13.6940   -0.4430    5.4670 N.ar  472  HEM472      0.0000
     41  NC        12.9570   -2.2170    3.3180 N.2   472  HEM472      0.0000
     42  ND        14.2290   -0.4520    1.4510 N.ar  472  HEM472      0.0000
     43 FE         13.8100   -0.3680    3.4590 Fe    472  HEM472      0.0000
@<TRIPOS>BOND
     1    37    36   ar
     2    36    38   ar
     3    36    35    1
     4    35    34    1
     5    33    30    1
     6    34    31    1
     7    30    31   ar
     8    30    29   ar
     9    31    32   ar
    10    29     4    2
    11    29    42   ar
    12    32     1    2
    13    32    42   ar
    14    14    12   ar
    15     4    25    1
    16     1     5    1
    17    13    12   ar
    18    12    11    1
    19    42    43    1
    20    27    28    2
    21    27    24    1
    22    11    10    1
    23    25    24    1
    24    25    41    2
    25    10     6    1
    26    24    23    2
    27     5     6    1
    28     5    39    2
    29     6     7    2
    30    41    43    1
    31    41    22    1
    32    43    39    1
    33    43    40    1
    34    39     8    1
    35    23    22    1
    36    23    26    1
    37    22     3    2
    38     7     8    1
    39     7     9    1
    40     8     2    2
    41    40    18   ar
    42    40    15   ar
    43     3    18    1
    44     2    15    1
    45    18    17   ar
    46    15    16   ar
    47    17    16   ar
    48    17    20    1
    49    16    19    1
    50    20    21    2
