@<TRIPOS>MOLECULE
3kxg_K6X_A_1.pdb
 14 15 0 0 0
SMALL
GASTEIGER

@<TRIPOS>ATOM
      1  C1        20.9570    8.5850   19.9030 C.2     1  K6X1        0.0442
      2  C2        21.6960    7.5300   20.4190 C.2     1  K6X1        0.0489
      3  C3        22.7110    6.9280   19.6880 C.2     1  K6X1        0.0979
      4  C4        22.9840    7.3990   18.4090 C.3     1  K6X1        0.1276
      5  C5        22.2490    8.4520   17.8860 C.2     1  K6X1        0.0351
      6  C6        21.2390    9.0440   18.6280 C.2     1  K6X1        0.0442
      7 BR13       19.5820    9.3830   20.9260 Br      1  K6X1       -0.0484
      8 BR15       20.2480   10.4790   17.9000 Br      1  K6X1       -0.0483
      9 BR17       22.6280    9.0870   16.1460 Br      1  K6X1       -0.0519
     10 BR19       24.3570    6.6050   17.3820 Br      1  K6X1       -0.0697
     11  N21       23.2630    5.9330   20.4270 N.2     1  K6X1       -0.1506
     12  N23       22.6460    5.8180   21.6940 N.2     1  K6X1       -0.1414
     13  C25       21.7100    6.7750   21.6840 C.2     1  K6X1        0.1385
     14 BR28       20.4760    7.1370   23.2080 Br      1  K6X1       -0.0261
@<TRIPOS>BOND
     1     9     5    1
     2    10     4    1
     3     5     4    1
     4     5     6    2
     5     8     6    1
     6     4     3    1
     7     6     1    1
     8     3     2    1
     9     3    11    2
    10     1     2    2
    11     1     7    1
    12     2    13    1
    13    11    12    1
    14    13    12    2
    15    13    14    1
