@<TRIPOS>MOLECULE
3kxh_K66_A_1.pdb
 20 21 0 0 0
SMALL
GASTEIGER

@<TRIPOS>ATOM
      1  C1        21.9780    7.0870   20.7790 C.3     1  K661        0.1392
      2  C2        23.0160    6.4820   20.0830 C.2     1  K661        0.1409
      3  C3        23.4310    7.0490   18.8840 C.2     1  K661        0.0886
      4  C4        22.8480    8.1920   18.3600 C.2     1  K661        0.0569
      5  C5        21.8140    8.7830   19.0660 C.2     1  K661        0.0455
      6  C6        21.3840    8.2330   20.2670 C.2     1  K661        0.0362
      7 BR13       23.4480    8.9240   16.7240 Br      1  K661       -0.0471
      8 BR15       20.9850   10.3430   18.3940 Br      1  K661       -0.0482
      9 BR17       19.9710    9.0540   21.2160 Br      1  K661       -0.0519
     10 BR19       21.3770    6.3550   22.4150 Br      1  K661       -0.0686
     11  N21       23.7860    5.3890   20.3010 N.2     1  K661       -0.3747
     12  N23       24.4320    6.3420   18.3530 N.pl3   1  K661       -0.2372
     13  C25       24.6090    5.3600   19.2350 C.cat   1  K661        0.2455
     14  N28       25.5590    4.3930   19.0700 N.pl3   1  K661       -0.2679
     15  C30       26.1130    3.7130   20.2300 C.3     1  K661        0.1159
     16  C32       26.0160    4.0430   17.7340 C.3     1  K661        0.1159
     17  C34       25.1570    6.5870   17.1070 C.3     1  K661        0.2134
     18  C36       24.2850    6.2090   15.9340 C.2     1  K661        0.3851
     19  O38       23.1970    5.6360   16.1590 O.co2   1  K661       -0.2437
     20  O40       24.6840    6.4830   14.7820 O.co2   1  K661       -0.2437
@<TRIPOS>BOND
     1    20    18   ar
     2    18    19   ar
     3    18    17    1
     4     7     4    1
     5    17    12    1
     6    16    14    1
     7    12     3    1
     8    12    13    1
     9     4     3    2
    10     4     5    1
    11     8     5    1
    12     3     2    1
    13     5     6    2
    14    14    13    1
    15    14    15    1
    16    13    11    2
    17     2    11    2
    18     2     1    1
    19     6     1    1
    20     6     9    1
    21     1    10    1
