@<TRIPOS>MOLECULE
3kxi_GDP_A_1.pdb
 28 30 0 0 0
SMALL
GASTEIGER

@<TRIPOS>ATOM
      1  PB        13.2280    0.8070   -0.5990 P.3   500  GDP500      0.5373
      2  O1B       13.0350   -0.5820   -1.1580 O.3   500  GDP500     -0.1143
      3  O2B       14.4860    0.8500    0.2320 O.3   500  GDP500     -0.1143
      4  O3B       13.3560    1.8220   -1.7030 O.2   500  GDP500     -0.2221
      5  O3A       11.9700    1.1680    0.3330 O.3   500  GDP500     -0.2261
      6  PA        10.6200    1.8420   -0.2220 P.3   500  GDP500      0.2231
      7  O1A       10.8270    3.2980   -0.5710 O.3   500  GDP500     -0.4370
      8  O2A       10.0930    1.0580   -1.4040 O.2   500  GDP500     -0.5169
      9  O5'        9.6760    1.7020    1.0730 O.3   500  GDP500     -0.3111
     10  C5'        9.4910    0.4040    1.6660 C.3   500  GDP500      0.1813
     11  C4'        8.2120    0.4670    2.4800 C.3   500  GDP500      0.1799
     12  O4'        8.4440    1.1870    3.6930 O.3   500  GDP500     -0.3326
     13  C3'        7.2260    1.2730    1.6600 C.3   500  GDP500      0.2158
     14  O3'        5.9890    0.5640    1.5580 O.3   500  GDP500     -0.2175
     15  C2'        7.0580    2.5830    2.4020 C.3   500  GDP500      0.2310
     16  O2'        5.6940    3.0000    2.3910 O.3   500  GDP500     -0.2158
     17  C1'        7.5410    2.2900    3.8120 C.3   500  GDP500      0.2293
     18  N9         8.2660    3.4660    4.3490 N.pl3 500  GDP500     -0.2354
     19  C8         9.2780    4.1120    3.7360 C.3   500  GDP500      0.2246
     20  N7         9.7320    5.1430    4.4930 N.2   500  GDP500     -0.2322
     21  C5         9.0100    5.1580    5.6290 C.2   500  GDP500      0.2182
     22  C6         8.9770    5.9800    6.8630 C.1   500  GDP500      0.2372
     23  O6         9.7610    6.9430    7.0240 O.2   500  GDP500     -0.2069
     24  N1         8.0710    5.6530    7.7950 N.2   500  GDP500     -0.2485
     25  C2         7.2140    4.6250    7.6470 C.1   500  GDP500      0.2531
     26  N2         6.3290    4.3580    8.6370 N.pl3 500  GDP500     -0.0226
     27  N3         7.1920    3.8350    6.5470 N.2   500  GDP500     -0.3074
     28  C4         8.0480    4.0490    5.5280 C.2   500  GDP500      0.2300
@<TRIPOS>BOND
     1     4     1    2
     2     8     6    2
     3     2     1    1
     4     1     3    1
     5     1     5    1
     6     7     6    1
     7     6     5    1
     8     6     9    1
     9     9    10    1
    10    14    13    1
    11    13    15    1
    12    13    11    1
    13    10    11    1
    14    16    15    1
    15    15    17    1
    16    11    12    1
    17    12    17    1
    18    19    18    1
    19    19    20    1
    20    17    18    1
    21    18    28    1
    22    20    21    2
    23    28    21    1
    24    28    27    2
    25    21    22    1
    26    27    25    2
    27    22    23    2
    28    22    24    2
    29    25    24    2
    30    25    26    1
