@<TRIPOS>MOLECULE
3kxm_K74_A_1.pdb
 20 21 0 0 0
SMALL
GASTEIGER

@<TRIPOS>ATOM
      1  C1        23.0640    7.3130   18.1260 C.2     1  K741        0.0687
      2  C2        22.8500    6.7160   19.3570 C.2     1  K741        0.1537
      3  C3        21.8660    7.1840   20.2290 C.2     1  K741        0.0877
      4  C4        21.0190    8.3480   19.8160 C.2     1  K741        0.0435
      5  C5        21.2630    8.9180   18.5630 C.3     1  K741        0.1156
      6  C6        22.2750    8.3910   17.7450 C.2     1  K741        0.0361
      7  N13       23.4650    5.6770   19.9340 N.2     1  K741       -0.3788
      8  C15       22.8510    5.5600   21.1100 C.2     1  K741        0.2149
      9  N17       21.8670    6.4350   21.3630 N.pl3   1  K741       -0.2535
     10  S20       23.4110    4.2810   22.1340 S.3     1  K741       -0.0569
     11  C22       23.6900    2.8610   21.0930 C.3     1  K741        0.1524
     12  C24       24.9420    2.8000   20.2060 C.2     1  K741        0.2529
     13  N26       25.0660    1.6740   19.4780 N.am    1  K741       -0.2028
     14  O28       25.7700    3.6980   20.1560 O.2     1  K741       -0.2724
     15  C30       26.1620    1.3830   18.5640 C.3     1  K741        0.1385
     16 BR32       24.4230    6.6160   16.9760 Br      1  K741       -0.0461
     17 BR34       22.6390    9.1470   16.0510 Br      1  K741       -0.0519
     18 BR36       20.2290   10.4020   17.9330 Br      1  K741       -0.0709
     19 BR38       19.6640    9.0610   20.9330 Br      1  K741       -0.0511
     20  C40       21.0230    6.5200   22.5890 C.3     1  K741        0.1203
@<TRIPOS>BOND
     1    17     6    1
     2    16     1    1
     3     6     1    2
     4     6     5    1
     5    18     5    1
     6     1     2    1
     7     5     4    1
     8    15    13    1
     9     2     7    2
    10     2     3    1
    11    13    12   am
    12     4     3    2
    13     4    19    1
    14     7     8    2
    15    14    12    2
    16    12    11    1
    17     3     9    1
    18    11    10    1
    19     8     9    1
    20     8    10    1
    21     9    20    1
