@<TRIPOS>MOLECULE
3kxn_K8X_A_1.pdb
 13 14 0 0 0
SMALL
GASTEIGER

@<TRIPOS>ATOM
      1  C1        21.5410    8.2060   19.9850 C.ar    1  K8X1        0.0546
      2  C2        22.4840    7.4410   19.3100 C.ar    1  K8X1        0.1016
      3  C3        23.0670    6.3490   19.9360 C.ar    1  K8X1        0.1016
      4  C4        22.7070    6.0220   21.2380 C.ar    1  K8X1        0.0546
      5  C5        21.7670    6.7870   21.9070 C.ar    1  K8X1        0.0427
      6  C6        21.1850    7.8770   21.2810 C.ar    1  K8X1        0.0427
      7  I13       20.6600    9.8520   19.0430 I       1  K8X1       -0.0405
      8  I15       19.7660    9.0270   22.2970 I       1  K8X1       -0.0416
      9  I17       21.2250    6.2960   23.8640 I       1  K8X1       -0.0416
     10  I19       23.5840    4.3780   22.1850 I       1  K8X1       -0.0405
     11  N21       23.0100    7.5260   18.0710 N.2     1  K8X1       -0.2423
     12  C23       23.8970    6.5160   17.9260 C.3     1  K8X1        0.2508
     13  N25       23.9290    5.7980   19.0710 N.2     1  K8X1       -0.2423
@<TRIPOS>BOND
     1    12    11    1
     2    12    13    1
     3    11     2    2
     4     7     1    1
     5    13     3    2
     6     2     3   ar
     7     2     1   ar
     8     3     4   ar
     9     1     6   ar
    10     4     5   ar
    11     4    10    1
    12     6     5   ar
    13     6     8    1
    14     5     9    1
