@<TRIPOS>MOLECULE
3kxo_GSH_A_1.pdb
 20 19 0 0 0
SMALL
GASTEIGER

@<TRIPOS>ATOM
      1  N1        16.7160   -8.8700   16.6040 N.3   201  GSH201     -0.1208
      2  CA1       17.4950   -7.9290   17.3840 C.3   201  GSH201      0.1948
      3  C1        16.8850   -7.8740   18.7600 C.2   201  GSH201      0.3819
      4  O11       15.8730   -7.1570   18.8980 O.co2 201  GSH201     -0.2441
      5  O12       17.3220   -8.5070   19.7460 O.co2 201  GSH201     -0.2441
      6  CB1       18.9660   -8.3160   17.3010 C.3   201  GSH201      0.0402
      7  CG1       19.8470   -7.6900   18.3740 C.3   201  GSH201      0.0889
      8  CD1       21.0920   -7.0320   17.8150 C.2   201  GSH201      0.2418
      9  OE1       21.5500   -7.2880   16.5060 O.2   201  GSH201     -0.2733
     10  N2        21.6920   -6.1990   18.6540 N.am  201  GSH201     -0.1968
     11  CA2       22.9220   -5.5200   18.3110 C.3   201  GSH201      0.1843
     12  C2        24.1490   -6.3480   18.5890 C.2   201  GSH201      0.2627
     13  O2        24.1940   -7.2560   19.6570 O.2   201  GSH201     -0.2714
     14  CB2       23.0060   -4.2210   19.1040 C.3   201  GSH201      0.0997
     15  SG2       21.6170   -3.1110   18.7650 S.3   201  GSH201     -0.0797
     16  N3        25.1860   -6.1540   17.7740 N.am  201  GSH201     -0.1917
     17  CA3       26.5690   -6.2970   18.2020 C.3   201  GSH201      0.2285
     18  C3        27.3030   -7.3300   17.3750 C.2   201  GSH201      0.3865
     19  O31       28.4780   -7.6530   17.6680 O.co2 201  GSH201     -0.2437
     20  O32       26.7570   -7.8770   16.3870 O.co2 201  GSH201     -0.2437
@<TRIPOS>BOND
     1    20    18   ar
     2     9     8    2
     3     1     2    1
     4     6     2    1
     5     6     7    1
     6    18    19   ar
     7    18    17    1
     8     2     3    1
     9    16    17    1
    10    16    12   am
    11     8     7    1
    12     8    10   am
    13    11    12    1
    14    11    10    1
    15    11    14    1
    16    12    13    2
    17     3     4   ar
    18     3     5   ar
    19    15    14    1
