@<TRIPOS>MOLECULE
3kxo_KXO_A_1.pdb
 27 29 0 0 0
SMALL
GASTEIGER

@<TRIPOS>ATOM
      1  C4        20.7040   -0.0570   16.8340 C.ar  202  KXO202      0.0077
      2  C5        19.3430   -0.2640   16.8040 C.ar  202  KXO202      0.0193
      3  C6        16.2060    1.4840   17.7530 C.ar  202  KXO202      0.0311
      4  C7        20.2580    2.0400   17.8640 C.ar  202  KXO202      0.1034
      5  C8        25.5220   -0.4420   16.5470 C.3   202  KXO202      0.0390
      6  C10       27.0270   -0.4580   16.7560 C.3   202  KXO202      0.0741
      7  C13       17.0720    0.4880   17.3600 C.ar  202  KXO202      0.0199
      8  C15       21.1590    1.1210   17.3810 C.ar  202  KXO202      0.0742
      9  C17       24.8160    0.3780   17.6060 C.3   202  KXO202      0.0984
     10  C1        15.1830   -0.9880   17.1060 C.ar  202  KXO202      0.0024
     11  C2        16.5370   -0.7440   17.0420 C.ar  202  KXO202      0.0016
     12  C3        14.3310    0.0100   17.5100 C.ar  202  KXO202      0.0296
     13  C9        25.1730   -0.1200   18.9880 C.3   202  KXO202      0.0390
     14  C11       26.6700   -0.0590   19.2220 C.3   202  KXO202      0.0741
     15  C12       27.4080   -2.3060   18.4220 C.3   202  KXO202      0.1767
     16  C14       14.8540    1.2400   17.8290 C.ar  202  KXO202      0.1402
     17  C16       18.5020    0.7020   17.3210 C.ar  202  KXO202      0.0814
     18  C18       22.5960    1.4080   17.4450 C.2   202  KXO202      0.2662
     19  C19       28.8550   -2.7400   18.4510 C.3   202  KXO202      0.4121
     20  N20       18.9340    1.8540   17.8540 N.ar  202  KXO202     -0.2437
     21  N21       23.3920    0.2870   17.4130 N.am  202  KXO202     -0.2033
     22  N22       27.3560   -0.8450   18.1610 N.3   202  KXO202     -0.2655
     23  O23       22.9810    2.5660   17.5290 O.2   202  KXO202     -0.2683
     24  F24       14.0300    2.2230   18.2120 F     202  KXO202     -0.2042
     25  F25       29.5860   -1.9420   19.2780 F     202  KXO202     -0.1685
     26  F26       28.9450   -4.0110   18.9240 F     202  KXO202     -0.1685
     27  F27       29.4040   -2.7130   17.2010 F     202  KXO202     -0.1685
@<TRIPOS>BOND
     1     5     6    1
     2     5     9    1
     3     6    22    1
     4     2     1   ar
     5     2    17   ar
     6     1     8   ar
     7    11    10   ar
     8    11     7   ar
     9    10    12   ar
    10    27    19    1
    11    17     7    1
    12    17    20   ar
    13     7     3   ar
    14     8    18    1
    15     8     4   ar
    16    21    18   am
    17    21     9    1
    18    18    23    2
    19    12    16   ar
    20     9    13    1
    21     3    16   ar
    22    16    24    1
    23    20     4   ar
    24    22    15    1
    25    22    14    1
    26    15    19    1
    27    19    26    1
    28    19    25    1
    29    13    14    1
