@<TRIPOS>MOLECULE
3kxw_1ZZ_A_1.pdb
 36 38 0 0 0
SMALL
GASTEIGER

@<TRIPOS>ATOM
      1  P          5.6710   39.2280   20.5360 P.3   589  1ZZ589      0.2160
      2  C1        -8.2700   43.6440   20.9460 C.3   589  1ZZ589      0.0000
      3  N1         4.5130   38.2110   14.2960 N.pl3 589  1ZZ589     -0.1439
      4  O1         2.9960   38.6980   18.7530 O.3   589  1ZZ589     -0.1896
      5  C2        -7.1640   42.7750   20.3330 C.3   589  1ZZ589      0.0000
      6  N2         2.5350   39.2210   14.0370 N.2   589  1ZZ589     -0.2095
      7  O2         4.1470   39.8840   20.4180 O.3   589  1ZZ589     -0.2859
      8  C3        -6.1200   43.6140   19.5850 C.3   589  1ZZ589      0.0003
      9  N3         4.7380   37.2490   11.8670 N.2   589  1ZZ589     -0.0055
     10  O3         6.5860   40.2480   21.0040 O.2   589  1ZZ589     -0.5172
     11  C4        -4.8290   42.8110   19.3670 C.3   589  1ZZ589      0.0047
     12  N4         2.8170   37.8030   10.5210 N.2   589  1ZZ589      0.0021
     13  O4         5.6020   37.9970   21.5780 O.3   589  1ZZ589     -0.4373
     14  C5        -3.9340   43.4040   18.2660 C.3   589  1ZZ589      0.0257
     15  N5         1.0270   39.1290   11.2240 N.pl3 589  1ZZ589      0.2180
     16  O5         6.1750   38.6040   19.0740 O.3   589  1ZZ589     -0.3113
     17  C6        -2.7460   42.4560   18.0500 C.2   589  1ZZ589     -0.0307
     18  O6         5.7380   37.7400   16.4020 O.3   589  1ZZ589     -0.3135
     19  C7        -1.7200   42.6550   16.9070 C.2   589  1ZZ589     -0.0307
     20  O7         7.8210   38.0360   14.3910 O.3   589  1ZZ589     -0.2130
     21  C8        -0.6370   41.5850   16.6660 C.3   589  1ZZ589      0.0257
     22  O8         8.1560   40.0860   15.7400 O.3   589  1ZZ589     -0.2174
     23  C9         0.5300   41.8230   17.6380 C.3   589  1ZZ589      0.0048
     24  C10        1.3050   40.5420   18.0290 C.3   589  1ZZ589      0.0056
     25  C11        2.2540   40.8920   19.2100 C.3   589  1ZZ589      0.0647
     26  C12        3.4650   39.9410   19.1660 C.3   589  1ZZ589      0.2735
     27  C13        6.1680   39.3930   17.9040 C.3   589  1ZZ589      0.1813
     28  C14        6.5980   38.6300   16.8140 C.3   589  1ZZ589      0.1821
     29  C15        6.9680   39.5000   15.5580 C.3   589  1ZZ589      0.2184
     30  C16        6.9110   38.6620   14.5390 C.3   589  1ZZ589      0.2570
     31  C17        5.7310   37.8980   14.8970 C.3   589  1ZZ589      0.3186
     32  C18        3.4580   39.0090   14.8980 C.3   589  1ZZ589      0.3377
     33  C19        2.9380   38.5070   12.7880 C.2   589  1ZZ589      0.2526
     34  C20        4.1120   37.9690   12.9420 C.2   589  1ZZ589      0.3518
     35  C21        4.1130   37.1250   10.7210 C.3   589  1ZZ589      0.5254
     36  C22        2.2710   38.4310   11.4300 C.2   589  1ZZ589      0.4393
@<TRIPOS>BOND
     1    12    35    1
     2    12    36    2
     3    35     9    1
     4    15    36    1
     5    36    33    1
     6     9    34    2
     7    33    34    1
     8    33     6    2
     9    34     3    1
    10     6    32    1
    11     3    31    1
    12     3    32    1
    13    20    30    1
    14    30    31    1
    15    30    29    1
    16    31    18    1
    17    29    22    1
    18    29    28    1
    19    18    28    1
    20    21    19    1
    21    21    23    1
    22    28    27    1
    23    19    17    2
    24    23    24    1
    25    27    16    1
    26    24    25    1
    27    17    14    1
    28    14    11    1
    29     4    26    1
    30    16     1    1
    31    26    25    1
    32    26     7    1
    33    11     8    1
    34     8     5    1
    35     5     2    1
    36     7     1    1
    37     1    10    2
    38     1    13    1
