@<TRIPOS>MOLECULE
3kxz_925_A_1.pdb
 37 41 0 0 0
SMALL
GASTEIGER

@<TRIPOS>ATOM
      1  C1       -13.5280    3.2090   -7.3630 C.3     1  9251        0.0186
      2  N1       -13.2620    1.8400   -9.4030 N.4     1  9251       -0.1383
      3  O1       -14.4060    2.4420   -9.9910 O.3     1  9251       -0.1181
      4  C2       -13.3620    1.7760   -7.9400 C.3     1  9251        0.0744
      5  N2       -10.3100   -0.5100   -7.8000 N.am    1  9251       -0.2033
      6  O2       -11.1590   -1.6510   -6.0920 O.2     1  9251       -0.2684
      7  C3       -12.0170    1.1790   -7.5110 C.3     1  9251        0.0388
      8  N3        -3.5500    1.9990   -8.5650 N.ar    1  9251       -0.2286
      9  O3         2.3270   -2.9120   -5.2890 O.3     1  9251       -0.2865
     10  C4       -11.6370   -0.1200   -8.2120 C.3     1  9251        0.0984
     11  N4        -3.4370    0.3580   -6.8770 N.ar    1  9251       -0.1985
     12  C5       -11.7160    0.0480   -9.7220 C.3     1  9251        0.0388
     13  N5        -4.1860   -0.4990   -6.2470 N.2     1  9251       -0.1667
     14  C6       -13.0930    0.5980  -10.1130 C.3     1  9251        0.0744
     15  N6        -1.6020   -0.2040   -5.6460 N.2     1  9251       -0.2263
     16  C7       -14.1690   -0.4430   -9.8000 C.3     1  9251        0.0186
     17  C8       -13.1680    0.8620  -11.6310 C.3     1  9251        0.0186
     18  C9       -10.1840   -1.3060   -6.7160 C.2     1  9251        0.2647
     19  C10       -8.8210   -1.6550   -6.2860 C.ar    1  9251        0.0551
     20  C11       -8.6130   -2.6880   -5.3840 C.ar    1  9251        0.0046
     21  C12       -7.3530   -3.0130   -4.9390 C.ar    1  9251        0.0002
     22  C13       -6.2900   -2.2640   -5.3960 C.ar    1  9251        0.0012
     23  C14       -6.4800   -1.2180   -6.3000 C.ar    1  9251        0.0158
     24  C15       -7.7550   -0.9240   -6.7270 C.ar    1  9251        0.0058
     25  C16       -5.3740   -0.3990   -6.7820 C.2     1  9251        0.0866
     26  C17       -5.3810    0.5870   -7.7730 C.3     1  9251        0.1132
     27  C18       -4.1270    1.0580   -7.8170 C.ar    1  9251        0.1482
     28  C19       -2.3170    2.1920   -8.3200 C.ar    1  9251        0.1034
     29  C20       -1.4820    1.5030   -7.3380 C.ar    1  9251        0.0595
     30  C21       -2.1090    0.5850   -6.6150 C.ar    1  9251        0.1666
     31  C22       -0.2780   -0.3610   -5.3440 C.ar    1  9251        0.0862
     32  C23        0.4940    0.7010   -4.9260 C.ar    1  9251        0.0194
     33  C24        1.8360    0.5290   -4.6520 C.ar    1  9251        0.0048
     34  C25        2.4430   -0.7000   -4.7770 C.ar    1  9251        0.0421
     35  C26        1.6930   -1.7490   -5.1860 C.ar    1  9251        0.1972
     36  C27        0.3410   -1.5960   -5.4770 C.ar    1  9251        0.0612
     37  C28      -14.4640    0.9360   -7.2840 C.3     1  9251        0.0186
@<TRIPOS>BOND
     1    17    14    1
     2    14    16    1
     3    14    12    1
     4    14     2    1
     5     3     2    1
     6    12    10    1
     7     2     4    1
     8     8    28   ar
     9     8    27   ar
    10    28    29   ar
    11    10     5    1
    12    10     7    1
    13     4     7    1
    14     4     1    1
    15     4    37    1
    16    27    26    1
    17    27    11   ar
    18     5    18   am
    19    26    25    1
    20    29    30   ar
    21    11    30   ar
    22    11    13    1
    23    25    23    1
    24    25    13    2
    25    24    23   ar
    26    24    19   ar
    27    18    19    1
    28    18     6    2
    29    30    15    2
    30    23    22   ar
    31    19    20   ar
    32    15    31    1
    33    36    31   ar
    34    36    35   ar
    35    22    21   ar
    36    20    21   ar
    37    31    32   ar
    38     9    35    1
    39    35    34   ar
    40    32    33   ar
    41    34    33   ar
