@<TRIPOS>MOLECULE
3kyb_FMN_A_1.pdb
 31 33 0 0 0
SMALL
GASTEIGER

@<TRIPOS>ATOM
      1  N1        46.5530   28.7450    0.6550 N.2   392  FMN392     -0.2887
      2  C2        47.1120   28.4570   -0.5740 C.1   392  FMN392      0.3669
      3  O2        47.1420   27.2620   -0.8960 O.2   392  FMN392     -0.1744
      4  N3        47.5920   29.5000   -1.3860 N.2   392  FMN392     -0.2300
      5  C4        47.5300   30.8260   -0.9610 C.1   392  FMN392      0.2513
      6  O4        47.9530   31.7540   -1.6810 O.2   392  FMN392     -0.2057
      7  C4A       46.9640   31.1020    0.2840 C.2   392  FMN392      0.2706
      8  N5        46.8710   32.3940    0.7600 N.2   392  FMN392     -0.3841
      9  C5A       46.2710   32.6250    1.9840 C.2   392  FMN392      0.1452
     10  C6        46.1710   33.9290    2.4740 C.2   392  FMN392      0.0252
     11  C7        45.5660   34.1340    3.7220 C.2   392  FMN392     -0.0375
     12  C7M       45.4640   35.5170    4.2580 C.3   392  FMN392      0.0268
     13  C8        45.0650   33.0640    4.4790 C.3   392  FMN392      0.0417
     14  C8M       44.4530   33.3020    5.8330 C.3   392  FMN392      0.0091
     15  C9        45.1790   31.7580    3.9920 C.2   392  FMN392     -0.0049
     16  C9A       45.7850   31.5600    2.7500 C.2   392  FMN392      0.0795
     17  N10       45.8950   30.2790    2.2640 N.pl3 392  FMN392     -0.2545
     18  C10       46.4650   30.0580    1.0590 C.2   392  FMN392      0.2449
     19  C1'       45.3310   29.1360    3.0410 C.3   392  FMN392      0.1336
     20  C2'       44.2450   28.3220    2.3060 C.3   392  FMN392      0.2048
     21  O2'       43.2630   29.1510    1.6890 O.3   392  FMN392     -0.2185
     22  C3'       43.6760   27.2950    3.3000 C.3   392  FMN392      0.2165
     23  O3'       42.2600   27.1670    3.2630 O.3   392  FMN392     -0.2175
     24  C4'       44.2270   27.5230    4.7330 C.3   392  FMN392      0.2147
     25  O4'       45.6490   27.3400    4.7400 O.3   392  FMN392     -0.2176
     26  C5'       43.6090   26.6160    5.7910 C.3   392  FMN392      0.1892
     27  O5'       43.2380   25.4450    5.1150 O.3   392  FMN392     -0.2674
     28  P         44.3020   24.5100    4.2820 P.3   392  FMN392      0.5327
     29  O1P       44.5720   25.0640    2.8750 O.2   392  FMN392     -0.2224
     30  O2P       43.6520   23.1460    4.1690 O.3   392  FMN392     -0.1145
     31  O3P       45.5960   24.2890    5.0460 O.3   392  FMN392     -0.1145
@<TRIPOS>BOND
     1     6     5    2
     2     4     5    2
     3     4     2    2
     4     5     7    1
     5     3     2    2
     6     2     1    2
     7     7     8    2
     8     7    18    1
     9     1    18    2
    10     8     9    2
    11    18    17    1
    12    21    20    1
    13     9    10    1
    14     9    16    1
    15    17    16    1
    16    17    19    1
    17    20    19    1
    18    20    22    1
    19    10    11    2
    20    16    15    2
    21    29    28    2
    22    23    22    1
    23    22    24    1
    24    11    12    1
    25    11    13    1
    26    15    13    1
    27    30    28    1
    28    28    31    1
    29    28    27    1
    30    13    14    1
    31    24    25    1
    32    24    26    1
    33    27    26    1
