@<TRIPOS>MOLECULE
3kyc_JZU_D_1.pdb
 23 25 0 0 0
SMALL
GASTEIGER

@<TRIPOS>ATOM
      1  S         -4.8330   27.2410   44.2790 S.O2   98  JZU98       0.1465
      2  N1       -12.3590   21.0320   49.4890 N.2    98  JZU98       0.0021
      3  C2       -12.6400   21.9700   48.5740 C.3    98  JZU98       0.5254
      4  N3       -11.7200   22.8450   48.0880 N.2    98  JZU98      -0.0055
      5  C4       -10.4320   22.8090   48.5150 C.2    98  JZU98       0.3518
      6  C5       -10.0490   21.8690   49.4570 C.2    98  JZU98       0.2526
      7  C6       -11.0890   20.9420   49.9710 C.2    98  JZU98       0.4393
      8  N6       -10.7240   20.0610   50.9120 N.pl3  98  JZU98       0.2180
      9  N7        -8.7370   21.9960   49.7250 N.2    98  JZU98      -0.2095
     10  C8        -8.3490   23.0250   48.9540 C.3    98  JZU98       0.3377
     11  N9        -9.3530   23.5080   48.1960 N.pl3  98  JZU98      -0.1439
     12  C1'       -9.2850   24.6540   47.2310 C.3    98  JZU98       0.3186
     13  N18       -3.7590   26.2870   43.8370 N.3    98  JZU98       0.0528
     14  C2'       -8.6640   25.8420   47.9190 C.3    98  JZU98       0.2569
     15  O2'       -9.5270   26.5080   48.8540 O.3    98  JZU98      -0.2130
     16  O2S       -4.3540   27.7660   45.5550 O.2    98  JZU98      -0.1371
     17  C3'       -8.0960   26.7200   46.8120 C.3    98  JZU98       0.2174
     18  O3'       -8.9290   27.7970   46.4050 O.3    98  JZU98      -0.2175
     19  O3S       -5.0290   28.3230   43.2900 O.2    98  JZU98      -0.1371
     20  C4'       -7.9120   25.7380   45.6690 C.3    98  JZU98       0.1716
     21  O4'       -8.4410   24.4490   46.0860 O.3    98  JZU98      -0.3146
     22  C5'       -6.4180   25.6330   45.4520 C.3    98  JZU98       0.1490
     23  N5'       -6.1920   26.5290   44.3620 N.3    98  JZU98      -0.0614
@<TRIPOS>BOND
     1    19     1    2
     2    13     1    1
     3     1    23    1
     4     1    16    2
     5    23    22    1
     6    22    20    1
     7    20    21    1
     8    20    17    1
     9    21    12    1
    10    18    17    1
    11    17    14    1
    12    12    14    1
    13    12    11    1
    14    14    15    1
    15     4     5    2
    16     4     3    1
    17    11     5    1
    18    11    10    1
    19     5     6    1
    20     3     2    1
    21    10     9    1
    22     6     9    2
    23     6     7    1
    24     2     7    2
    25     7     8    1
