@<TRIPOS>MOLECULE
3kyd_VMX_D_1.pdb
 26 28 0 0 0
SMALL
GASTEIGER

@<TRIPOS>ATOM
      1  S         21.7410   25.3030   19.9200 S.O2   97  VMX97       0.0574
      2  N1        21.6750   14.7430   22.5190 N.2    97  VMX97       0.0021
      3  C2        20.8430   15.3480   21.6530 C.3    97  VMX97       0.5254
      4  N3        20.6960   16.6840   21.6090 N.2    97  VMX97      -0.0055
      5  C4        21.3980   17.4830   22.4500 C.2    97  VMX97       0.3518
      6  C5        22.2780   16.9410   23.3710 C.2    97  VMX97       0.2526
      7  C6        22.4120   15.4620   23.3900 C.2    97  VMX97       0.4393
      8  N6        23.2450   14.8480   24.2620 N.pl3  97  VMX97       0.2180
      9  N7        22.8420   17.9540   24.0800 N.2    97  VMX97      -0.2095
     10  C8        22.3420   19.1290   23.6260 C.3    97  VMX97       0.3377
     11  N9        21.4900   18.7870   22.6590 N.pl3  97  VMX97      -0.1439
     12  C1'       20.7650   19.6980   21.9440 C.3    97  VMX97       0.3186
     13  C10       23.3540   27.3100   20.4900 C.3    97  VMX97       0.0476
     14  C11       24.8210   27.5670   20.1550 C.3    97  VMX97       0.1112
     15  N12       25.5610   27.6210   21.4010 N.3    97  VMX97      -0.1313
     16  C1S       23.1320   25.8120   20.6730 C.3    97  VMX97       0.1721
     17  C2'       19.7230   20.3530   22.8100 C.3    97  VMX97       0.2569
     18  O2'       18.5790   19.5040   22.9370 O.3    97  VMX97      -0.2130
     19  O2S       20.5830   25.9060   20.5290 O.2    97  VMX97      -0.1561
     20  C3'       19.3580   21.6700   22.1510 C.3    97  VMX97       0.2174
     21  O3'       18.0560   21.6080   21.5630 O.3    97  VMX97      -0.2175
     22  O3S       21.7940   25.6490   18.5240 O.2    97  VMX97      -0.1561
     23  C4'       20.3890   21.8900   21.0650 C.3    97  VMX97       0.1715
     24  O4'       21.2540   20.7560   21.0680 O.3    97  VMX97      -0.3146
     25  C5'       21.2070   23.1380   21.3380 C.3    97  VMX97       0.1473
     26  N5'       21.6450   23.7130   20.0830 N.3    97  VMX97      -0.0794
@<TRIPOS>BOND
     1    22     1    2
     2     1    26    1
     3     1    19    2
     4     1    16    1
     5    26    25    1
     6    14    13    1
     7    14    15    1
     8    13    16    1
     9    23    24    1
    10    23    25    1
    11    23    20    1
    12    24    12    1
    13    21    20    1
    14     4     3    1
    15     4     5    2
    16     3     2    1
    17    12    11    1
    18    12    17    1
    19    20    17    1
    20     5    11    1
    21     5     6    1
    22     2     7    2
    23    11    10    1
    24    17    18    1
    25     6     7    1
    26     6     9    2
    27     7     8    1
    28    10     9    1
