@<TRIPOS>MOLECULE
3kyf_5GP_A_1.pdb
 23 25 0 0 0
SMALL
GASTEIGER

@<TRIPOS>ATOM
      1  P         -5.1860   10.1580   16.4700 P.3   501  5GP501      0.3942
      2  O1P       -4.6000    9.1780   17.4200 O.3   501  5GP501     -0.1425
      3  O2P       -4.8800    9.8030   15.0590 O.3   501  5GP501     -0.1425
      4  O5'       -4.5800   11.6230   16.6850 O.3   501  5GP501     -0.2926
      5  C5'       -4.4910   12.1740   18.0030 C.3   501  5GP501      0.1830
      6  C4'       -4.0510   13.6380   17.9490 C.3   501  5GP501      0.1800
      7  O4'       -2.7680   13.7940   17.3190 O.3   501  5GP501     -0.3326
      8  C3'       -5.0110   14.4550   17.0850 C.3   501  5GP501      0.2158
      9  O3'       -6.1470   14.7950   17.8860 O.3   501  5GP501     -0.2175
     10  C2'       -4.1310   15.6880   16.8950 C.3   501  5GP501      0.2310
     11  O2'       -4.0450   16.4240   18.1180 O.3   501  5GP501     -0.2158
     12  C1'       -2.7770   15.0390   16.5980 C.3   501  5GP501      0.2293
     13  N9        -2.6600   14.7460   15.1520 N.pl3 501  5GP501     -0.2354
     14  C8        -2.8530   13.5710   14.5580 C.3   501  5GP501      0.2246
     15  N7        -2.6320   13.6930   13.2510 N.2   501  5GP501     -0.2322
     16  C5        -2.2970   14.9570   13.0050 C.2   501  5GP501      0.2182
     17  C6        -1.9540   15.6450   11.8470 C.1   501  5GP501      0.2372
     18  O6        -1.9220   15.0740   10.7570 O.2   501  5GP501     -0.2069
     19  N1        -1.6340   17.0040   11.9440 N.2   501  5GP501     -0.2485
     20  C2        -1.6660   17.6290   13.1980 C.1   501  5GP501      0.2531
     21  N2        -1.3330   18.9120   13.3100 N.pl3 501  5GP501     -0.0226
     22  N3        -2.0040   16.9330   14.2930 N.2   501  5GP501     -0.3074
     23  C4        -2.3140   15.6300   14.2200 C.2   501  5GP501      0.2300
@<TRIPOS>BOND
     1    18    17    2
     2    17    19    2
     3    17    16    1
     4    19    20    2
     5    16    15    2
     6    16    23    1
     7    20    21    1
     8    20    22    2
     9    15    14    1
    10    23    22    2
    11    23    13    1
    12    14    13    1
    13     3     1    1
    14    13    12    1
    15     1     4    1
    16     1     2    1
    17    12    10    1
    18    12     7    1
    19     4     5    1
    20    10     8    1
    21    10    11    1
    22     8     9    1
    23     8     6    1
    24     7     6    1
    25     6     5    1
