@<TRIPOS>MOLECULE
3kyg_5GP_A_1.pdb
 23 25 0 0 0
SMALL
GASTEIGER

@<TRIPOS>ATOM
      1  P          5.4860  -15.3530  -12.7960 P.3   501  5GP501      0.3942
      2  O1P        4.8020  -14.7520  -13.9690 O.3   501  5GP501     -0.1425
      3  O2P        4.7190  -16.4980  -12.2460 O.3   501  5GP501     -0.1425
      4  O5'        5.6240  -14.2990  -11.6020 O.3   501  5GP501     -0.2926
      5  C5'        6.0630  -12.9710  -11.9090 C.3   501  5GP501      0.1830
      6  C4'        6.3100  -12.1800  -10.6240 C.3   501  5GP501      0.1800
      7  O4'        5.1140  -12.0850   -9.8340 O.3   501  5GP501     -0.3326
      8  C3'        7.3070  -12.9260   -9.7390 C.3   501  5GP501      0.2158
      9  O3'        8.6320  -12.6230  -10.1860 O.3   501  5GP501     -0.2175
     10  C2'        7.0270  -12.1900   -8.4300 C.3   501  5GP501      0.2310
     11  O2'        7.5460  -10.8590   -8.4920 O.3   501  5GP501     -0.2158
     12  C1'        5.4980  -12.1380   -8.4500 C.3   501  5GP501      0.2293
     13  N9         4.9130  -13.3710   -7.8840 N.pl3 501  5GP501     -0.2354
     14  C8         4.3970  -14.4020   -8.5520 C.3   501  5GP501      0.2246
     15  N7         3.8980  -15.2800   -7.6840 N.2   501  5GP501     -0.2322
     16  C5         4.0960  -14.8080   -6.4540 C.2   501  5GP501      0.2182
     17  C6         3.7390  -15.2440   -5.1850 C.1   501  5GP501      0.2372
     18  O6         3.1760  -16.3260   -5.0240 O.2   501  5GP501     -0.2069
     19  N1         4.0440  -14.4430   -4.0780 N.2   501  5GP501     -0.2485
     20  C2         4.7140  -13.2280   -4.2760 C.1   501  5GP501      0.2531
     21  N2         5.0440  -12.4640   -3.2380 N.pl3 501  5GP501     -0.0226
     22  N3         5.0460  -12.8400   -5.5140 N.2   501  5GP501     -0.3074
     23  C4         4.7510  -13.5900   -6.5850 C.2   501  5GP501      0.2300
@<TRIPOS>BOND
     1     2     1    1
     2     1     3    1
     3     1     4    1
     4     5     4    1
     5     5     6    1
     6     6     7    1
     7     6     8    1
     8     9     8    1
     9     7    12    1
    10     8    10    1
    11    14    13    1
    12    14    15    1
    13    11    10    1
    14    12    10    1
    15    12    13    1
    16    13    23    1
    17    15    16    2
    18    23    16    1
    19    23    22    2
    20    16    17    1
    21    22    20    2
    22    17    18    2
    23    17    19    2
    24    20    19    2
    25    20    21    1
