@<TRIPOS>MOLECULE
3kyq_DPV_A_1.pdb
 23 22 0 0 0
SMALL
GASTEIGER

@<TRIPOS>ATOM
      1  N          6.4720   12.0720   12.0750 N.4   201  DPV201      0.3874
      2  P          5.4030   16.2620    9.7160 P.3   201  DPV201      0.2139
      3  C1         4.5880   18.0670   11.5200 C.3   201  DPV201      0.1491
      4  C2         3.4230   19.0630   11.4480 C.3   201  DPV201      0.0325
      5  C3         2.1620   18.4770   12.0920 C.3   201  DPV201      0.0026
      6  C4         5.7720   14.4290   11.6040 C.3   201  DPV201      0.1271
      7  C5         6.8120   13.3220   11.3610 C.3   201  DPV201     -0.0402
      8  C6         6.1250   12.3380   13.4790 C.3   201  DPV201     -0.0959
      9  C7         7.6420   11.1810   12.0530 C.3   201  DPV201     -0.0959
     10  C8         5.3520   11.3780   11.4120 C.3   201  DPV201     -0.0959
     11  C15        1.3610   17.6590   11.0770 C.3   201  DPV201      0.0001
     12  C16        0.0200   17.2250   11.6560 C.3   201  DPV201      0.0000
     13  C17       -0.3500   15.8370   11.1460 C.3   201  DPV201      0.0000
     14  C18       -1.6090   15.3290   11.8440 C.3   201  DPV201      0.0000
     15  C19       -2.3170   14.2880   10.9730 C.3   201  DPV201      0.0000
     16  O1P        4.1290   15.4980    9.5240 O.3   201  DPV201     -0.4373
     17  C20       -3.5520   13.7460   11.6890 C.3   201  DPV201      0.0000
     18  C21       -4.1730   12.5920   10.9080 C.3   201  DPV201      0.0000
     19  C22       -5.3090   13.0920   10.0190 C.3   201  DPV201      0.0000
     20  C23       -5.4340   12.2180    8.7750 C.3   201  DPV201      0.0000
     21  O2P        6.3870   16.3420    8.5970 O.2   201  DPV201     -0.5172
     22  O3P        5.0430   17.7890   10.1760 O.3   201  DPV201     -0.3141
     23  O4P        6.1960   15.6590   11.0050 O.3   201  DPV201     -0.3163
@<TRIPOS>BOND
     1    21     2    2
     2    20    19    1
     3    16     2    1
     4     2    22    1
     5     2    23    1
     6    19    18    1
     7    22     3    1
     8    18    17    1
     9    15    17    1
    10    15    14    1
    11    23     6    1
    12    11    12    1
    13    11     5    1
    14    13    12    1
    15    13    14    1
    16     7     6    1
    17     7     1    1
    18    10     1    1
    19     4     3    1
    20     4     5    1
    21     9     1    1
    22     1     8    1
