@<TRIPOS>MOLECULE
3kyt_HC2_A_1.pdb
 29 32 0 0 0
SMALL
GASTEIGER

@<TRIPOS>ATOM
      1  C1       -24.9340   -0.1580  -18.8360 C.3   1001  HC21001     0.0026
      2  C2       -24.6950   -1.6900  -18.8860 C.3   1001  HC21001     0.0329
      3  C3       -24.2670   -2.3370  -17.5530 C.3   1001  HC21001     0.1520
      4  C4       -25.1290   -1.8370  -16.3790 C.3   1001  HC21001     0.0329
      5  C5       -25.0050   -0.3280  -16.3310 C.3   1001  HC21001     0.0025
      6  C6       -24.4800    0.2430  -15.2210 C.3   1001  HC21001     0.0001
      7  C7       -24.6020    1.7330  -14.8760 C.3   1001  HC21001     0.0000
      8  C8       -25.3470    2.5150  -15.9540 C.3   1001  HC21001     0.0000
      9  C9       -25.0450    1.9330  -17.3660 C.3   1001  HC21001     0.0000
     10  C10      -25.4940    0.4680  -17.5380 C.3   1001  HC21001     0.0002
     11  C11      -25.6430    2.8000  -18.4930 C.3   1001  HC21001     0.0000
     12  C12      -25.4760    4.3190  -18.3550 C.3   1001  HC21001     0.0001
     13  C13      -25.8040    4.8370  -16.9400 C.3   1001  HC21001     0.0023
     14  C14      -24.9930    4.0050  -15.9550 C.3   1001  HC21001     0.0001
     15  C15      -24.9540    4.8020  -14.6480 C.3   1001  HC21001     0.0001
     16  C16      -24.9720    6.2440  -15.1370 C.3   1001  HC21001     0.0024
     17  C17      -25.1590    6.1910  -16.6690 C.3   1001  HC21001     0.0281
     18  C18      -27.3130    4.7320  -16.6730 C.3   1001  HC21001     0.0001
     19  C19      -27.0360    0.3990  -17.5930 C.3   1001  HC21001     0.0000
     20  C20      -25.7890    7.4640  -17.3070 C.3   1001  HC21001     0.1266
     21  C21      -25.9610    7.3770  -18.8310 C.3   1001  HC21001     0.0329
     22  C22      -24.8960    8.7040  -17.0590 C.3   1001  HC21001     0.0304
     23  C23      -23.4080    8.4850  -17.4070 C.3   1001  HC21001     0.0025
     24  C24      -22.5410    9.7000  -17.0830 C.3   1001  HC21001     0.0001
     25  C25      -22.2950    9.8490  -15.5740 C.3   1001  HC21001     0.0000
     26  C26      -21.1250    9.0270  -15.0090 C.3   1001  HC21001     0.0000
     27  C27      -22.1430   11.3210  -15.2400 C.3   1001  HC21001     0.0000
     28  O1       -24.3190   -3.7730  -17.6010 O.3   1001  HC21001    -0.2232
     29  O2       -27.0560    7.6930  -16.6400 O.3   1001  HC21001    -0.2257
@<TRIPOS>BOND
     1     2     1    1
     2     2     3    1
     3     1    10    1
     4    21    20    1
     5    11    12    1
     6    11     9    1
     7    12    13    1
     8    28     3    1
     9    19    10    1
    10     3     4    1
    11    10     9    1
    12    10     5    1
    13    23    24    1
    14    23    22    1
    15     9     8    1
    16    20    22    1
    17    20    17    1
    18    20    29    1
    19    24    25    1
    20    13    18    1
    21    13    17    1
    22    13    14    1
    23    17    16    1
    24     4     5    1
    25     5     6    1
    26    14     8    1
    27    14    15    1
    28     8     7    1
    29    25    27    1
    30    25    26    1
    31     6     7    1
    32    16    15    1
