@<TRIPOS>MOLECULE
3kz1_GSP_E_1.pdb
 32 34 0 0 0
SMALL
GASTEIGER

@<TRIPOS>ATOM
      1  PG        12.9020    1.9660    4.8670 P.3   538  GSP538      0.4340
      2  O3B       13.1970    1.9070    3.2810 O.3   538  GSP538     -0.2405
      3  S1G       13.6150    3.4340    5.5150 S.3   538  GSP538      0.0416
      4  O2G       11.3680    1.8340    5.0520 O.2   538  GSP538     -0.2423
      5  O3G       13.6130    0.7550    5.4820 O.3   538  GSP538     -0.1305
      6  PB        12.7390    0.7130    2.2930 P.3   538  GSP538      0.2262
      7  O1B       13.7730   -0.3520    2.2340 O.2   538  GSP538     -0.5168
      8  O2B       11.4220    0.1670    2.7210 O.3   538  GSP538     -0.4369
      9  PA        11.2480    1.8330    0.1080 P.3   538  GSP538      0.2189
     10  O1A       10.5450    0.5470   -0.1310 O.2   538  GSP538     -0.5170
     11  O2A       10.3420    2.6320    0.9520 O.3   538  GSP538     -0.4371
     12  O3A       12.6450    1.4820    0.8560 O.3   538  GSP538     -0.2701
     13  O5'       11.6440    2.4450   -1.3320 O.3   538  GSP538     -0.3112
     14  C5'       12.6470    3.4410   -1.3750 C.3   538  GSP538      0.1813
     15  C4'       12.6610    4.3520   -2.6090 C.3   538  GSP538      0.1799
     16  O4'       13.1740    3.6450   -3.7110 O.3   538  GSP538     -0.3326
     17  C3'       11.3090    4.9260   -3.0100 C.3   538  GSP538      0.2158
     18  O3'       11.4420    6.3170   -3.2260 O.3   538  GSP538     -0.2175
     19  C2'       10.9520    4.2460   -4.3150 C.3   538  GSP538      0.2310
     20  O2'       10.4870    5.1840   -5.2660 O.3   538  GSP538     -0.2158
     21  C1'       12.2670    3.6560   -4.7920 C.3   538  GSP538      0.2293
     22  N9        12.0680    2.3130   -5.3710 N.pl3 538  GSP538     -0.2354
     23  C8        11.4850    1.2050   -4.8090 C.3   538  GSP538      0.2246
     24  N7        11.5250    0.1750   -5.7010 N.2   538  GSP538     -0.2322
     25  C5        12.1270    0.6040   -6.8220 C.2   538  GSP538      0.2182
     26  C6        12.4320   -0.0130   -8.0310 C.1   538  GSP538      0.2372
     27  O6        12.1250   -1.1720   -8.2300 O.2   538  GSP538     -0.2069
     28  N1        13.0930    0.6870   -9.0170 N.2   538  GSP538     -0.2485
     29  C2        13.4400    2.0150   -8.8020 C.1   538  GSP538      0.2531
     30  N2        14.0720    2.7060   -9.7420 N.pl3 538  GSP538     -0.0226
     31  N3        13.1300    2.6340   -7.6060 N.2   538  GSP538     -0.3074
     32  C4        12.4800    1.9430   -6.6290 C.2   538  GSP538      0.2300
@<TRIPOS>BOND
     1    30    29    1
     2    28    29    2
     3    28    26    2
     4    29    31    2
     5    27    26    2
     6    26    25    1
     7    31    32    2
     8    25    32    1
     9    25    24    2
    10    32    22    1
    11    24    23    1
    12    22    23    1
    13    22    21    1
    14    20    19    1
    15    21    19    1
    16    21    16    1
    17    19    17    1
    18    16    15    1
    19    18    17    1
    20    17    15    1
    21    15    14    1
    22    14    13    1
    23    13     9    1
    24    10     9    2
    25     9    12    1
    26     9    11    1
    27    12     6    1
    28     7     6    2
    29     6     8    1
    30     6     2    1
    31     2     1    1
    32     1     4    2
    33     1     5    1
    34     1     3    1
