@<TRIPOS>MOLECULE
3kzb_ADP_A_1.pdb
 27 29 0 0 0
SMALL
GASTEIGER

@<TRIPOS>ATOM
      1  PB        19.9060   14.1950    1.3630 P.3   1760  ADP1760     0.5373
      2  O1B       21.1960   14.8900    0.7200 O.2   1760  ADP1760    -0.2221
      3  O2B       19.7430   12.7020    0.8460 O.3   1760  ADP1760    -0.1143
      4  O3B       20.1030   14.1320    2.7630 O.3   1760  ADP1760    -0.1143
      5  PA        17.9430   15.5690   -0.1580 P.3   1760  ADP1760     0.2231
      6  O1A       18.8780   15.1200   -1.3480 O.2   1760  ADP1760    -0.5169
      7  O2A       17.8000   16.9510   -0.1480 O.3   1760  ADP1760    -0.4370
      8  O3A       18.5820   15.0980    1.2200 O.3   1760  ADP1760    -0.2261
      9  O5'       16.4980   14.9890   -0.3220 O.3   1760  ADP1760    -0.3111
     10  C5'       16.2460   13.6910    0.0460 C.3   1760  ADP1760     0.1813
     11  C4'       14.7550   13.4710    0.0410 C.3   1760  ADP1760     0.1821
     12  O4'       14.2010   14.0130   -1.0950 O.3   1760  ADP1760    -0.3135
     13  C3'       14.1810   12.0450    0.0100 C.3   1760  ADP1760     0.2184
     14  O3'       14.2310   11.3300    1.1770 O.3   1760  ADP1760    -0.2174
     15  C2'       12.8040   12.2540   -0.6490 C.3   1760  ADP1760     0.2570
     16  O2'       11.7610   12.1380    0.1820 O.3   1760  ADP1760    -0.2130
     17  C1'       12.9150   13.6020   -1.1820 C.3   1760  ADP1760     0.3186
     18  N9        12.6060   13.5870   -2.5800 N.pl3 1760  ADP1760    -0.1439
     19  C8        13.4340   13.3050   -3.5940 C.3   1760  ADP1760     0.3377
     20  N7        12.6870   13.3390   -4.7710 N.2   1760  ADP1760    -0.2095
     21  C5        11.4320   13.7600   -4.4300 C.2   1760  ADP1760     0.2526
     22  C6        10.3830   14.1130   -5.1740 C.2   1760  ADP1760     0.4393
     23  N6        10.4190   13.9670   -6.5810 N.pl3 1760  ADP1760     0.2180
     24  N1         9.2380   14.3850   -4.5850 N.2   1760  ADP1760     0.0021
     25  C2         9.1410   14.3820   -3.2430 C.3   1760  ADP1760     0.5254
     26  N3        10.2440   14.2450   -2.4850 N.2   1760  ADP1760    -0.0055
     27  C4        11.3780   13.9740   -3.1110 C.2   1760  ADP1760     0.3518
@<TRIPOS>BOND
     1    23    22    1
     2    22    24    2
     3    22    21    1
     4    20    21    2
     5    20    19    1
     6    24    25    1
     7    21    27    1
     8    19    18    1
     9    25    26    1
    10    27    18    1
    11    27    26    2
    12    18    17    1
    13     6     5    2
    14    17    12    1
    15    17    15    1
    16    12    11    1
    17    15    13    1
    18    15    16    1
    19     9     5    1
    20     9    10    1
    21     5     7    1
    22     5     8    1
    23    13    11    1
    24    13    14    1
    25    11    10    1
    26     2     1    2
    27     3     1    1
    28     8     1    1
    29     1     4    1
