@<TRIPOS>MOLECULE
3kzh_BGC_A_1.pdb
 11 11 0 0 0
SMALL
GASTEIGER

@<TRIPOS>ATOM
      1  C2        28.3070   57.8150  -12.0300 C.3   329  BGC329      0.2434
      2  C3        29.8420   58.0180  -11.8460 C.3   329  BGC329      0.2198
      3  C4        30.3030   58.6650  -13.2190 C.3   329  BGC329      0.2118
      4  C5        29.5500   60.0260  -13.5370 C.3   329  BGC329      0.1509
      5  C6        29.9130   60.6690  -14.8140 C.3   329  BGC329      0.0350
      6  C1        27.6660   59.1810  -12.2620 C.3   329  BGC329      0.3023
      7  O1        26.4390   59.0300  -12.3810 O.3   329  BGC329     -0.1869
      8  O2        27.8350   57.3200  -10.9620 O.3   329  BGC329     -0.2148
      9  O3        30.2940   56.8230  -11.7260 O.3   329  BGC329     -0.2174
     10  O4        31.6060   58.8460  -13.1600 O.3   329  BGC329     -0.2177
     11  O5        28.1590   59.8070  -13.5320 O.3   329  BGC329     -0.3264
@<TRIPOS>BOND
     1     5     4    1
     2     4    11    1
     3     4     3    1
     4    11     6    1
     5     3    10    1
     6     3     2    1
     7     7     6    1
     8     6     1    1
     9     1     2    1
    10     1     8    1
    11     2     9    1
