@<TRIPOS>MOLECULE
3kzi_HEM_F_1.pdb
 43 50 0 0 0
SMALL
GASTEIGER

@<TRIPOS>ATOM
      1  CHA       13.1320  -48.7290  -55.7010 C.2    85  HEM85       0.0000
      2  CHB       13.3650  -48.8600  -60.5150 C.2    85  HEM85       0.0000
      3  CHC       18.1290  -50.0510  -60.2370 C.2    85  HEM85       0.0000
      4  CHD       17.7500  -49.9330  -55.3160 C.2    85  HEM85       0.0000
      5  C1A       12.7310  -48.6700  -57.0590 C.ar   85  HEM85       0.0000
      6  C2A       11.4070  -48.3890  -57.4890 C.ar   85  HEM85       0.0000
      7  C3A       11.3950  -48.4110  -58.9220 C.ar   85  HEM85       0.0000
      8  C4A       12.8590  -48.7800  -59.2410 C.ar   85  HEM85       0.0000
      9  CMA        9.9630  -48.7150  -59.3540 C.3    85  HEM85       0.0000
     10  CAA       10.2000  -48.2260  -56.5140 C.3    85  HEM85       0.0000
     11  CBA        9.8220  -49.6050  -55.9150 C.3    85  HEM85       0.0000
     12  CGA        8.6650  -49.7270  -54.9060 C.2    85  HEM85       0.0000
     13  O1A        7.7060  -50.5040  -55.1510 O.co2  85  HEM85       0.0000
     14  O2A        8.7260  -49.0960  -53.8920 O.co2  85  HEM85       0.0000
     15  C1B       14.6360  -49.1520  -60.9130 C.2    85  HEM85       0.0000
     16  C2B       15.0250  -49.2120  -62.2470 C.2    85  HEM85       0.0000
     17  C3B       16.4920  -49.5840  -62.2700 C.2    85  HEM85       0.0000
     18  C4B       16.8580  -49.7130  -60.7840 C.2    85  HEM85       0.0000
     19  CMB       14.1200  -48.9520  -63.4420 C.3    85  HEM85       0.0000
     20  CAB       17.1780  -49.7250  -63.5640 C.2    85  HEM85       0.0000
     21  CBB       17.1010  -50.8740  -64.3160 C.2    85  HEM85       0.0000
     22  C1C       18.4510  -50.1480  -58.8450 C.ar   85  HEM85       0.0000
     23  C2C       19.8370  -50.5040  -58.2650 C.ar   85  HEM85       0.0000
     24  C3C       19.7150  -50.4750  -56.8820 C.ar   85  HEM85       0.0000
     25  C4C       18.2690  -50.0960  -56.6060 C.ar   85  HEM85       0.0000
     26  CMC       21.1350  -50.8310  -59.0760 C.3    85  HEM85       0.0000
     27  CAC       20.8000  -50.7640  -55.7930 C.3    85  HEM85       0.0000
     28  CBC       21.5630  -49.4910  -55.4250 C.3    85  HEM85       0.0000
     29  C1D       16.4740  -49.5800  -54.9950 C.2    85  HEM85       0.0000
     30  C2D       15.9360  -49.3810  -53.6220 C.2    85  HEM85       0.0000
     31  C3D       14.6370  -49.0300  -53.7600 C.2    85  HEM85       0.0000
     32  C4D       14.4170  -49.0430  -55.2350 C.2    85  HEM85       0.0000
     33  CMD       16.7180  -49.5330  -52.3090 C.3    85  HEM85       0.0000
     34  CAD       13.5200  -48.6690  -52.8930 C.3    85  HEM85       0.0000
     35  CBD       13.4090  -47.1410  -52.8870 C.3    85  HEM85       0.0000
     36  CGD       12.2610  -46.5530  -52.0790 C.2    85  HEM85       0.0000
     37  O1D       10.8830  -46.7630  -52.5220 O.co2  85  HEM85       0.0000
     38  O2D       12.5730  -45.7760  -50.9310 O.co2  85  HEM85       0.0000
     39  NA        13.5790  -48.9440  -58.1070 N.ar   85  HEM85       0.0000
     40  NB        15.7040  -49.4330  -60.0340 N.2    85  HEM85       0.0000
     41  NC        17.5910  -49.9340  -57.8020 N.ar   85  HEM85       0.0000
     42  ND        15.4970  -49.3500  -55.9090 N.2    85  HEM85       0.0000
     43 FE         15.5670  -49.4290  -57.9310 Fe     85  HEM85       0.0000
@<TRIPOS>BOND
     1    21    20    2
     2    20    17    1
     3    19    16    1
     4    17    16    2
     5    17    18    1
     6    16    15    1
     7    15     2    1
     8    15    40    2
     9    18     3    2
    10    18    40    1
    11     2     8    2
    12     3    22    1
    13    40    43    1
    14     9     7    1
    15     8     7   ar
    16     8    39   ar
    17    26    23    1
    18     7     6   ar
    19    22    23   ar
    20    22    41   ar
    21    23    24   ar
    22    39    43    1
    23    39     5   ar
    24    43    41    1
    25    43    42    1
    26    41    25   ar
    27     6     5   ar
    28     6    10    1
    29     5     1    2
    30    24    25   ar
    31    24    27    1
    32    25     4    1
    33    10    11    1
    34    11    12    1
    35    42    32    2
    36    42    29    1
    37    27    28    1
    38     1    32    1
    39     4    29    2
    40    32    31    1
    41    13    12   ar
    42    29    30    1
    43    12    14   ar
    44    31    30    2
    45    31    34    1
    46    30    33    1
    47    34    35    1
    48    35    36    1
    49    37    36   ar
    50    36    38   ar
