@<TRIPOS>MOLECULE
3kzk_OLN_A_1.pdb
 15 14 0 0 0
SMALL
GASTEIGER

@<TRIPOS>ATOM
      1  CA       109.1930   42.3130   82.2730 C.3   345  OLN345      0.1978
      2  C        109.2970   43.0930   80.9650 C.2   345  OLN345      0.3842
      3  O        108.2710   43.6830   80.5780 O.co2 345  OLN345     -0.2437
      4  OXT      110.3920   43.1230   80.3580 O.co2 345  OLN345     -0.2437
      5  CB       108.4790   43.1960   83.3020 C.3   345  OLN345      0.0351
      6  CG       108.3270   42.5930   84.6740 C.3   345  OLN345      0.0258
      7  CD       107.2010   43.2840   85.4210 C.3   345  OLN345      0.1170
      8  NE       107.5470   44.6060   85.9400 N.am  345  OLN345     -0.1859
      9  CZ       106.6780   45.3940   86.5680 C.2   345  OLN345      0.3589
     10  O2       105.4670   45.1340   86.6170 O.2   345  OLN345     -0.2474
     11  NH2      107.2010   46.4730   87.1480 N.am  345  OLN345     -0.0679
     12  N1       110.5200   41.8960   82.7370 N.am  345  OLN345     -0.1956
     13  C1       111.1830   40.8030   82.3640 C.2   345  OLN345      0.2423
     14  O1       110.6770   39.9470   81.6410 O.2   345  OLN345     -0.2733
     15  C2       112.6020   40.7190   82.9100 C.3   345  OLN345      0.0964
@<TRIPOS>BOND
     1     4     2   ar
     2     3     2   ar
     3     2     1    1
     4    14    13    2
     5     1    12    1
     6     1     5    1
     7    13    12   am
     8    13    15    1
     9     5     6    1
    10     6     7    1
    11     7     8    1
    12     8     9   am
    13     9    10    2
    14     9    11   am
