@<TRIPOS>MOLECULE
3kzn_AOR_A_1.pdb
 12 11 0 0 0
SMALL
GASTEIGER

@<TRIPOS>ATOM
      1  CA       109.9640   42.7460   82.7500 C.3   345  AOR345      0.1978
      2  C        109.8060   43.5390   81.4480 C.2   345  AOR345      0.3842
      3  O        108.6790   44.0030   81.1530 O.co2 345  AOR345     -0.2437
      4  OXT      110.8200   43.6800   80.7310 O.co2 345  AOR345     -0.2437
      5  CB       109.0850   43.3330   83.8610 C.3   345  AOR345      0.0348
      6  CG       109.3630   44.7930   84.2010 C.3   345  AOR345      0.0228
      7  CD       108.3240   45.3310   85.1860 C.3   345  AOR345      0.1094
      8  NE       108.5060   44.6840   86.5230 N.3   345  AOR345     -0.1314
      9  N1       111.3770   42.5940   83.1190 N.am  345  AOR345     -0.1956
     10  C1       112.0770   41.5130   82.7840 C.2   345  AOR345      0.2423
     11  O1       111.6340   40.6600   82.0120 O.2   345  AOR345     -0.2733
     12  C2       113.4540   41.4310   83.4350 C.3   345  AOR345      0.0964
@<TRIPOS>BOND
     1     4     2   ar
     2     3     2   ar
     3     2     1    1
     4    11    10    2
     5     1     9    1
     6     1     5    1
     7    10     9   am
     8    10    12    1
     9     5     6    1
    10     6     7    1
    11     7     8    1
