@<TRIPOS>MOLECULE
3kzo_AN0_A_1.pdb
 11 10 0 0 0
SMALL
GASTEIGER

@<TRIPOS>ATOM
      1  CA       109.6020   42.3020   82.5540 C.3   345  AN0345      0.1977
      2  C        109.6350   43.0580   81.2230 C.2   345  AN0345      0.3842
      3  O        108.5530   43.4440   80.7390 O.co2 345  AN0345     -0.2437
      4  OXT      110.7450   43.2560   80.6790 O.co2 345  AN0345     -0.2437
      5  CB       109.4570   43.2780   83.7260 C.3   345  AN0345      0.0333
      6  CG       108.1710   44.0660   83.7420 C.3   345  AN0345      0.0023
      7  CD       108.0930   44.9630   84.9660 C.3   345  AN0345      0.0001
      8  N1       110.9620   41.8400   82.8400 N.am  345  AN0345     -0.1956
      9  C1       111.5010   40.6620   82.5550 C.2   345  AN0345      0.2423
     10  O1       110.8650   39.7710   81.9930 O.2   345  AN0345     -0.2733
     11  C2       112.9490   40.5340   82.9880 C.3   345  AN0345      0.0964
@<TRIPOS>BOND
     1     4     2   ar
     2     3     2   ar
     3     2     1    1
     4    10     9    2
     5     1     8    1
     6     1     5    1
     7     9     8   am
     8     9    11    1
     9     5     6    1
    10     6     7    1
