@<TRIPOS>MOLECULE
3kzz_OBG_A_1.pdb
 18 20 0 0 0
SMALL
GASTEIGER

@<TRIPOS>ATOM
      1  C1       -13.8310  -27.0160    3.6470 C.1   181  OBG181      0.2533
      2  N1       -12.7910  -27.2020    2.8110 N.pl3 181  OBG181     -0.0226
      3  O1       -17.2900  -26.1130    3.1040 O.2   181  OBG181     -0.4447
      4  C2       -16.1320  -26.4450    3.7560 C.2   181  OBG181      0.3180
      5  N2       -15.0090  -26.6530    3.0600 N.2   181  OBG181     -0.2855
      6  C3       -17.3380  -25.7910    1.7030 C.3   181  OBG181      0.2348
      7  N3       -16.8930  -26.5130    6.2830 N.2   181  OBG181     -0.2273
      8  C4       -18.7680  -25.8480    1.1760 C.ar  181  OBG181      0.0213
      9  N4       -14.8570  -27.0890    7.1160 N.2   181  OBG181     -0.1806
     10  C5       -19.2800  -27.0400    0.6430 C.ar  181  OBG181     -0.0007
     11  N5       -13.6670  -27.1830    4.9940 N.2   181  OBG181     -0.2693
     12  C6       -20.5870  -27.1110    0.1230 C.ar  181  OBG181     -0.0002
     13  C7       -21.3870  -25.9660    0.1570 C.ar  181  OBG181     -0.0000
     14  C8       -20.8780  -24.7720    0.6940 C.ar  181  OBG181     -0.0002
     15  C9       -19.5700  -24.6990    1.1880 C.ar  181  OBG181     -0.0007
     16  C10      -16.0570  -26.6080    5.2310 C.2   181  OBG181      0.2195
     17  C11      -16.1620  -26.7870    7.4040 C.3   181  OBG181      0.2628
     18  C12      -14.7430  -26.9830    5.7870 C.1   181  OBG181      0.1221
@<TRIPOS>BOND
     1    12    13   ar
     2    12    10   ar
     3    13    14   ar
     4    10     8   ar
     5    14    15   ar
     6     8    15   ar
     7     8     6    1
     8     6     3    1
     9     2     1    1
    10     5     1    2
    11     5     4    2
    12     3     4    1
    13     1    11    2
    14     4    16    1
    15    11    18    2
    16    16    18    1
    17    16     7    2
    18    18     9    2
    19     7    17    1
    20     9    17    1
