@<TRIPOS>MOLECULE
3l01_MTT_A_1.pdb
 45 48 0 0 0
SMALL
GASTEIGER

@<TRIPOS>ATOM
      1  O14        6.0230  -17.9200    6.5960 O.3   5360  MTT5360    -0.2176
      2  C14        5.8110  -18.6150    5.3630 C.3   5360  MTT5360     0.2144
      3  C13        7.1440  -18.9470    4.7180 C.3   5360  MTT5360     0.2198
      4  O13        7.9520  -17.7640    4.4830 O.3   5360  MTT5360    -0.2174
      5  C12        6.8490  -19.7250    3.4440 C.3   5360  MTT5360     0.2406
      6  O12        8.0590  -20.3170    2.9460 O.3   5360  MTT5360    -0.2149
      7  C11        5.8690  -20.8770    3.6450 C.3   5360  MTT5360     0.2695
      8  C15        5.0650  -19.9040    5.6460 C.3   5360  MTT5360     0.1835
      9  O15        4.7150  -20.4660    4.3940 O.3   5360  MTT5360    -0.3256
     10  C16        3.8380  -19.7030    6.5440 C.3   5360  MTT5360     0.2142
     11  O16        2.6280  -19.7560    5.7930 O.3   5360  MTT5360    -0.2176
     12  O24        6.5740  -21.9090    4.3180 O.3   5360  MTT5360    -0.3257
     13  C24        6.7870  -23.1500    3.6410 C.3   5360  MTT5360     0.1804
     14  C23        8.2750  -23.4550    3.6800 C.3   5360  MTT5360     0.2167
     15  O23        9.0310  -22.5010    2.9010 O.3   5360  MTT5360    -0.2175
     16  C22        8.5390  -24.8560    3.1860 C.3   5360  MTT5360     0.2404
     17  O22        9.9580  -25.0820    3.1960 O.3   5360  MTT5360    -0.2149
     18  C21        7.7790  -25.8500    4.0730 C.3   5360  MTT5360     0.2695
     19  C25        6.0100  -24.2580    4.3510 C.3   5360  MTT5360     0.1803
     20  O25        6.3950  -25.5590    3.9320 O.3   5360  MTT5360    -0.3257
     21  C26        4.5230  -24.1280    4.0350 C.3   5360  MTT5360     0.2141
     22  O26        4.1700  -22.7360    4.1030 O.3   5360  MTT5360    -0.2176
     23  O34        8.1310  -25.7990    5.4680 O.3   5360  MTT5360    -0.3257
     24  C34        8.6940  -27.0440    5.9060 C.3   5360  MTT5360     0.1804
     25  C33       10.1250  -26.7980    6.3480 C.3   5360  MTT5360     0.2167
     26  O33       10.8680  -26.4710    5.1720 O.3   5360  MTT5360    -0.2175
     27  C32       10.7440  -27.9950    7.1070 C.3   5360  MTT5360     0.2404
     28  O32       11.9070  -27.4920    7.7930 O.3   5360  MTT5360    -0.2149
     29  C31        9.7700  -28.7230    8.0770 C.3   5360  MTT5360     0.2695
     30  C35        7.9710  -27.6810    7.0930 C.3   5360  MTT5360     0.1803
     31  O35        8.5870  -28.9500    7.3300 O.3   5360  MTT5360    -0.3257
     32  C36        6.4840  -27.8410    6.8540 C.3   5360  MTT5360     0.2141
     33  O36        6.2780  -27.7730    5.4470 O.3   5360  MTT5360    -0.2176
     34  O44        9.3850  -27.9490    9.2390 O.3   5360  MTT5360    -0.3257
     35  C44        9.1220  -28.5430   10.5350 C.3   5360  MTT5360     0.1804
     36  C43       10.2810  -28.2360   11.4820 C.3   5360  MTT5360     0.2168
     37  O43       11.4750  -28.9080   11.0590 O.3   5360  MTT5360    -0.2175
     38  C42       10.0090  -28.5720   12.9570 C.3   5360  MTT5360     0.2433
     39  O42       11.0270  -27.9170   13.7250 O.3   5360  MTT5360    -0.2148
     40  C41        8.6220  -28.1720   13.5010 C.3   5360  MTT5360     0.3023
     41  O41        8.5460  -26.8280   14.0460 O.3   5360  MTT5360    -0.1869
     42  C45        7.9090  -27.8580   11.1720 C.3   5360  MTT5360     0.1804
     43  O45        7.6270  -28.3470   12.4860 O.3   5360  MTT5360    -0.3237
     44  C46        6.6390  -28.0430   10.3570 C.3   5360  MTT5360     0.2141
     45  O46        6.1110  -29.3340   10.6580 O.3   5360  MTT5360    -0.2176
@<TRIPOS>BOND
     1    15    14    1
     2     6     5    1
     3    16    17    1
     4    16    14    1
     5    16    18    1
     6     5     7    1
     7     5     3    1
     8    13    14    1
     9    13    12    1
    10    13    19    1
    11     7    12    1
    12     7     9    1
    13    20    18    1
    14    20    19    1
    15    21    22    1
    16    21    19    1
    17    18    23    1
    18     9     8    1
    19     4     3    1
    20     3     2    1
    21    26    25    1
    22     2     8    1
    23     2     1    1
    24    33    32    1
    25    23    24    1
    26     8    10    1
    27    11    10    1
    28    24    25    1
    29    24    30    1
    30    25    27    1
    31    32    30    1
    32    30    31    1
    33    27    28    1
    34    27    29    1
    35    31    29    1
    36    29    34    1
    37    34    35    1
    38    44    45    1
    39    44    42    1
    40    35    42    1
    41    35    36    1
    42    37    36    1
    43    42    43    1
    44    36    38    1
    45    43    40    1
    46    38    40    1
    47    38    39    1
    48    40    41    1
