@<TRIPOS>MOLECULE
3l02_SN0_A_1.pdb
 15 14 0 0 0
SMALL
GASTEIGER

@<TRIPOS>ATOM
      1  CA       109.0880   41.8720   82.1460 C.3   345  SN0345      0.1977
      2  C        109.1710   42.6800   80.8490 C.2   345  SN0345      0.3842
      3  O        108.1060   43.0340   80.3000 O.co2 345  SN0345     -0.2437
      4  OXT      110.3040   42.9530   80.3930 O.co2 345  SN0345     -0.2437
      5  CB       108.2540   42.6190   83.1890 C.3   345  SN0345      0.0333
      6  CG       108.7290   44.0500   83.4680 C.3   345  SN0345      0.0023
      7  CD       107.8620   44.7350   84.5220 C.3   345  SN0345      0.0001
      8  N1       110.4370   41.6080   82.6540 N.am  345  SN0345     -0.1956
      9  C1       111.1040   40.4990   82.3500 C.2   345  SN0345      0.2424
     10  O1       110.5950   39.6070   81.6700 O.2   345  SN0345     -0.2733
     11  C2       112.5370   40.4430   82.9130 C.3   345  SN0345      0.0986
     12  C3       112.8470   39.0620   83.5130 C.3   345  SN0345      0.1237
     13  C4       114.3060   38.6780   83.6890 C.2   345  SN0345      0.3654
     14  OD1      115.1870   39.5590   83.7290 O.co2 345  SN0345     -0.2456
     15  OD2      114.5810   37.4630   83.7940 O.co2 345  SN0345     -0.2456
@<TRIPOS>BOND
     1     3     2   ar
     2     4     2   ar
     3     2     1    1
     4    10     9    2
     5     1     8    1
     6     1     5    1
     7     9     8   am
     8     9    11    1
     9    11    12    1
    10     5     6    1
    11     6     7    1
    12    12    13    1
    13    13    14   ar
    14    13    15   ar
