@<TRIPOS>MOLECULE
3l03_4OH_A_1.pdb
 22 25 0 0 0
SMALL
GASTEIGER

@<TRIPOS>ATOM
      1  CAA      -24.0990    3.9650   -5.3780 C.3   551  4OH551      0.0070
      2  CAB      -25.5400    4.3330   -5.0550 C.3   551  4OH551      0.0359
      3  CAC      -23.9070    4.1140   -6.8790 C.3   551  4OH551      0.0221
      4  CAD      -23.0650    4.8570   -4.7140 C.3   551  4OH551      0.0051
      5  CAE      -26.5340    3.4240   -5.7340 C.3   551  4OH551      0.0332
      6  CAF      -26.0250    4.2490   -3.6190 C.3   551  4OH551      0.1847
      7  CAG      -22.4720    3.9390   -7.2920 C.ar  551  4OH551     -0.0263
      8  CAH      -24.8820    3.2130   -7.6280 C.3   551  4OH551      0.0044
      9  CAI      -21.6640    4.2770   -4.8940 C.3   551  4OH551      0.0261
     10  CAJ      -27.8390    3.9920   -5.2190 C.3   551  4OH551      0.1846
     11  CAK      -26.3400    3.4970   -7.2390 C.3   551  4OH551      0.0029
     12  CAL      -26.3790    1.9810   -5.2630 C.3   551  4OH551      0.0027
     13  CAM      -27.5510    4.1700   -3.7320 C.3   551  4OH551      0.2121
     14  OAN      -25.6370    5.4240   -2.9170 O.3   551  4OH551     -0.2203
     15  CAO      -21.4170    4.0450   -6.3740 C.ar  551  4OH551     -0.0230
     16  CAP      -22.1540    3.7040   -8.6310 C.ar  551  4OH551     -0.0013
     17  OAQ      -28.9890    3.1520   -5.4390 O.3   551  4OH551     -0.2203
     18  OAR      -28.1380    5.3880   -3.2460 O.3   551  4OH551     -0.2177
     19  CAS      -20.1050    3.8940   -6.7830 C.ar  551  4OH551      0.0375
     20  CAT      -20.8070    3.5640   -9.0380 C.ar  551  4OH551      0.0417
     21  CAU      -19.7800    3.6590   -8.1090 C.ar  551  4OH551      0.1954
     22  OAV      -18.4630    3.5200   -8.4330 O.3   551  4OH551     -0.2866
@<TRIPOS>BOND
     1    20    16   ar
     2    20    21   ar
     3    16     7   ar
     4    22    21    1
     5    21    19   ar
     6     8    11    1
     7     8     3    1
     8     7     3    1
     9     7    15   ar
    10    11     5    1
    11     3     1    1
    12    19    15   ar
    13    15     9    1
    14     5    12    1
    15     5    10    1
    16     5     2    1
    17    17    10    1
    18     1     2    1
    19     1     4    1
    20    10    13    1
    21     2     6    1
    22     9     4    1
    23    13     6    1
    24    13    18    1
    25     6    14    1
