@<TRIPOS>MOLECULE
3l04_SN0_A_1.pdb
 15 14 0 0 0
SMALL
GASTEIGER

@<TRIPOS>ATOM
      1  CA       108.6330   41.9740   81.8920 C.3   345  SN0345      0.1977
      2  C        108.7230   42.8240   80.6190 C.2   345  SN0345      0.3842
      3  O        107.7620   43.5590   80.3120 O.co2 345  SN0345     -0.2437
      4  OXT      109.7650   42.7500   79.9350 O.co2 345  SN0345     -0.2437
      5  CB       107.8420   42.6940   82.9930 C.3   345  SN0345      0.0333
      6  CG       108.2310   44.1520   83.2010 C.3   345  SN0345      0.0023
      7  CD       107.4730   44.7790   84.3620 C.3   345  SN0345      0.0001
      8  N1       109.9960   41.6690   82.3430 N.am  345  SN0345     -0.1956
      9  C1       110.5640   40.5040   82.0420 C.2   345  SN0345      0.2424
     10  O1       109.9660   39.6410   81.3980 O.2   345  SN0345     -0.2733
     11  C2       111.9950   40.3520   82.5570 C.3   345  SN0345      0.0986
     12  C3       112.4210   38.8980   82.7430 C.3   345  SN0345      0.1237
     13  C4       113.9170   38.7140   82.8690 C.2   345  SN0345      0.3654
     14  OD1      114.6960   39.6880   82.8790 O.co2 345  SN0345     -0.2456
     15  OD2      114.3320   37.5390   82.9640 O.co2 345  SN0345     -0.2456
@<TRIPOS>BOND
     1     4     2   ar
     2     3     2   ar
     3     2     1    1
     4    10     9    2
     5     1     8    1
     6     1     5    1
     7     9     8   am
     8     9    11    1
     9    11    12    1
    10    12    13    1
    11    13    14   ar
    12    13    15   ar
    13     5     6    1
    14     6     7    1
