@<TRIPOS>MOLECULE
3l05_SN0_A_1.pdb
 15 14 0 0 0
SMALL
GASTEIGER

@<TRIPOS>ATOM
      1  CA       108.6900   41.7610   81.7890 C.3   345  SN0345      0.1977
      2  C        108.7180   42.5990   80.5060 C.2   345  SN0345      0.3842
      3  O        107.6620   43.1470   80.1150 O.co2 345  SN0345     -0.2437
      4  OXT      109.8060   42.6940   79.9030 O.co2 345  SN0345     -0.2437
      5  CB       107.9310   42.4860   82.9040 C.3   345  SN0345      0.0333
      6  CG       108.4790   43.8600   83.2510 C.3   345  SN0345      0.0023
      7  CD       107.5070   44.6210   84.1350 C.3   345  SN0345      0.0001
      8  N1       110.0540   41.4340   82.2120 N.am  345  SN0345     -0.1956
      9  C1       110.6210   40.2700   81.9080 C.2   345  SN0345      0.2424
     10  O1       109.9720   39.3360   81.4270 O.2   345  SN0345     -0.2733
     11  C2       112.1190   40.2070   82.2120 C.3   345  SN0345      0.0986
     12  C3       112.3410   39.0810   83.2220 C.3   345  SN0345      0.1237
     13  C4       113.7740   38.7610   83.5270 C.2   345  SN0345      0.3654
     14  OD1      114.7020   39.5050   83.1560 O.co2 345  SN0345     -0.2456
     15  OD2      113.9830   37.7180   84.1690 O.co2 345  SN0345     -0.2456
@<TRIPOS>BOND
     1     4     2   ar
     2     3     2   ar
     3     2     1    1
     4    10     9    2
     5     1     8    1
     6     1     5    1
     7     9     8   am
     8     9    11    1
     9    11    12    1
    10     5     6    1
    11    14    13   ar
    12    12    13    1
    13     6     7    1
    14    13    15   ar
