@<TRIPOS>MOLECULE
3l06_SN0_A_1.pdb
 15 14 0 0 0
SMALL
GASTEIGER

@<TRIPOS>ATOM
      1  CA       109.2080   42.1350   82.2710 C.3   345  SN0345      0.1977
      2  C        109.3450   43.0250   81.0410 C.2   345  SN0345      0.3842
      3  O        108.4360   43.8540   80.8140 O.co2 345  SN0345     -0.2437
      4  OXT      110.3540   42.8820   80.3200 O.co2 345  SN0345     -0.2437
      5  CB       108.3010   42.8060   83.3050 C.3   345  SN0345      0.0333
      6  CG       108.8130   44.1420   83.8070 C.3   345  SN0345      0.0023
      7  CD       107.7640   44.8350   84.6490 C.3   345  SN0345      0.0001
      8  N1       110.5110   41.7470   82.8220 N.am  345  SN0345     -0.1956
      9  C1       111.0200   40.5360   82.6120 C.2   345  SN0345      0.2424
     10  O1       110.3070   39.5780   82.3140 O.2   345  SN0345     -0.2733
     11  C2       112.5360   40.4590   82.7720 C.3   345  SN0345      0.0986
     12  C3       113.0470   39.0680   83.1690 C.3   345  SN0345      0.1237
     13  C4       114.5410   39.0050   83.3980 C.2   345  SN0345      0.3654
     14  OD1      115.2980   39.9740   83.1630 O.co2 345  SN0345     -0.2456
     15  OD2      114.9730   37.9230   83.8360 O.co2 345  SN0345     -0.2456
@<TRIPOS>BOND
     1     4     2   ar
     2     3     2   ar
     3     2     1    1
     4     1     8    1
     5     1     5    1
     6    10     9    2
     7     9    11    1
     8     9     8   am
     9    11    12    1
    10    14    13   ar
    11    12    13    1
    12     5     6    1
    13    13    15   ar
    14     6     7    1
