@<TRIPOS>MOLECULE
3l08_ZIG_A_1.pdb
 36 40 0 0 0
SMALL
GASTEIGER

@<TRIPOS>ATOM
      1  C1        29.8560   12.0530   20.5470 C.3   1109  ZIG1109     0.2543
      2  C2        24.1620   12.6620   23.4470 C.ar  1109  ZIG1109     0.0016
      3  C3        28.5740   18.2130   20.5810 C.ar  1109  ZIG1109     0.0312
      4  C4        22.9230   12.5640   24.0210 C.ar  1109  ZIG1109     0.0191
      5  C5        28.3430   17.1540   19.7310 C.ar  1109  ZIG1109     0.0249
      6  C6        20.6740   17.1290   21.0650 C.ar  1109  ZIG1109     0.0241
      7  C7        20.1210   15.4450   23.4580 C.ar  1109  ZIG1109     0.0207
      8  C8        20.9720   18.2980   20.4160 C.ar  1109  ZIG1109     0.1222
      9  C9        19.8870   14.3340   24.2220 C.ar  1109  ZIG1109     0.0988
     10  C10       23.5420   14.7150   22.4620 C.ar  1109  ZIG1109     0.0015
     11  C11       26.2460   18.8080   20.5240 C.ar  1109  ZIG1109     0.0606
     12  C12       26.0130   14.0920   20.7490 C.ar  1109  ZIG1109     0.0244
     13  C13       22.5740   17.6600   22.2640 C.ar  1109  ZIG1109     0.1221
     14  C14       26.8670   13.2660   22.7880 C.ar  1109  ZIG1109     0.1021
     15  C15       24.4880   13.7340   22.6570 C.ar  1109  ZIG1109     0.0016
     16  C16       27.5310   19.0240   20.9670 C.ar  1109  ZIG1109     0.1425
     17  C17       21.5430   16.7830   22.0630 C.ar  1109  ZIG1109     0.0227
     18  C18       21.3450   15.5990   22.8540 C.ar  1109  ZIG1109     0.0046
     19  C19       21.9680   13.5310   23.8370 C.ar  1109  ZIG1109     0.0813
     20  C20       27.0570   16.9460   19.2950 C.ar  1109  ZIG1109     0.1545
     21  C21       25.7940   13.7190   22.0570 C.ar  1109  ZIG1109     0.0207
     22  C22       22.2970   14.6190   23.0510 C.ar  1109  ZIG1109     0.0177
     23  C23       27.2960   13.9970   20.2650 C.ar  1109  ZIG1109     0.1440
     24  C24       26.0160   17.7530   19.6750 C.ar  1109  ZIG1109     0.1612
     25  C25       28.2890   13.5210   21.0810 C.ar  1109  ZIG1109     0.2422
     26  N26       20.7810   13.3730   24.4260 N.ar  1109  ZIG1109    -0.2438
     27  N27       22.0030   19.1080   20.6720 N.ar  1109  ZIG1109    -0.1464
     28  N28       28.1190   13.1500   22.3490 N.ar  1109  ZIG1109    -0.2090
     29  N29       22.7970   18.7910   21.5890 N.ar  1109  ZIG1109    -0.1464
     30  N30       27.6410   14.3510   18.9250 N.pl3 1109  ZIG1109    -0.0917
     31  O31       27.3530   15.9770   16.9490 O.2   1109  ZIG1109    -0.1482
     32  O32       25.3160   15.2910   18.2890 O.2   1109  ZIG1109    -0.1482
     33  O33       29.5590   13.4380   20.5480 O.3   1109  ZIG1109    -0.4552
     34  F34       27.7720   20.0500   21.7960 F     1109  ZIG1109    -0.2041
     35  F35       24.7820   17.5030   19.2150 F     1109  ZIG1109    -0.2027
     36  S36       26.7260   15.6020   18.2020 S.O2  1109  ZIG1109     0.0951
@<TRIPOS>BOND
     1    31    36    2
     2    36    32    2
     3    36    30    1
     4    36    20    1
     5    30    23    1
     6    35    24    1
     7    20    24   ar
     8    20     5   ar
     9    24    11   ar
    10     5     3   ar
    11    23    12   ar
    12    23    25   ar
    13     8    27   ar
    14     8     6   ar
    15    11    16   ar
    16     1    33    1
    17    33    25    1
    18     3    16   ar
    19    27    29   ar
    20    12    21   ar
    21    16    34    1
    22     6    17   ar
    23    25    28   ar
    24    29    13   ar
    25    21    15    1
    26    21    14   ar
    27    17    13   ar
    28    17    18    1
    29    28    14   ar
    30    10    15   ar
    31    10    22   ar
    32    15     2   ar
    33    18    22   ar
    34    18     7   ar
    35    22    19   ar
    36     2     4   ar
    37     7     9   ar
    38    19     4   ar
    39    19    26   ar
    40     9    26   ar
