@<TRIPOS>MOLECULE
3l0d_NAD_A_1.pdb
 44 48 0 0 0
SMALL
GASTEIGER

@<TRIPOS>ATOM
      1  PA        30.8730   18.9510  -26.4320 P.3   336  NAD336      0.2189
      2  O1A       30.4030   17.6810  -27.1120 O.2   336  NAD336     -0.5170
      3  O2A       32.1730   19.5520  -26.9400 O.3   336  NAD336     -0.4371
      4  O5B       29.7490   20.1120  -26.5070 O.3   336  NAD336     -0.3112
      5  C5B       30.0860   21.4710  -26.8270 C.3   336  NAD336      0.1813
      6  C4B       29.1950   21.9210  -27.9840 C.3   336  NAD336      0.1821
      7  O4B       29.0830   23.3430  -28.0630 O.3   336  NAD336     -0.3135
      8  C3B       29.7070   21.4290  -29.3380 C.3   336  NAD336      0.2184
      9  O3B       28.5780   20.8490  -30.0040 O.3   336  NAD336     -0.2174
     10  C2B       30.2120   22.6650  -30.0740 C.3   336  NAD336      0.2570
     11  O2B       29.9750   22.6240  -31.4880 O.3   336  NAD336     -0.2130
     12  C1B       29.4370   23.7950  -29.3840 C.3   336  NAD336      0.3186
     13  N9A       30.1490   25.1080  -29.3420 N.pl3 336  NAD336     -0.1439
     14  C8A       31.4500   25.3590  -29.0990 C.3   336  NAD336      0.3377
     15  N7A       31.6310   26.7040  -29.1610 N.2   336  NAD336     -0.2095
     16  C5A       30.4370   27.2980  -29.4430 C.2   336  NAD336      0.2526
     17  C6A       29.9780   28.6140  -29.6320 C.2   336  NAD336      0.4393
     18  N6A       30.8010   29.6740  -29.5460 N.pl3 336  NAD336      0.2180
     19  N1A       28.6740   28.8650  -29.9060 N.2   336  NAD336      0.0021
     20  C2A       27.8000   27.8510  -30.0040 C.3   336  NAD336      0.5254
     21  N3A       28.2060   26.5790  -29.8320 N.2   336  NAD336     -0.0055
     22  C4A       29.5110   26.2730  -29.5560 C.2   336  NAD336      0.3518
     23  O3        31.0420   18.7480  -24.8100 O.3   336  NAD336     -0.2703
     24  PN        29.9610   18.1660  -23.7210 P.3   336  NAD336      0.2189
     25  O1N       30.4720   16.7910  -23.3510 O.3   336  NAD336     -0.4371
     26  O2N       28.5620   18.4030  -24.2700 O.2   336  NAD336     -0.5170
     27  O5D       30.0600   19.0700  -22.3710 O.3   336  NAD336     -0.3112
     28  C5D       29.5400   20.4080  -22.2990 C.3   336  NAD336      0.1813
     29  C4D       29.6340   20.9650  -20.8790 C.3   336  NAD336      0.1799
     30  O4D       28.9400   20.0750  -20.0020 O.3   336  NAD336     -0.3327
     31  C3D       31.0680   21.0660  -20.3570 C.3   336  NAD336      0.2158
     32  O3D       31.3380   22.3870  -19.8820 O.3   336  NAD336     -0.2175
     33  C2D       31.1870   20.0690  -19.2140 C.3   336  NAD336      0.2309
     34  O2D       31.8120   20.6600  -18.0750 O.3   336  NAD336     -0.2158
     35  C1D       29.7490   19.7210  -18.8610 C.3   336  NAD336      0.2263
     36  N1N       29.5490   18.3170  -18.4400 N.pl3 336  NAD336     -0.2787
     37  C2N       29.7280   17.2850  -19.2960 C.3   336  NAD336      0.1244
     38  C3N       29.5210   15.9580  -18.9010 C.2   336  NAD336      0.0544
     39  C7N       29.7510   14.8050  -19.8560 C.2   336  NAD336      0.2818
     40  O7N       30.2480   13.6340  -19.4380 O.2   336  NAD336     -0.2670
     41  N7N       29.4920   14.9490  -21.1410 N.am  336  NAD336     -0.0839
     42  C4N       29.1270   15.7270  -17.5890 C.2   336  NAD336      0.0033
     43  C5N       28.9470   16.8020  -16.7280 C.2   336  NAD336      0.0157
     44  C6N       29.1610   18.0940  -17.1780 C.2   336  NAD336      0.0633
@<TRIPOS>BOND
     1    11    10    1
     2    10    12    1
     3    10     8    1
     4    20    19    1
     5    20    21    1
     6     9     8    1
     7    19    17    2
     8    21    22    2
     9    17    18    1
    10    17    16    1
    11    22    16    1
    12    22    13    1
    13    16    15    2
    14    12    13    1
    15    12     7    1
    16    13    14    1
    17     8     6    1
    18    15    14    1
    19     7     6    1
    20     6     5    1
    21     2     1    2
    22     3     1    1
    23     5     4    1
    24     4     1    1
    25     1    23    1
    26    23    24    1
    27    26    24    2
    28    24    25    1
    29    24    27    1
    30    27    28    1
    31    28    29    1
    32    41    39   am
    33    29    31    1
    34    29    30    1
    35    31    32    1
    36    31    33    1
    37    30    35    1
    38    39    40    2
    39    39    38    1
    40    37    38    1
    41    37    36    1
    42    33    35    1
    43    33    34    1
    44    38    42    2
    45    35    36    1
    46    36    44    1
    47    42    43    1
    48    44    43    2
