@<TRIPOS>MOLECULE
3l0e_G58_A_1.pdb
 36 39 0 0 0
SMALL
GASTEIGER

@<TRIPOS>ATOM
      1  C1         9.9750  -29.3050   -4.6910 C.3     1  G581        0.0916
      2  F1        15.1080  -34.8390   -5.4830 F       1  G581       -0.2044
      3  N1        10.2330  -30.6340   -4.1750 N.3     1  G581       -0.2443
      4  O1        12.1660  -32.3750   -0.7680 O.2     1  G581       -0.1516
      5  S1        11.6480  -33.3010   -1.7660 S.O2    1  G581        0.0776
      6 CL1        15.8840  -33.8540   -0.6030 Cl      1  G581       -0.0825
      7  C2         9.8280  -31.8050   -4.7520 C.3     1  G581        0.2025
      8  N2        10.2220  -32.8430   -4.0520 N.2     1  G581       -0.2362
      9  O2        10.5200  -34.1590   -1.4570 O.2     1  G581       -0.1516
     10  S2        14.1060  -44.0490   -4.3380 S.O2    1  G581        0.0104
     11  C3        10.9110  -32.3020   -2.9920 C.2     1  G581        0.1931
     12  N3        12.9630  -34.2070   -2.4950 N.3     1  G581       -0.1454
     13  O3        15.0270  -44.8380   -5.1370 O.2     1  G581       -0.1686
     14  C4        10.9310  -30.9260   -3.0420 C.3     1  G581        0.1408
     15  O4        13.4850  -44.5810   -3.1360 O.2     1  G581       -0.1686
     16  C5        12.4590  -35.3040   -3.3680 C.3     1  G581        0.1225
     17  C6        13.1820  -36.6040   -3.2700 C.ar    1  G581       -0.0045
     18  C7        13.9010  -36.9920   -2.1600 C.ar    1  G581       -0.0029
     19  C8        14.5530  -38.2030   -2.1410 C.ar    1  G581       -0.0003
     20  C9        14.4900  -39.0460   -3.2250 C.ar    1  G581        0.0000
     21  C10       13.7640  -38.6520   -4.3260 C.ar    1  G581       -0.0003
     22  C11       13.1180  -37.4410   -4.3540 C.ar    1  G581       -0.0029
     23  C12       15.1450  -40.3350   -3.2390 C.ar    1  G581        0.0013
     24  C13       16.4410  -40.5170   -2.8060 C.ar    1  G581        0.0001
     25  C14       17.0300  -41.7630   -2.8310 C.ar    1  G581        0.0013
     26  C15       16.3330  -42.8600   -3.2920 C.ar    1  G581        0.0183
     27  C16       15.0420  -42.6620   -3.7380 C.ar    1  G581        0.1057
     28  C17       14.4440  -41.4230   -3.7130 C.ar    1  G581        0.0183
     29  C18       12.7380  -43.4380   -5.2570 C.3     1  G581        0.1816
     30  C19       14.1880  -33.5040   -3.0990 C.3     1  G581        0.1256
     31  C20       15.4540  -34.3610   -3.2000 C.ar    1  G581        0.0336
     32  C21       15.8410  -34.9860   -4.3710 C.ar    1  G581        0.1383
     33  C22       16.9670  -35.7810   -4.4420 C.ar    1  G581        0.0294
     34  C23       17.7590  -35.9740   -3.3330 C.ar    1  G581        0.0032
     35  C24       17.4100  -35.3630   -2.1570 C.ar    1  G581        0.0113
     36  C25       16.2770  -34.5810   -2.1120 C.ar    1  G581        0.0572
@<TRIPOS>BOND
     1     2    32    1
     2    29    10    1
     3    13    10    2
     4     7     3    1
     5     7     8    1
     6     1     3    1
     7    33    32   ar
     8    33    34   ar
     9    32    31   ar
    10    22    21   ar
    11    22    17   ar
    12    10    27    1
    13    10    15    2
    14    21    20   ar
    15     3    14    1
    16     8    11    2
    17    27    28   ar
    18    27    26   ar
    19    28    23   ar
    20    16    17    1
    21    16    12    1
    22    34    35   ar
    23    26    25   ar
    24    17    18   ar
    25    23    20    1
    26    23    24   ar
    27    20    19   ar
    28    31    30    1
    29    31    36   ar
    30    30    12    1
    31    14    11    1
    32    11     5    1
    33    25    24   ar
    34    12     5    1
    35    18    19   ar
    36    35    36   ar
    37    36     6    1
    38     5     9    2
    39     5     4    2
