@<TRIPOS>MOLECULE
3l0h_GTX_A_1.pdb
 26 25 0 0 0
SMALL
GASTEIGER

@<TRIPOS>ATOM
      1  N1        26.0420   26.4690   12.9160 N.3   5100  GTX5100    -0.1208
      2  CA1       27.0490   27.4340   12.4660 C.3   5100  GTX5100     0.1948
      3  C1        27.6610   26.9250   11.1620 C.2   5100  GTX5100     0.3819
      4  O11       27.9490   27.7170   10.2500 O.co2 5100  GTX5100    -0.2441
      5  O12       27.8240   25.7000   11.0230 O.co2 5100  GTX5100    -0.2441
      6  CB1       28.1790   27.7200   13.4270 C.3   5100  GTX5100     0.0402
      7  CG1       28.6820   29.1320   13.1990 C.3   5100  GTX5100     0.0889
      8  CD1       29.8740   29.3480   14.0840 C.2   5100  GTX5100     0.2418
      9  OE1       30.1060   28.4560   15.1650 O.2   5100  GTX5100    -0.2733
     10  N2        30.6620   30.3830   13.7950 N.am  5100  GTX5100    -0.1969
     11  CA2       31.6770   30.8280   14.7280 C.3   5100  GTX5100     0.1834
     12  C2        31.4510   32.2320   15.1150 C.2   5100  GTX5100     0.2626
     13  O2        31.0260   33.0610   14.0780 O.2   5100  GTX5100    -0.2714
     14  CB2       33.0600   30.8680   14.1460 C.3   5100  GTX5100     0.0886
     15  SG2       33.6480   29.2430   13.7200 S.3   5100  GTX5100    -0.1379
     16  C1S       34.4350   29.1720   15.3410 C.3   5100  GTX5100     0.0576
     17  C2S       35.0230   27.7680   15.3850 C.3   5100  GTX5100     0.0116
     18  C3S       36.5430   27.7710   15.5040 C.3   5100  GTX5100     0.0009
     19  C4S       37.0530   26.3370   15.5430 C.3   5100  GTX5100     0.0000
     20  C5S       38.4830   26.3260   16.0640 C.3   5100  GTX5100     0.0000
     21  C6S       38.4590   26.3010   17.6020 C.3   5100  GTX5100     0.0000
     22  N3        31.6400   32.6200   16.3900 N.am  5100  GTX5100    -0.1917
     23  CA3       31.1900   33.9420   16.7750 C.3   5100  GTX5100     0.2285
     24  C3        29.8750   33.9340   17.5630 C.2   5100  GTX5100     0.3865
     25  O31       29.5530   34.9480   18.2310 O.co2 5100  GTX5100    -0.2437
     26  O32       29.1180   32.9560   17.5900 O.co2 5100  GTX5100    -0.2437
@<TRIPOS>BOND
     1     4     3   ar
     2     5     3   ar
     3     3     2    1
     4     2     1    1
     5     2     6    1
     6     7     6    1
     7     7     8    1
     8    15    14    1
     9    15    16    1
    10    10     8   am
    11    10    11    1
    12    13    12    2
    13     8     9    2
    14    14    11    1
    15    11    12    1
    16    12    22   am
    17    16    17    1
    18    17    18    1
    19    18    19    1
    20    19    20    1
    21    20    21    1
    22    22    23    1
    23    23    24    1
    24    24    26   ar
    25    24    25   ar
