@<TRIPOS>MOLECULE
3l0j_HC9_A_1.pdb
 29 32 0 0 0
SMALL
GASTEIGER

@<TRIPOS>ATOM
      1  C1       -24.1390   -0.5470  -22.8010 C.3     1  HC91        0.0063
      2  O1       -22.9790    2.9470  -23.7220 O.3     1  HC91       -0.2228
      3  C2       -23.7700    0.9370  -22.7090 C.3     1  HC91        0.0335
      4  O2       -26.7050  -10.3080  -24.1820 O.3     1  HC91       -0.2232
      5  C3       -23.0090    1.5110  -23.9030 C.3     1  HC91        0.1560
      6  C4       -23.6290    1.0840  -25.2570 C.3     1  HC91        0.0545
      7  C5       -23.8210   -0.4420  -25.2370 C.2     1  HC91       -0.0466
      8  C6       -23.1780   -1.2220  -26.1340 C.2     1  HC91       -0.0345
      9  C7       -23.2850   -2.7310  -26.1780 C.3     1  HC91        0.0254
     10  C8       -24.5300   -3.2480  -25.4610 C.3     1  HC91        0.0046
     11  C9       -24.6380   -2.5600  -24.0860 C.3     1  HC91        0.0038
     12  C10      -24.7170   -1.0280  -24.1430 C.3     1  HC91        0.0150
     13  C11      -25.7510   -3.1500  -23.1980 C.3     1  HC91        0.0003
     14  C12      -25.6360   -4.6680  -23.0230 C.3     1  HC91        0.0000
     15  C13      -25.6760   -5.3310  -24.4010 C.3     1  HC91        0.0001
     16  C14      -24.4800   -4.7720  -25.1950 C.3     1  HC91        0.0003
     17  C15      -24.2720   -5.7360  -26.3590 C.3     1  HC91        0.0000
     18  C16      -24.7310   -7.0840  -25.8000 C.3     1  HC91        0.0001
     19  C17      -25.2950   -6.8290  -24.3930 C.3     1  HC91        0.0024
     20  C18      -27.0290   -5.0710  -25.0850 C.3     1  HC91        0.0000
     21  C19      -26.1650   -0.5550  -24.3210 C.3     1  HC91        0.0040
     22  C20      -26.3250   -7.8970  -23.9760 C.3     1  HC91        0.0304
     23  C21      -26.9180   -7.7820  -22.5550 C.3     1  HC91        0.0026
     24  C22      -25.7080   -9.2930  -24.2120 C.3     1  HC91        0.1519
     25  C23      -24.6070   -9.6990  -23.2320 C.3     1  HC91        0.0329
     26  C24      -23.6740  -10.6650  -23.9420 C.3     1  HC91        0.0026
     27  C25      -22.8090  -11.5120  -23.0030 C.3     1  HC91        0.0001
     28  C26      -22.0010  -12.4770  -23.8580 C.3     1  HC91        0.0000
     29  C27      -21.8980  -10.6730  -22.0900 C.3     1  HC91        0.0000
@<TRIPOS>BOND
     1    17    18    1
     2    17    16    1
     3     9     8    1
     4     9    10    1
     5     8     7    2
     6    18    19    1
     7    10    16    1
     8    10    11    1
     9     6     7    1
    10     6     5    1
    11     7    12    1
    12    16    15    1
    13    20    15    1
    14    15    19    1
    15    15    14    1
    16    19    22    1
    17    21    12    1
    18    24     4    1
    19    24    22    1
    20    24    25    1
    21    12    11    1
    22    12     1    1
    23    11    13    1
    24    22    23    1
    25    26    25    1
    26    26    27    1
    27     5     2    1
    28     5     3    1
    29    28    27    1
    30    13    14    1
    31    27    29    1
    32     1     3    1
