@<TRIPOS>MOLECULE
3l0k_6AU_A_1.pdb
 24 25 0 0 0
SMALL
GASTEIGER

@<TRIPOS>ATOM
      1  O3P       27.3000  -10.7780   13.7970 O.2   257  6AU257     -0.2224
      2  P         26.2810  -11.0710   14.8680 P.3   257  6AU257      0.5327
      3  O1P       25.0500  -11.7260   14.3420 O.3   257  6AU257     -0.1145
      4  O2P       26.9060  -11.8180   16.0100 O.3   257  6AU257     -0.1145
      5  O5'       25.9170   -9.6650   15.5490 O.3   257  6AU257     -0.2675
      6  C5'       25.0820   -8.7090   14.9240 C.3   257  6AU257      0.1859
      7  C4'       25.0810   -7.4660   15.8160 C.3   257  6AU257      0.1801
      8  C3'       24.2530   -7.6510   17.0810 C.3   257  6AU257      0.2158
      9  C2'       22.9130   -7.0860   16.7050 C.3   257  6AU257      0.2316
     10  O2'       22.2370   -6.5990   17.8580 O.3   257  6AU257     -0.2157
     11  C1'       23.2630   -6.0000   15.6930 C.3   257  6AU257      0.2361
     12  O4'       24.5330   -6.3440   15.1190 O.3   257  6AU257     -0.3322
     13  N1        22.2750   -5.7470   14.6140 N.am  257  6AU257     -0.1988
     14  C6        21.6630   -4.4710   14.4440 C.3   257  6AU257      0.1352
     15  C7        22.4390   -3.2070   14.5580 C.3   257  6AU257      0.1720
     16  C72       23.9140   -3.2360   14.4710 C.3   257  6AU257      0.0373
     17  O71       21.8140   -2.0790   14.6780 O.3   257  6AU257     -0.2213
     18  C5        20.5360   -4.3640   13.5560 C.3   257  6AU257      0.1587
     19  C4        20.2000   -5.4600   12.7960 C.1   257  6AU257      0.1941
     20  O4        19.2790   -5.3850   11.9480 O.2   257  6AU257     -0.2133
     21  N3        20.8770   -6.6020   12.9120 N.2   257  6AU257     -0.2497
     22  C2        21.8730   -6.7940   13.7890 C.1   257  6AU257      0.2802
     23  O2        22.4110   -7.9120   13.8480 O.2   257  6AU257     -0.1922
     24  O3'       24.8430   -6.9230   18.1810 O.3   257  6AU257     -0.2175
@<TRIPOS>BOND
     1    20    19    2
     2    19    21    2
     3    19    18    1
     4    21    22    2
     5    18    14    1
     6    22    23    2
     7    22    13   am
     8     1     2    2
     9     3     2    1
    10    14    15    1
    11    14    13    1
    12    16    15    1
    13    15    17    1
    14    13    11    1
    15     2     5    1
    16     2     4    1
    17     6     5    1
    18     6     7    1
    19    12    11    1
    20    12     7    1
    21    11     9    1
    22     7     8    1
    23     9     8    1
    24     9    10    1
    25     8    24    1
