@<TRIPOS>MOLECULE
3l0l_HC3_A_1.pdb
 29 32 0 0 0
SMALL
GASTEIGER

@<TRIPOS>ATOM
      1  C18      -24.7130   -4.9120    7.4670 C.3   1001  HC31001     0.0000
      2  C13      -23.3550   -5.5010    7.0400 C.3   1001  HC31001     0.0000
      3  C12      -23.4520   -7.0360    6.9330 C.3   1001  HC31001     0.0000
      4  C11      -23.7510   -7.6240    8.3390 C.3   1001  HC31001     0.0003
      5  C9       -22.7040   -7.2370    9.4130 C.3   1001  HC31001     0.0038
      6  C10      -23.0130   -7.8860   10.7810 C.3   1001  HC31001     0.0150
      7  C19      -24.4600   -7.5800   11.2760 C.3   1001  HC31001     0.0040
      8  C1       -22.8270   -9.4100   10.6470 C.3   1001  HC31001     0.0063
      9  C2       -22.7760  -10.1610   11.9970 C.3   1001  HC31001     0.0335
     10  C3       -21.7010   -9.5880   12.9400 C.3   1001  HC31001     0.1560
     11  O1       -21.8710  -10.2030   14.2120 O.3   1001  HC31001    -0.2228
     12  C4       -21.8830   -8.0900   13.1930 C.3   1001  HC31001     0.0545
     13  C5       -22.0450   -7.4160   11.8690 C.2   1001  HC31001    -0.0466
     14  C6       -21.3640   -6.3320   11.4730 C.2   1001  HC31001    -0.0345
     15  C7       -21.1990   -5.3460   10.3570 C.3   1001  HC31001     0.0254
     16  C8       -22.4020   -5.6730    9.4630 C.3   1001  HC31001     0.0046
     17  C14      -22.2080   -5.1890    8.0190 C.3   1001  HC31001     0.0003
     18  C15      -21.9230   -3.7020    7.7990 C.3   1001  HC31001     0.0000
     19  C16      -22.1310   -3.5240    6.2890 C.3   1001  HC31001     0.0000
     20  C17      -22.8350   -4.7990    5.7710 C.3   1001  HC31001     0.0000
     21  C20      -23.8040   -4.4670    4.6180 C.3   1001  HC31001     0.0000
     22  C21      -24.5500   -5.6990    4.0860 C.3   1001  HC31001     0.0000
     23  C22      -23.1190   -3.7500    3.4180 C.3   1001  HC31001     0.0001
     24  C23      -21.8590   -4.4640    2.8870 C.3   1001  HC31001     0.0025
     25  C24      -21.1540   -3.6170    1.8070 C.3   1001  HC31001     0.0304
     26  C25      -19.9830   -4.2850    1.0690 C.3   1001  HC31001     0.1268
     27  C26      -20.3270   -5.6590    0.5020 C.3   1001  HC31001     0.0329
     28  C27      -19.5780   -3.3670   -0.0890 C.3   1001  HC31001     0.0329
     29  O2       -18.8800   -4.3790    1.9820 O.3   1001  HC31001    -0.2257
@<TRIPOS>BOND
     1    28    26    1
     2    27    26    1
     3    26    25    1
     4    26    29    1
     5    25    24    1
     6    24    23    1
     7    23    21    1
     8    22    21    1
     9    21    20    1
    10    20    19    1
    11    20     2    1
    12    19    18    1
    13     3     2    1
    14     3     4    1
    15     2     1    1
    16     2    17    1
    17    18    17    1
    18    17    16    1
    19     4     5    1
    20     5    16    1
    21     5     6    1
    22    16    15    1
    23    15    14    1
    24     8     6    1
    25     8     9    1
    26     6     7    1
    27     6    13    1
    28    14    13    2
    29    13    12    1
    30     9    10    1
    31    10    12    1
    32    10    11    1
