@<TRIPOS>MOLECULE
3l0n_S5P_A_1.pdb
 22 23 0 0 0
SMALL
GASTEIGER

@<TRIPOS>ATOM
      1  O4         2.7070    7.6030   21.6070 O.2   257  S5P257     -0.2130
      2  C4         3.1710    7.7110   22.8660 C.1   257  S5P257      0.1987
      3  C5         3.4720    6.5940   23.6310 C.3   257  S5P257      0.1847
      4  C6         3.8960    6.7750   24.9690 C.2   257  S5P257      0.0962
      5  S22        4.0930    5.3500   25.9280 S.2   257  S5P257     -0.0371
      6  N3         3.2800    8.9270   23.3910 N.2   257  S5P257     -0.2491
      7  C2         3.6850    9.0920   24.6730 C.1   257  S5P257      0.2844
      8  O2         3.7750   10.3300   25.1310 O.2   257  S5P257     -0.1918
      9  N1         4.0550    8.0250   25.4800 N.am  257  S5P257     -0.1753
     10  C1'        4.5780    8.2250   26.8600 C.3   257  S5P257      0.2402
     11  O4'        3.6050    8.7060   27.7460 O.3   257  S5P257     -0.3319
     12  C2'        5.7210    9.2630   26.8730 C.3   257  S5P257      0.2319
     13  O2'        7.0870    8.8330   26.7100 O.3   257  S5P257     -0.2157
     14  C3'        5.5950    9.8760   28.2420 C.3   257  S5P257      0.2158
     15  O3'        6.4200    9.1540   29.1550 O.3   257  S5P257     -0.2175
     16  C4'        4.1170    9.7180   28.5630 C.3   257  S5P257      0.1801
     17  C5'        3.3680   10.9900   28.1730 C.3   257  S5P257      0.1859
     18  O5'        3.6580   11.9750   29.1660 O.3   257  S5P257     -0.2675
     19  P          2.8200   13.3350   29.2270 P.3   257  S5P257      0.5327
     20  O3P        3.6480   14.0650   30.2120 O.3   257  S5P257     -0.1145
     21  O1P        2.8060   14.0570   27.8800 O.2   257  S5P257     -0.2224
     22  O2P        1.4720   13.0080   29.7390 O.3   257  S5P257     -0.1145
@<TRIPOS>BOND
     1     1     2    2
     2     2     6    2
     3     2     3    1
     4     6     7    2
     5     3     4    1
     6     7     8    2
     7     7     9   am
     8     4     9    1
     9     4     5    2
    10     9    10    1
    11    13    12    1
    12    10    12    1
    13    10    11    1
    14    12    14    1
    15    11    16    1
    16    21    19    2
    17    17    16    1
    18    17    18    1
    19    14    16    1
    20    14    15    1
    21    18    19    1
    22    19    22    1
    23    19    20    1
