@<TRIPOS>MOLECULE
3l0q_XUL_A_1.pdb
 10 9 0 0 0
SMALL
GASTEIGER

@<TRIPOS>ATOM
      1  C1       -15.0370  -25.8960  -16.5150 C.3   553  XUL553      0.2486
      2  C2       -15.4800  -27.0480  -17.4060 C.2   553  XUL553      0.2165
      3  C3       -16.7660  -26.7180  -18.1410 C.3   553  XUL553      0.2440
      4  C4       -17.0100  -27.7500  -19.2330 C.3   553  XUL553      0.2221
      5  C5       -18.4870  -28.1310  -19.3200 C.3   553  XUL553      0.2179
      6  O1       -15.9180  -25.8590  -15.3940 O.3   553  XUL553     -0.2118
      7  O2       -15.3090  -28.2070  -17.0740 O.2   553  XUL553     -0.2905
      8  O3       -17.7990  -26.8340  -17.1730 O.3   553  XUL553     -0.2122
      9  O4       -16.5980  -27.1940  -20.4600 O.3   553  XUL553     -0.2171
     10  O5       -18.6760  -29.0410  -20.3910 O.3   553  XUL553     -0.2175
@<TRIPOS>BOND
     1     9     4    1
     2    10     5    1
     3     5     4    1
     4     4     3    1
     5     3     2    1
     6     3     8    1
     7     2     7    2
     8     2     1    1
     9     1     6    1
