@<TRIPOS>MOLECULE
3l0t_INN_A_1.pdb
 29 28 0 0 0
SMALL
GASTEIGER

@<TRIPOS>ATOM
      1  N1         6.7080    6.2070   24.1600 N.am  485  INN485     -0.1978
      2  C2         8.6630    8.0030   27.0680 C.3   485  INN485      0.0000
      3  O2         8.0380    3.5970   24.6840 O.2   485  INN485     -0.2715
      4  N3         6.3260    0.1630   24.4390 N.am  485  INN485     -0.2024
      5  C4         5.8970    7.1910   24.7200 C.2   485  INN485      0.2417
      6  O4         6.5560   12.8630   24.8170 O.3   485  INN485     -0.4026
      7  C5         6.2260    4.9050   23.7570 C.3   485  INN485      0.1726
      8  C6         6.5030    4.7610   22.2130 C.3   485  INN485      0.0270
      9  C8         5.8660    5.9130   21.3390 C.3   485  INN485      0.0022
     10  C9         8.0150    4.7460   21.8220 C.3   485  INN485      0.0022
     11  C10        6.8120    3.7970   24.6060 C.2   485  INN485      0.2616
     12  C11        6.1020    1.8960   26.1210 C.3   485  INN485      0.1728
     13  C12        5.4480    1.8030   27.4990 C.3   485  INN485      0.0334
     14  N          5.8940   11.6430   24.6270 N.am  485  INN485     -0.2030
     15  C          6.6250   10.8270   23.8320 C.2   485  INN485      0.0873
     16  O          7.7180   11.0530   23.2900 O.2   485  INN485     -0.5395
     17  C0         6.0400    9.4390   23.8560 C.3   485  INN485      0.0603
     18  CA         6.6630    8.5110   24.9710 C.3   485  INN485      0.0845
     19  CB         6.4460    9.0220   26.3800 C.3   485  INN485      0.0095
     20  C1         7.1910    8.1130   27.3560 C.3   485  INN485      0.0005
     21  C3         6.8470    8.4010   28.8680 C.3   485  INN485      0.0000
     22  O1         4.6960    7.1090   24.9610 O.2   485  INN485     -0.2733
     23  C7         5.8040    3.4470   21.7750 C.3   485  INN485      0.0022
     24  N2         5.8070    3.0610   25.2570 N.am  485  INN485     -0.1963
     25  C13        5.4780    0.8390   25.2830 C.2   485  INN485      0.2613
     26  O3         4.2870    0.6630   25.4020 O.2   485  INN485     -0.2715
     27  C14        5.8570   -0.8930   23.5680 C.3   485  INN485      0.1356
     28  C15        6.9400   -1.5290   22.6880 C.3   485  INN485      0.1327
     29  N4         6.3170   -1.8390   21.3960 N.3   485  INN485     -0.1294
@<TRIPOS>BOND
     1     9     8    1
     2    29    28    1
     3    23     8    1
     4    10     8    1
     5     8     7    1
     6    28    27    1
     7    16    15    2
     8    27     4    1
     9     7     1    1
    10     7    11    1
    11    15    17    1
    12    15    14   am
    13    17    18    1
    14     1     5   am
    15     4    25   am
    16    11     3    2
    17    11    24   am
    18    14     6    1
    19     5    22    2
    20     5    18    1
    21    18    19    1
    22    24    12    1
    23    25    26    2
    24    25    12    1
    25    12    13    1
    26    19    20    1
    27     2    20    1
    28    20    21    1
