@<TRIPOS>MOLECULE
3l0t_Z94_B_1.pdb
 17 18 0 0 0
SMALL
GASTEIGER

@<TRIPOS>ATOM
      1  C1        49.6150   33.6900   37.7050 C.3   485  Z94485      0.2567
      2  C2        49.2570   33.7190   36.2340 C.ar  485  Z94485      0.0177
      3  C3        51.0100   33.3740   38.1370 C.1   485  Z94485      0.2197
      4  N4        49.2250   34.7760   38.5680 N.2   485  Z94485     -0.1549
      5  C5        50.0440   32.9780   35.2890 C.ar  485  Z94485      0.0001
      6  C6        48.1240   34.4210   35.7420 C.ar  485  Z94485      0.0001
      7  N7        51.3040   34.2200   39.1590 N.2   485  Z94485     -0.2445
      8  O8        51.7110   32.4980   37.6590 O.2   485  Z94485     -0.2110
      9  C9        50.2780   35.1090   39.4150 C.1   485  Z94485      0.3076
     10  C10       49.7390   32.9330   33.9290 C.ar  485  Z94485      0.0164
     11  C11       47.8040   34.3800   34.3600 C.ar  485  Z94485      0.0164
     12  O12       50.2800   36.0400   40.2100 O.2   485  Z94485     -0.1881
     13  C13       48.6200   33.6480   33.4720 C.ar  485  Z94485      0.0733
     14  N14       48.3670   33.5410   32.0850 N.am  485  Z94485     -0.1792
     15  C15       47.6310   34.4150   31.3020 C.2   485  Z94485      0.2461
     16  C16       47.6170   33.9420   29.8690 C.3   485  Z94485      0.0968
     17  O17       47.0540   35.4450   31.6370 O.2   485  Z94485     -0.2730
@<TRIPOS>BOND
     1    16    15    1
     2    15    17    2
     3    15    14   am
     4    14    13    1
     5    13    10   ar
     6    13    11   ar
     7    10     5   ar
     8    11     6   ar
     9     5     2   ar
    10     6     2   ar
    11     2     1    1
    12     8     3    2
    13     1     3    1
    14     1     4    1
    15     3     7    2
    16     4     9    2
    17     7     9    2
    18     9    12    2
