@<TRIPOS>MOLECULE
3l0v_724_A_1.pdb
 21 23 0 0 0
SMALL
GASTEIGER

@<TRIPOS>ATOM
      1  N1         6.2900    8.8290   23.9920 N.am  485  724485     -0.1744
      2  N2         7.7050    8.7080   24.1490 N.2   485  724485     -0.1793
      3  C3         5.5620    8.8450   25.1420 C.2   485  724485      0.2691
      4  N4         7.6460   11.7440   23.3250 N.2   485  724485     -0.2449
      5  C5         7.3290   10.9500   22.2400 C.1   485  724485      0.2141
      6  C6         5.8300   10.5170   22.3130 C.3   485  724485      0.2207
      7  N7         5.3970   11.3740   23.4450 N.2   485  724485     -0.1609
      8  C8         6.4560   12.0930   24.0150 C.1   485  724485      0.3072
      9  O9         6.4030   12.9710   24.8730 O.2   485  724485     -0.1881
     10  O10        8.1130   10.5040   21.4200 O.2   485  724485     -0.2114
     11  C11        5.0900   10.8890   21.0080 C.3   485  724485      0.0454
     12  C12        5.7180    8.9770   22.6910 C.3   485  724485      0.1597
     13  C13        6.5750    8.7710   26.1830 C.2   485  724485      0.0736
     14  C14        7.8350    8.6870   25.5340 C.2   485  724485      0.0855
     15  C15        9.0210    8.5940   26.2540 C.3   485  724485      0.0766
     16  C16        8.8980    8.6060   27.6310 C.2   485  724485      0.0171
     17  C17        7.6060    8.6980   28.2670 C.2   485  724485      0.1351
     18  C18        6.4290    8.7830   27.5240 C.2   485  724485      0.0424
     19  O19        4.3420    8.9300   25.2740 O.2   485  724485     -0.2681
     20  O20        7.3530    8.7050   29.5950 O.2   485  724485     -0.4717
     21  C21        8.3710    8.2080   30.4920 C.3   485  724485      0.2525
@<TRIPOS>BOND
     1    11     6    1
     2    10     5    2
     3     5     6    1
     4     5     4    2
     5     6    12    1
     6     6     7    1
     7    12     1    1
     8     4     8    2
     9     7     8    2
    10     1     2    1
    11     1     3   am
    12     8     9    2
    13     2    14    2
    14     3    19    2
    15     3    13    1
    16    14    13    1
    17    14    15    1
    18    13    18    2
    19    15    16    1
    20    18    17    1
    21    16    17    2
    22    17    20    1
    23    20    21    1
