@<TRIPOS>MOLECULE
3l13_JZW_A_1.pdb
 34 38 0 0 0
SMALL
GASTEIGER

@<TRIPOS>ATOM
      1  C1        22.7580   64.9390   20.9940 C.2     1  JZW1        0.0331
      2  N1        24.2270   63.1360   21.0200 N.2     1  JZW1       -0.3429
      3  O1        19.4150   59.7320   24.4770 O.3     1  JZW1       -0.3501
      4  S1        20.6810   63.9490   22.0010 S.3     1  JZW1       -0.1017
      5  C2        21.5040   65.2300   21.3210 C.2     1  JZW1        0.0223
      6  N2        23.3030   61.0680   21.9590 N.2     1  JZW1       -0.3279
      7  O2        18.4570   66.8960   15.5480 O.2     1  JZW1       -0.1572
      8  S2        17.8510   67.7280   16.5590 S.O2    1  JZW1        0.0457
      9  C3        23.0370   63.6700   21.2720 C.2     1  JZW1        0.1397
     10  N3        21.1960   60.9260   22.7580 N.pl3   1  JZW1       -0.2801
     11  O3        16.5180   67.2330   16.8000 O.2     1  JZW1       -0.1572
     12  C4        22.0360   62.9850   21.8300 C.3     1  JZW1        0.1719
     13  N4        20.0780   66.9290   20.0390 N.3     1  JZW1       -0.2660
     14  O4        27.7650   58.4150   23.9810 O.3     1  JZW1       -0.2152
     15  C5        24.4170   61.7480   21.3560 C.1     1  JZW1        0.1385
     16  N5        18.6650   67.5690   17.8490 N.3     1  JZW1       -0.1565
     17  C6        22.1450   61.6770   22.1790 C.2     1  JZW1        0.1896
     18  C7        25.6940   61.0510   21.1600 C.ar    1  JZW1        0.0854
     19  C8        19.7590   60.9610   22.4810 C.3     1  JZW1        0.1250
     20  C9        19.0720   60.9510   23.8370 C.3     1  JZW1        0.1636
     21  C10       20.7970   59.6910   24.7900 C.3     1  JZW1        0.1636
     22  C11       21.6150   59.7430   23.5160 C.3     1  JZW1        0.1250
     23  C12       20.9300   66.6190   21.1690 C.3     1  JZW1        0.1055
     24  C13       19.7850   68.3450   19.8590 C.3     1  JZW1        0.0918
     25  C14       19.5430   68.6160   18.3730 C.3     1  JZW1        0.1128
     26  C15       19.0410   66.2010   18.1460 C.3     1  JZW1        0.1128
     27  C16       19.0050   66.0420   19.6520 C.3     1  JZW1        0.0918
     28  C17       17.7580   69.3020   15.9980 C.3     1  JZW1        0.1960
     29  C18       26.6410   61.5140   20.2660 C.ar    1  JZW1        0.0120
     30  C19       27.8390   60.8360   20.1350 C.ar    1  JZW1        0.0005
     31  C20       28.0990   59.7170   20.9090 C.ar    1  JZW1       -0.0017
     32  C21       27.1540   59.2670   21.8190 C.ar    1  JZW1        0.0113
     33  C22       25.9540   59.9370   21.9460 C.ar    1  JZW1        0.0103
     34  C23       27.4100   58.0430   22.6630 C.3     1  JZW1        0.2086
@<TRIPOS>BOND
     1     7     8    2
     2    28     8    1
     3     8    11    2
     4     8    16    1
     5    16    26    1
     6    16    25    1
     7    26    27    1
     8    25    24    1
     9    27    13    1
    10    24    13    1
    11    13    23    1
    12    30    29   ar
    13    30    31   ar
    14    29    18   ar
    15    31    32   ar
    16     1     9    1
    17     1     5    2
    18     2     9    2
    19     2    15    2
    20    18    15    1
    21    18    33   ar
    22    23     5    1
    23     9    12    1
    24     5     4    1
    25    15     6    2
    26    32    33   ar
    27    32    34    1
    28    12     4    1
    29    12    17    1
    30     6    17    2
    31    17    10    1
    32    19    10    1
    33    19    20    1
    34    34    14    1
    35    10    22    1
    36    22    21    1
    37    20     3    1
    38     3    21    1
