@<TRIPOS>MOLECULE
3l14_I7B_A_1.pdb
 16 16 0 0 0
SMALL
GASTEIGER

@<TRIPOS>ATOM
      1  C2        -5.0850    1.7520   14.7190 C.ar  301  I7B301      0.0423
      2  C1        -4.7770    2.7170   13.7550 C.ar  301  I7B301      0.1431
      3  C6        -5.1160    4.1260   14.0940 C.ar  301  I7B301      0.1086
      4  C5        -5.7320    4.3960   15.3070 C.ar  301  I7B301      0.0322
      5  C4        -6.0240    3.4020   16.2190 C.ar  301  I7B301      0.0777
      6  C3        -5.6630    2.0240   15.9080 C.ar  301  I7B301      0.1369
      7  S1        -4.0650    2.3080   12.2580 S.O2  301  I7B301      0.0948
      8  N1        -4.7560    2.8770   11.1520 N.3   301  I7B301      0.0393
      9  O2        -4.0890    0.7770   12.1650 O.2   301  I7B301     -0.1503
     10  O1        -2.5160    2.6760   12.3060 O.2   301  I7B301     -0.1503
     11  S2        -6.0770    0.6850   17.0020 S.O2  301  I7B301      0.0944
     12  N2        -5.5340   -0.6580   16.3600 N.3   301  I7B301      0.0392
     13  O3        -7.5280    0.6790   17.0120 O.2   301  I7B301     -0.1503
     14  O4        -5.4210    0.9720   18.2730 O.2   301  I7B301     -0.1503
     15  N3        -4.7920    5.2700   13.2050 N.pl3 301  I7B301     -0.1266
     16 CL1        -6.7370    3.7840   17.6380 Cl    301  I7B301     -0.0808
@<TRIPOS>BOND
     1     8     7    1
     2     9     7    2
     3     7    10    2
     4     7     2    1
     5    15     3    1
     6     2     3   ar
     7     2     1   ar
     8     3     4   ar
     9     1     6   ar
    10     4     5   ar
    11     6     5   ar
    12     6    11    1
    13     5    16    1
    14    12    11    1
    15    11    13    2
    16    11    14    2
