@<TRIPOS>MOLECULE
3l16_JZX_A_1.pdb
 33 37 0 0 0
SMALL
GASTEIGER

@<TRIPOS>ATOM
      1  C1        22.8870   62.1780   21.0220 C.1     1  JZX1        0.1401
      2  N1        22.6870   63.4650   20.6230 N.2     1  JZX1       -0.3429
      3  O1        18.0620   59.5570   24.0480 O.3     1  JZX1       -0.3501
      4  S1        19.0840   64.2360   21.6360 S.3     1  JZX1       -0.1017
      5  C2        20.6770   62.0060   21.8700 C.2     1  JZX1        0.1896
      6  N2        21.8990   61.4830   21.6420 N.2     1  JZX1       -0.3278
      7  O2        14.9580   66.2910   15.8760 O.2     1  JZX1       -0.1572
      8  S2        16.1120   67.1480   15.8470 S.O2    1  JZX1        0.0457
      9  C3        21.4770   64.0310   20.8530 C.2     1  JZX1        0.1397
     10  N3        18.3420   67.1750   19.5610 N.3     1  JZX1       -0.2660
     11  O3        16.8960   66.8800   14.6740 O.2     1  JZX1       -0.1572
     12  C4        20.4820   63.3180   21.4770 C.3     1  JZX1        0.1719
     13  N4        19.7440   61.2270   22.5940 N.pl3   1  JZX1       -0.2801
     14  C5        19.9090   65.4730   20.8620 C.2     1  JZX1        0.0223
     15  N5        17.0450   66.8380   17.1220 N.3     1  JZX1       -0.1565
     16  C6        21.1180   65.2320   20.5440 C.2     1  JZX1        0.0331
     17  N6        26.2730   61.3340   19.7140 N.ar    1  JZX1       -0.2252
     18  C7        19.2530   66.8380   20.6730 C.3     1  JZX1        0.1055
     19  N7        27.8120   59.6690   20.1990 N.pl3   1  JZX1       -0.1072
     20  C8        24.1920   61.4910   20.8130 C.ar    1  JZX1        0.1048
     21  C9        17.1910   66.2560   19.4710 C.3     1  JZX1        0.0918
     22  C10       16.2620   66.7550   18.3760 C.3     1  JZX1        0.1128
     23  C11       18.1300   67.8360   17.2340 C.3     1  JZX1        0.1128
     24  C12       19.0900   67.3370   18.2990 C.3     1  JZX1        0.0918
     25  C13       20.1880   59.8460   22.8920 C.3     1  JZX1        0.1250
     26  C14       19.4830   59.4210   24.1720 C.3     1  JZX1        0.1636
     27  C15       17.6240   60.8390   23.5730 C.3     1  JZX1        0.1636
     28  C16       18.3150   61.2450   22.2610 C.3     1  JZX1        0.1250
     29  C17       25.1020   61.9600   19.8820 C.ar    1  JZX1        0.1124
     30  C18       26.6170   60.2460   20.4270 C.ar    1  JZX1        0.1698
     31  C19       24.5300   60.3630   21.5720 C.ar    1  JZX1        0.0166
     32  C20       25.7520   59.7330   21.3770 C.ar    1  JZX1        0.0384
     33  C21       15.5770   68.7290   15.8400 C.3     1  JZX1        0.1960
@<TRIPOS>BOND
     1    11     8    2
     2    33     8    1
     3     8     7    2
     4     8    15    1
     5    15    23    1
     6    15    22    1
     7    23    24    1
     8    24    10    1
     9    22    21    1
    10    21    10    1
    11    10    18    1
    12    17    29   ar
    13    17    30   ar
    14    29    20   ar
    15    19    30    1
    16    30    32   ar
    17    16     9    1
    18    16    14    2
    19     2     9    2
    20     2     1    2
    21    18    14    1
    22    20     1    1
    23    20    31   ar
    24     9    12    1
    25    14     4    1
    26     1     6    2
    27    32    31   ar
    28    12     4    1
    29    12     5    1
    30     6     5    2
    31     5    13    1
    32    28    13    1
    33    28    27    1
    34    13    25    1
    35    25    26    1
    36    27     3    1
    37     3    26    1
