@<TRIPOS>MOLECULE
3l17_JZY_A_1.pdb
 34 38 0 0 0
SMALL
GASTEIGER

@<TRIPOS>ATOM
      1  C1        21.3600   62.6330   22.2260 C.2     1  JZY1        0.1896
      2  N2        22.5940   62.1710   21.9250 N.2     1  JZY1       -0.3278
      3  C3        23.5580   62.9360   21.3490 C.1     1  JZY1        0.1423
      4  N4        23.3780   64.2520   21.0310 N.2     1  JZY1       -0.3428
      5  C5        22.1940   64.8350   21.2690 C.2     1  JZY1        0.1397
      6  C6        21.1230   64.0510   21.8760 C.3     1  JZY1        0.1719
      7  S7        19.7770   65.0140   22.0420 S.3     1  JZY1       -0.1017
      8  C8        20.5130   66.4350   21.3680 C.2     1  JZY1        0.0223
      9  C9        21.8370   66.1910   20.9800 C.2     1  JZY1        0.0331
     10  N10       20.4430   61.7420   22.8160 N.pl3   1  JZY1       -0.2801
     11  C11       19.0120   62.0150   22.8970 C.3     1  JZY1        0.1250
     12  C12       18.6060   61.6780   24.3180 C.3     1  JZY1        0.1636
     13  O13       18.9250   60.3220   24.5730 O.3     1  JZY1       -0.3501
     14  C14       20.3310   60.1420   24.6430 C.3     1  JZY1        0.1636
     15  C15       20.9730   60.4590   23.3080 C.3     1  JZY1        0.1250
     16  C16       24.8720   62.2870   21.0840 C.2     1  JZY1        0.1317
     17  C17       25.4720   61.4980   22.0570 C.2     1  JZY1        0.1261
     18  N18       26.6560   60.9300   21.8030 N.2     1  JZY1       -0.1665
     19  C19       27.2830   61.1010   20.6160 C.1     1  JZY1        0.1861
     20  N20       26.7600   61.8390   19.6120 N.2     1  JZY1       -0.3389
     21  C21       25.5740   62.4490   19.7770 C.2     1  JZY1        0.1349
     22  C22       25.0020   63.2750   18.6610 C.3     1  JZY1        0.0683
     23  N23       28.4700   60.5000   20.4300 N.pl3   1  JZY1       -0.0345
     24  C24       19.5980   67.6370   21.3320 C.3     1  JZY1        0.1055
     25  N25       18.9510   67.7000   20.0280 N.3     1  JZY1       -0.2660
     26  C26       17.5380   67.3420   19.8880 C.3     1  JZY1        0.0918
     27  C27       16.8560   68.4380   19.0590 C.3     1  JZY1        0.1128
     28  N28       17.7010   68.6440   17.8850 N.3     1  JZY1       -0.1565
     29  C29       19.0200   69.2020   18.1400 C.3     1  JZY1        0.1128
     30  C30       19.7560   68.0880   18.8690 C.3     1  JZY1        0.0918
     31  S31       17.2390   68.2910   16.4650 S.O2    1  JZY1        0.0457
     32  O32       16.3590   67.1420   16.4280 O.2     1  JZY1       -0.1572
     33  O33       18.3910   67.9480   15.6770 O.2     1  JZY1       -0.1572
     34  C34       16.4730   69.6510   15.8760 C.3     1  JZY1        0.1960
@<TRIPOS>BOND
     1    33    31    2
     2    34    31    1
     3    32    31    2
     4    31    28    1
     5    28    29    1
     6    28    27    1
     7    29    30    1
     8    22    21    1
     9    30    25    1
    10    27    26    1
    11    20    21    2
    12    20    19    2
    13    21    16    1
    14    26    25    1
    15    25    24    1
    16    23    19    1
    17    19    18    2
    18     9     5    1
    19     9     8    2
    20     4     5    2
    21     4     3    2
    22    16     3    1
    23    16    17    2
    24     5     6    1
    25    24     8    1
    26     3     2    2
    27     8     7    1
    28    18    17    1
    29     6     7    1
    30     6     1    1
    31     2     1    2
    32     1    10    1
    33    10    11    1
    34    10    15    1
    35    11    12    1
    36    15    14    1
    37    12    13    1
    38    13    14    1
