@<TRIPOS>MOLECULE
3l1b_635_A_1.pdb
 41 45 0 0 0
SMALL
GASTEIGER

@<TRIPOS>ATOM
      1  C1        -0.1560   -3.1250   10.3480 C.3     1  6351        0.0473
      2  F1        -3.4710   -3.6290    0.0470 F       1  6351       -0.2088
      3  N1        -4.0040    0.3300    7.6470 N.am    1  6351       -0.2748
      4  O1        -1.0610   -1.8500    8.5270 O.3     1  6351       -0.4520
      5  C2         0.1700   -2.3610    9.0680 C.3     1  6351        0.1691
      6  N2        -2.3800   -2.2840    4.5760 N.2     1  6351       -0.4102
      7  O2        -0.5140   -2.6500    6.4450 O.2     1  6351       -0.2496
      8  C3         1.0290   -1.1250    9.3130 C.3     1  6351        0.0473
      9  N3         3.6870    5.9230   12.1080 N.3     1  6351       -0.2683
     10  O3        -5.1510    2.2380    8.3170 O.2     1  6351       -0.2699
     11  C4        -1.2650   -2.0660    7.2040 C.2     1  6351        0.3248
     12  O4         0.5260    4.1930   10.1220 O.3     1  6351       -0.4754
     13  C5        -2.5750   -1.4650    6.8370 C.3     1  6351        0.1703
     14  O5         5.6620    7.2800   13.6690 O.3     1  6351       -0.3508
     15  C6        -2.8150   -0.3670    7.5640 C.3     1  6351        0.1119
     16  C7        -5.2450   -0.2770    7.1540 C.3     1  6351        0.0977
     17  C8        -5.4010   -0.3460    5.6090 C.3     1  6351        0.0391
     18  C9        -4.3040   -1.1920    4.9610 C.2     1  6351        0.0033
     19  C10       -3.0960   -1.5780    5.5290 C.2     1  6351        0.1163
     20  C11       -3.1040   -2.4060    3.4240 C.2     1  6351        0.1114
     21  C12       -4.3140   -1.7380    3.6230 C.2     1  6351        0.0063
     22  C13       -5.2360   -1.6960    2.5530 C.3     1  6351        0.0563
     23  C14       -4.9370   -2.3450    1.3480 C.2     1  6351        0.0042
     24  C15       -3.7360   -3.0200    1.2120 C.2     1  6351        0.1208
     25  C16       -2.7860   -3.0760    2.2370 C.3     1  6351        0.1146
     26  C17       -6.7860   -0.9460    5.2850 C.3     1  6351        0.0061
     27  C18       -5.3380    1.0970    5.0590 C.3     1  6351        0.0061
     28  C19       -4.0970    1.6140    8.2150 C.2     1  6351        0.2490
     29  C20       -2.8870    2.2870    8.7140 C.ar    1  6351        0.0538
     30  C21       -2.8850    2.7570   10.0250 C.ar    1  6351        0.0076
     31  C22       -1.7460    3.3960   10.5080 C.ar    1  6351        0.0370
     32  C23       -0.6210    3.5700    9.7010 C.ar    1  6351        0.1386
     33  C24       -0.6300    3.0930    8.3750 C.ar    1  6351        0.0370
     34  C25       -1.7670    2.4510    7.8830 C.ar    1  6351        0.0076
     35  C26        1.3500    4.9120    9.1930 C.3     1  6351        0.2068
     36  C27        2.2400    5.8610   10.0160 C.3     1  6351        0.0646
     37  C28        3.2100    5.1040   10.9190 C.3     1  6351        0.0761
     38  C29        4.1550    7.3180   11.7470 C.3     1  6351        0.1046
     39  C30        4.6360    8.0240   13.0070 C.3     1  6351        0.1595
     40  C31        5.2000    5.9970   14.0860 C.3     1  6351        0.1595
     41  C32        4.7670    5.1750   12.8810 C.3     1  6351        0.1046
@<TRIPOS>BOND
     1     2    24    1
     2    24    23    2
     3    24    25    1
     4    23    22    1
     5    25    20    1
     6    22    21    1
     7    20    21    1
     8    20     6    2
     9    21    18    2
    10     6    19    2
    11    18    19    1
    12    18    17    1
    13    27    17    1
    14    26    17    1
    15    19    13    1
    16    17    16    1
    17     7    11    2
    18    13    11    1
    19    13    15    1
    20    16     3    1
    21    11     4    1
    22    15     3    1
    23     3    28   am
    24    34    33   ar
    25    34    29   ar
    26    28    10    2
    27    28    29    1
    28    33    32   ar
    29     4     5    1
    30    29    30   ar
    31     5     8    1
    32     5     1    1
    33    35    36    1
    34    35    12    1
    35    32    12    1
    36    32    31   ar
    37    36    37    1
    38    30    31   ar
    39    37     9    1
    40    38     9    1
    41    38    39    1
    42     9    41    1
    43    41    40    1
    44    39    14    1
    45    14    40    1
