@<TRIPOS>MOLECULE
3l1c_ADP_A_1.pdb
 27 29 0 0 0
SMALL
GASTEIGER

@<TRIPOS>ATOM
      1  PB        -0.1990   45.9780   61.9140 P.3   998  ADP998      0.5373
      2  O1B        0.9140   46.8780   62.3460 O.3   998  ADP998     -0.1143
      3  O2B        0.3360   44.5310   61.3760 O.2   998  ADP998     -0.2221
      4  O3B       -1.1560   45.7660   63.0310 O.3   998  ADP998     -0.1143
      5  PA        -2.2010   47.4920   60.5100 P.3   998  ADP998      0.2231
      6  O1A       -3.2900   46.6790   59.9690 O.2   998  ADP998     -0.5169
      7  O2A       -2.5510   48.0560   61.7960 O.3   998  ADP998     -0.4370
      8  O3A       -0.9140   46.6140   60.6810 O.3   998  ADP998     -0.2261
      9  O5'       -1.7560   48.6320   59.4910 O.3   998  ADP998     -0.3111
     10  C5'       -1.3650   48.3340   58.1290 C.3   998  ADP998      0.1813
     11  C4'       -2.1860   49.2050   57.1380 C.3   998  ADP998      0.1821
     12  O4'       -2.8260   48.3150   56.2280 O.3   998  ADP998     -0.3135
     13  C3'       -3.3140   50.0210   57.7650 C.3   998  ADP998      0.2184
     14  O3'       -3.4620   51.2920   57.1280 O.3   998  ADP998     -0.2174
     15  C2'       -4.5720   49.2410   57.5240 C.3   998  ADP998      0.2570
     16  O2'       -5.7530   50.0560   57.4500 O.3   998  ADP998     -0.2130
     17  C1'       -4.2490   48.4990   56.2470 C.3   998  ADP998      0.3186
     18  N9        -4.9160   47.1570   56.1390 N.pl3 998  ADP998     -0.1439
     19  C8        -4.4970   46.0320   56.7500 C.3   998  ADP998      0.3377
     20  N7        -5.2930   45.0180   56.4310 N.2   998  ADP998     -0.2095
     21  C5        -6.2330   45.4670   55.6240 C.2   998  ADP998      0.2526
     22  C6        -7.3300   44.9070   54.9690 C.2   998  ADP998      0.4393
     23  N6        -7.6010   43.6060   55.1190 N.pl3 998  ADP998      0.2180
     24  N1        -8.1310   45.6910   54.1710 N.2   998  ADP998      0.0021
     25  C2        -7.8810   47.0120   53.9930 C.3   998  ADP998      0.5254
     26  N3        -6.8240   47.5610   54.6260 N.2   998  ADP998     -0.0055
     27  C4        -5.9910   46.8500   55.4300 C.2   998  ADP998      0.3518
@<TRIPOS>BOND
     1    25    24    1
     2    25    26    1
     3    24    22    2
     4    26    27    2
     5    22    23    1
     6    22    21    1
     7    27    21    1
     8    27    18    1
     9    21    20    2
    10    18    17    1
    11    18    19    1
    12    12    17    1
    13    12    11    1
    14    17    15    1
    15    20    19    1
    16    14    13    1
    17    11    13    1
    18    11    10    1
    19    16    15    1
    20    15    13    1
    21    10     9    1
    22     9     5    1
    23     6     5    2
    24     5     8    1
    25     5     7    1
    26     8     1    1
    27     3     1    2
    28     1     2    1
    29     1     4    1
