@<TRIPOS>MOLECULE
3l1l_ARG_A_1.pdb
 12 11 0 0 0
SMALL
GASTEIGER

@<TRIPOS>ATOM
      1  N         -0.6440    6.1510   17.9750 N.3   446  ARG446     -0.1208
      2  CA        -0.7040    7.5870   18.2000 C.3   446  ARG446      0.1944
      3  C          0.4680    8.3450   17.5510 C.2   446  ARG446      0.3819
      4  O          1.4780    7.7650   17.1490 O.co2 446  ARG446     -0.2441
      5  CB        -0.8040    7.8830   19.7060 C.3   446  ARG446      0.0343
      6  CG        -0.8780    9.3580   20.0340 C.3   446  ARG446      0.0490
      7  CD        -1.7090    9.6390   21.2560 C.3   446  ARG446      0.2205
      8  NE        -1.7690   11.0750   21.5230 N.pl3 446  ARG446     -0.0865
      9  CZ        -2.3880   11.6260   22.5640 C.cat 446  ARG446      0.5346
     10  NH1       -3.0070   10.8560   23.4560 N.pl3 446  ARG446      0.1354
     11  NH2       -2.3900   12.9470   22.7080 N.pl3 446  ARG446      0.1354
     12  OXT        0.4240    9.5680   17.3930 O.co2 446  ARG446     -0.2441
@<TRIPOS>BOND
     1     4     3   ar
     2    12     3   ar
     3     3     2    1
     4     1     2    1
     5     2     5    1
     6     5     6    1
     7     6     7    1
     8     7     8    1
     9     8     9    2
    10     9    11    1
    11     9    10    1
