@<TRIPOS>MOLECULE
3l1m_HEM_A_1.pdb
 43 50 0 0 0
SMALL
GASTEIGER

@<TRIPOS>ATOM
      1  CHA       17.9640   11.2020   25.2420 C.2   150  HEM150      0.0000
      2  CHB       19.5390   12.8040   20.9270 C.2   150  HEM150      0.0000
      3  CHC       14.9510   13.7180   19.5940 C.2   150  HEM150      0.0000
      4  CHD       13.3590   12.1270   23.9120 C.2   150  HEM150      0.0000
      5  C1A       18.7960   11.5690   24.1910 C.ar  150  HEM150      0.0000
      6  C2A       20.2590   11.4420   24.2170 C.ar  150  HEM150      0.0000
      7  C3A       20.6810   11.9360   23.0110 C.ar  150  HEM150      0.0000
      8  C4A       19.5060   12.3010   22.2240 C.ar  150  HEM150      0.0000
      9  CMA       22.1280   12.1220   22.6070 C.3   150  HEM150      0.0000
     10  CAA       21.1360   10.6690   25.2260 C.3   150  HEM150      0.0000
     11  CBA       20.6810    9.2070   25.3560 C.3   150  HEM150      0.0000
     12  CGA       21.7390    8.3030   25.9750 C.2   150  HEM150      0.0000
     13  O1A       22.5320    7.7050   25.2080 O.co2 150  HEM150      0.0000
     14  O2A       21.7740    8.2010   27.2240 O.co2 150  HEM150      0.0000
     15  C1B       18.4240   13.1690   20.1790 C.2   150  HEM150      0.0000
     16  C2B       18.4860   13.7870   18.8690 C.2   150  HEM150      0.0000
     17  C3B       17.1970   14.0700   18.5060 C.2   150  HEM150      0.0000
     18  C4B       16.3350   13.6060   19.5890 C.2   150  HEM150      0.0000
     19  CMB       19.7390   14.0530   18.0310 C.3   150  HEM150      0.0000
     20  CAB       16.7800   14.7670   17.3670 C.2   150  HEM150      0.0000
     21  CBB       17.0240   14.3440   16.0790 C.2   150  HEM150      0.0000
     22  C1C       14.1250   13.3380   20.6340 C.ar  150  HEM150      0.0000
     23  C2C       12.7070   13.5510   20.5990 C.ar  150  HEM150      0.0000
     24  C3C       12.2370   13.1260   21.8240 C.ar  150  HEM150      0.0000
     25  C4C       13.3930   12.6510   22.5990 C.ar  150  HEM150      0.0000
     26  CMC       11.9030   14.2250   19.4660 C.3   150  HEM150      0.0000
     27  CAC       10.8900   13.2210   22.2710 C.3   150  HEM150      0.0000
     28  CBC        9.8460   12.7380   21.4620 C.3   150  HEM150      0.0000
     29  C1D       14.4770   11.7100   24.6440 C.2   150  HEM150      0.0000
     30  C2D       14.4890   11.0980   26.0050 C.2   150  HEM150      0.0000
     31  C3D       15.7870   10.8650   26.3110 C.2   150  HEM150      0.0000
     32  C4D       16.5840   11.3000   25.2130 C.2   150  HEM150      0.0000
     33  CMD       13.3650   10.6780   26.9650 C.3   150  HEM150      0.0000
     34  CAD       16.2810   10.2070   27.5900 C.3   150  HEM150      0.0000
     35  CBD       16.3090    8.6970   27.5220 C.3   150  HEM150      0.0000
     36  CGD       16.7540    8.0820   28.8380 C.2   150  HEM150      0.0000
     37  O1D       16.7700    6.8310   28.9500 O.co2 150  HEM150      0.0000
     38  O2D       17.0870    8.8610   29.7620 O.co2 150  HEM150      0.0000
     39  NA        18.3540   12.0790   22.9630 N.ar  150  HEM150      0.0000
     40  NB        17.0980   13.0650   20.6160 N.2   150  HEM150      0.0000
     41  NC        14.5350   12.7930   21.8450 N.ar  150  HEM150      0.0000
     42  ND        15.7860   11.8100   24.1700 N.2   150  HEM150      0.0000
     43 FE         16.4190   12.3970   22.3700 Fe    150  HEM150      0.0000
@<TRIPOS>BOND
     1    21    20    2
     2    20    17    1
     3    19    16    1
     4    17    16    2
     5    17    18    1
     6    16    15    1
     7    26    23    1
     8    18     3    2
     9    18    40    1
    10     3    22    1
    11    15    40    2
    12    15     2    1
    13    23    22   ar
    14    23    24   ar
    15    40    43    1
    16    22    41   ar
    17     2     8    2
    18    28    27    1
    19    24    27    1
    20    24    25   ar
    21    41    43    1
    22    41    25   ar
    23     8    39   ar
    24     8     7   ar
    25    43    39    1
    26    43    42    1
    27    25     4    1
    28     9     7    1
    29    39     5   ar
    30     7     6   ar
    31     4    29    2
    32    42    29    1
    33    42    32    2
    34     5     6   ar
    35     5     1    2
    36     6    10    1
    37    29    30    1
    38    13    12   ar
    39    32     1    1
    40    32    31    1
    41    10    11    1
    42    11    12    1
    43    12    14   ar
    44    30    31    2
    45    30    33    1
    46    31    34    1
    47    35    34    1
    48    35    36    1
    49    36    37   ar
    50    36    38   ar
