@<TRIPOS>MOLECULE
3l1m_HQI_A_1.pdb
 15 16 0 0 0
SMALL
GASTEIGER

@<TRIPOS>ATOM
      1  N1         4.7430   18.0970   11.3880 N.am  151  HQI151     -0.1832
      2  N2         1.3040   16.5390   14.2030 N.ar  151  HQI151     -0.2406
      3  CAA        6.5750   18.4240    9.8440 C.3   151  HQI151      0.0968
      4  OAB        5.9710   20.0020   11.5390 O.2   151  HQI151     -0.2730
      5  OAC        1.0990   18.9940   15.3870 O.2   151  HQI151     -0.2853
      6  CAD        2.3160   15.0500   12.6740 C.ar  151  HQI151      0.0207
      7  CAE        1.3970   15.3290   13.6800 C.ar  151  HQI151      0.0989
      8  CAF        2.8220   19.8260   13.9590 C.2   151  HQI151      0.0235
      9  CAG        3.7560   19.6100   12.9490 C.3   151  HQI151      0.0726
     10  CAH        3.1440   16.0660   12.2140 C.ar  151  HQI151      0.0042
     11  CAK        5.7030   18.9360   10.9930 C.2   151  HQI151      0.2458
     12  CAL        1.9900   18.7950   14.3780 C.2   151  HQI151      0.2093
     13  CAM        3.8600   18.3570   12.3510 C.2   151  HQI151      0.0570
     14  CAN        3.0280   17.3310   12.7790 C.ar  151  HQI151      0.0324
     15  CAO        2.0900   17.5420   13.7850 C.ar  151  HQI151      0.1207
@<TRIPOS>BOND
     1     3    11    1
     2    11     1    1
     3    11     4    2
     4     1    13    2
     5    10     6   ar
     6    10    14   ar
     7    13    14    1
     8    13     9    1
     9     6     7   ar
    10    14    15   ar
    11     9     8    1
    12     7     2   ar
    13    15     2   ar
    14    15    12    1
    15     8    12    2
    16    12     5    1
