@<TRIPOS>MOLECULE
3l1n_PLM_A_1.pdb
 18 17 0 0 0
SMALL
GASTEIGER

@<TRIPOS>ATOM
      1  C1         8.0240   16.1360   37.0170 C.2   161  PLM161      0.3649
      2  O1         8.8030   15.2590   37.4570 O.co2 161  PLM161     -0.2457
      3  O2         8.3200   16.7100   35.9460 O.co2 161  PLM161     -0.2457
      4  C2         6.7390   16.4880   37.7360 C.3   161  PLM161      0.1141
      5  C3         6.9460   16.6960   39.2350 C.3   161  PLM161      0.0118
      6  C4         5.6200   17.0240   39.9190 C.3   161  PLM161      0.0006
      7  C5         5.7750   17.3450   41.4050 C.3   161  PLM161      0.0000
      8  C6         5.4300   16.1420   42.2780 C.3   161  PLM161      0.0000
      9  C7         5.2610   16.5080   43.7500 C.3   161  PLM161      0.0000
     10  C8         5.1260   15.2610   44.6200 C.3   161  PLM161      0.0000
     11  C9         5.2690   15.5870   46.1040 C.3   161  PLM161      0.0000
     12  CA         4.6520   14.5100   46.9900 C.3   161  PLM161      0.0000
     13  CB         4.7630   14.8790   48.4690 C.3   161  PLM161      0.0000
     14  CC         3.5780   15.7180   48.9460 C.3   161  PLM161      0.0000
     15  CD         2.5850   14.8820   49.7490 C.3   161  PLM161      0.0000
     16  CE         1.3630   15.6860   50.1790 C.3   161  PLM161      0.0000
     17  CF         0.4470   14.8510   51.0670 C.3   161  PLM161      0.0000
     18  CG        -0.7340   15.6630   51.5840 C.3   161  PLM161      0.0000
@<TRIPOS>BOND
     1     3     1   ar
     2     1     2   ar
     3     1     4    1
     4     4     5    1
     5     5     6    1
     6     6     7    1
     7     7     8    1
     8     8     9    1
     9     9    10    1
    10    10    11    1
    11    11    12    1
    12    12    13    1
    13    13    14    1
    14    14    15    1
    15    15    16    1
    16    16    17    1
    17    17    18    1
