@<TRIPOS>MOLECULE
3l1r_SPD_A_1.pdb
 10 9 0 0 0
SMALL
GASTEIGER

@<TRIPOS>ATOM
      1  N1       -80.1410   34.5190    2.4540 N.3   700  SPD700     -0.1314
      2  C2       -80.6050   33.2250    1.9930 C.3   700  SPD700      0.1094
      3  C3       -79.7200   32.1270    2.5770 C.3   700  SPD700      0.0220
      4  C4       -79.8230   30.8640    1.7330 C.3   700  SPD700      0.0203
      5  C5       -78.7100   30.8180    0.6900 C.3   700  SPD700      0.0887
      6  N6       -79.1890   30.4630   -0.6350 N.3   700  SPD700     -0.2180
      7  C7       -78.2640   29.9690   -1.6380 C.3   700  SPD700      0.0902
      8  C8       -77.7520   31.0860   -2.5360 C.3   700  SPD700      0.0393
      9  C9       -77.3670   30.5510   -3.9040 C.3   700  SPD700      0.1108
     10  N10      -76.2810   31.3510   -4.4270 N.3   700  SPD700     -0.1313
@<TRIPOS>BOND
     1    10     9    1
     2     9     8    1
     3     8     7    1
     4     7     6    1
     5     6     5    1
     6     5     4    1
     7     4     3    1
     8     2     1    1
     9     2     3    1
