@<TRIPOS>MOLECULE
3l1s_Z92_A_1.pdb
 25 27 0 0 0
SMALL
GASTEIGER

@<TRIPOS>ATOM
      1  C1        35.0880   31.5500   56.7030 C.3   421  Z92421      0.2526
      2  O2        35.3480   32.8750   56.3420 O.3   421  Z92421     -0.4684
      3  C3        36.1030   33.0150   55.2400 C.ar  421  Z92421      0.1724
      4  C4        36.9540   34.0700   55.1670 C.ar  421  Z92421      0.0401
      5  C5        37.7400   34.2970   54.0820 C.ar  421  Z92421      0.0049
      6  C6        37.6690   33.4320   53.0340 C.ar  421  Z92421      0.0249
      7  C7        36.8130   32.3630   53.1030 C.ar  421  Z92421      0.0417
      8  C8        36.0350   32.1470   54.1930 C.ar  421  Z92421      0.1724
      9  O9        35.1800   31.1190   54.2560 O.3   421  Z92421     -0.4684
     10  C10       35.3560   29.9580   53.4920 C.3   421  Z92421      0.2526
     11  C11       38.4900   33.6150   51.8350 C.2   421  Z92421      0.1340
     12  N12       38.5270   32.7660   50.8960 N.2   421  Z92421     -0.1353
     13  N13       39.3500   33.1310   49.8740 N.2   421  Z92421     -0.0711
     14  C14       39.8590   34.2770   50.1570 C.1   421  Z92421      0.1938
     15  O15       40.6190   34.9300   49.5580 O.2   421  Z92421     -0.2188
     16  C16       39.3840   34.6780   51.4030 C.2   421  Z92421      0.2034
     17  N17       39.7510   35.8170   51.8280 N.2   421  Z92421     -0.1453
     18  N18       39.4260   36.2440   52.9300 N.pl3 421  Z92421     -0.1164
     19  C19       39.8220   37.5140   53.2270 C.ar  421  Z92421      0.0915
     20  C20       39.6000   37.9010   54.5070 C.ar  421  Z92421      0.0191
     21  C21       39.9300   39.1540   54.8660 C.ar  421  Z92421      0.0128
     22  C22       40.4480   40.0280   53.9730 C.ar  421  Z92421      0.0578
     23 CL23       40.7770   41.5980   54.5980 Cl    421  Z92421     -0.0822
     24  C24       40.6620   39.6500   52.6800 C.ar  421  Z92421      0.0128
     25  C25       40.3400   38.3810   52.2970 C.ar  421  Z92421      0.0191
@<TRIPOS>BOND
     1    15    14    2
     2    13    14    2
     3    13    12    1
     4    14    16    1
     5    12    11    2
     6    16    17    2
     7    16    11    1
     8    17    18    1
     9    11     6    1
    10    25    24   ar
    11    25    19   ar
    12    24    22   ar
    13    18    19    1
    14     6     7   ar
    15     6     5   ar
    16     7     8   ar
    17    19    20   ar
    18    10     9    1
    19    22    23    1
    20    22    21   ar
    21     5     4   ar
    22     8     9    1
    23     8     3   ar
    24    20    21   ar
    25     4     3   ar
    26     3     2    1
    27     2     1    1
