@<TRIPOS>MOLECULE
3l1t_HEC_A_1.pdb
 43 50 0 0 0
SMALL
GASTEIGER

@<TRIPOS>ATOM
      1 FE         33.0460   -0.2470   27.8390 Fe    479  HEC479      0.0000
      2  CHA       32.9180   -2.7170   30.1670 C.2   479  HEC479      0.0000
      3  CHB       33.2690   -2.4880   25.3370 C.2   479  HEC479      0.0000
      4  CHC       32.7040    2.3250   25.5850 C.2   479  HEC479      0.0000
      5  CHD       33.1920    2.1600   30.3940 C.2   479  HEC479      0.0000
      6  NA        33.0430   -2.2510   27.7590 N.ar  479  HEC479      0.0000
      7  C1A       33.1280   -3.0840   28.8550 C.ar  479  HEC479      0.0000
      8  C2A       33.4260   -4.4160   28.3570 C.ar  479  HEC479      0.0000
      9  C3A       33.5120   -4.3600   27.0280 C.ar  479  HEC479      0.0000
     10  C4A       33.2770   -2.9850   26.6260 C.ar  479  HEC479      0.0000
     11  CMA       33.8300   -5.5400   26.0820 C.3   479  HEC479      0.0000
     12  CAA       33.6100   -5.6800   29.2140 C.3   479  HEC479      0.0000
     13  CBA       32.2400   -6.1860   29.6810 C.3   479  HEC479      0.0000
     14  CGA       31.3290   -6.4950   28.5290 C.2   479  HEC479      0.0000
     15  O1A       31.5610   -7.4960   27.8080 O.co2 479  HEC479      0.0000
     16  O2A       30.3510   -5.7410   28.3410 O.co2 479  HEC479      0.0000
     17  NB        33.0470   -0.1020   25.8150 N.2   479  HEC479      0.0000
     18  C1B       33.0030   -1.1820   24.9620 C.2   479  HEC479      0.0000
     19  C2B       32.6420   -0.6940   23.6330 C.2   479  HEC479      0.0000
     20  C3B       32.4960    0.6340   23.7030 C.2   479  HEC479      0.0000
     21  C4B       32.7390    1.0340   25.0840 C.2   479  HEC479      0.0000
     22  CMB       32.5130   -1.5770   22.3910 C.3   479  HEC479      0.0000
     23  CAB       32.1300    1.6030   22.5570 C.3   479  HEC479      0.0000
     24  CBB       30.7220    1.3020   21.9990 C.3   479  HEC479      0.0000
     25  NC        32.9630    1.8450   27.9760 N.ar  479  HEC479      0.0000
     26  C1C       32.8460    2.7040   26.8990 C.ar  479  HEC479      0.0000
     27  C2C       32.9360    4.0780   27.3800 C.ar  479  HEC479      0.0000
     28  C3C       32.9890    4.0350   28.7200 C.ar  479  HEC479      0.0000
     29  C4C       33.0520    2.6290   29.1070 C.ar  479  HEC479      0.0000
     30  CMC       32.7460    5.3230   26.4820 C.3   479  HEC479      0.0000
     31  CAC       33.0680    5.2040   29.7230 C.3   479  HEC479      0.0000
     32  CBC       32.4240    6.5200   29.2110 C.3   479  HEC479      0.0000
     33  ND        33.0720   -0.2530   29.9750 N.2   479  HEC479      0.0000
     34  C1D       33.0490    0.8580   30.8010 C.2   479  HEC479      0.0000
     35  C2D       32.8600    0.4340   32.1710 C.2   479  HEC479      0.0000
     36  C3D       32.7660   -1.0970   32.0960 C.2   479  HEC479      0.0000
     37  C4D       32.9100   -1.4330   30.6930 C.2   479  HEC479      0.0000
     38  CMD       32.7660    1.3440   33.4190 C.3   479  HEC479      0.0000
     39  CAD       32.5600   -2.0800   33.2660 C.3   479  HEC479      0.0000
     40  CBD       31.1830   -1.8630   33.8880 C.3   479  HEC479      0.0000
     41  CGD       30.2050   -2.8470   33.3140 C.2   479  HEC479      0.0000
     42  O1D       30.5550   -3.6160   32.3910 O.co2 479  HEC479      0.0000
     43  O2D       29.0450   -2.8690   33.7690 O.co2 479  HEC479      0.0000
@<TRIPOS>BOND
     1    24    23    1
     2    22    19    1
     3    23    20    1
     4    19    20    2
     5    19    18    1
     6    20    21    1
     7    18     3    1
     8    18    17    2
     9    21     4    2
    10    21    17    1
    11     3    10    2
    12     4    26    1
    13    17     1    1
    14    11     9    1
    15    30    27    1
    16    10     9   ar
    17    10     6   ar
    18    26    27   ar
    19    26    25   ar
    20     9     8   ar
    21    27    28   ar
    22     6     1    1
    23     6     7   ar
    24    15    14   ar
    25     1    25    1
    26     1    33    1
    27    25    29   ar
    28    16    14   ar
    29     8     7   ar
    30     8    12    1
    31    14    13    1
    32    28    29   ar
    33    28    31    1
    34     7     2    2
    35    29     5    1
    36    32    31    1
    37    12    13    1
    38    33    37    2
    39    33    34    1
    40     2    37    1
    41     5    34    2
    42    37    36    1
    43    34    35    1
    44    36    35    2
    45    36    39    1
    46    35    38    1
    47    42    41   ar
    48    39    40    1
    49    41    43   ar
    50    41    40    1
