@<TRIPOS>MOLECULE
3l2f_ADP_A_1.pdb
 27 29 0 0 0
SMALL
GASTEIGER

@<TRIPOS>ATOM
      1  PB        40.4760   62.7720   62.9180 P.3   601  ADP601      0.5373
      2  O1B       41.4020   63.9290   62.7080 O.2   601  ADP601     -0.2221
      3  O2B       41.1430   61.5240   63.4510 O.3   601  ADP601     -0.1143
      4  O3B       39.1900   63.1370   63.6180 O.3   601  ADP601     -0.1143
      5  PA        38.7050   61.6070   60.9540 P.3   601  ADP601      0.2231
      6  O1A       38.3470   62.1390   59.5870 O.2   601  ADP601     -0.5169
      7  O2A       37.6500   61.6550   62.0300 O.3   601  ADP601     -0.4370
      8  O3A       40.0160   62.4380   61.4080 O.3   601  ADP601     -0.2261
      9  O5'       39.2370   60.1000   60.7650 O.3   601  ADP601     -0.3111
     10  C5'       39.8130   59.3830   61.8380 C.3   601  ADP601      0.1813
     11  C4'       39.5380   57.8900   61.7020 C.3   601  ADP601      0.1821
     12  O4'       39.3530   57.3360   63.0050 O.3   601  ADP601     -0.3135
     13  C3'       38.2810   57.5440   60.9180 C.3   601  ADP601      0.2184
     14  O3'       38.5660   56.4150   60.0880 O.3   601  ADP601     -0.2174
     15  C2'       37.2520   57.1050   61.9370 C.3   601  ADP601      0.2570
     16  O2'       36.4880   56.0140   61.4180 O.3   601  ADP601     -0.2130
     17  C1'       38.0970   56.6560   63.1110 C.3   601  ADP601      0.3186
     18  N9        37.5140   56.9870   64.4360 N.pl3 601  ADP601     -0.1439
     19  C8        37.2660   58.2220   64.9140 C.3   601  ADP601      0.3377
     20  N7        36.7510   58.1600   66.1700 N.2   601  ADP601     -0.2095
     21  C5        36.6830   56.8640   66.5180 C.2   601  ADP601      0.2526
     22  C6        36.2340   56.0950   67.6980 C.2   601  ADP601      0.4393
     23  N6        35.7510   56.7200   68.7920 N.pl3 601  ADP601      0.2180
     24  N1        36.3150   54.7460   67.6490 N.2   601  ADP601      0.0021
     25  C2        36.7920   54.1040   66.5580 C.3   601  ADP601      0.5254
     26  N3        37.2180   54.7350   65.4460 N.2   601  ADP601     -0.0055
     27  C4        37.1870   56.0910   65.3710 C.2   601  ADP601      0.3518
@<TRIPOS>BOND
     1     6     5    2
     2    14    13    1
     3     9     5    1
     4     9    10    1
     5    13    11    1
     6    13    15    1
     7     5     8    1
     8     5     7    1
     9     8     1    1
    10    16    15    1
    11    11    10    1
    12    11    12    1
    13    15    17    1
    14     2     1    2
    15     1     3    1
    16     1     4    1
    17    12    17    1
    18    17    18    1
    19    18    19    1
    20    18    27    1
    21    19    20    1
    22    27    26    2
    23    27    21    1
    24    26    25    1
    25    20    21    2
    26    21    22    1
    27    25    24    1
    28    24    22    2
    29    22    23    1
