@<TRIPOS>MOLECULE
3l2g_ADP_A_1.pdb
 27 29 0 0 0
SMALL
GASTEIGER

@<TRIPOS>ATOM
      1  PB       161.9810   43.9050   66.6100 P.3   601  ADP601      0.5373
      2  O1B      162.9460   42.9400   67.2440 O.3   601  ADP601     -0.1143
      3  O2B      162.7000   45.0630   65.9520 O.3   601  ADP601     -0.1143
      4  O3B      160.9000   43.2220   65.8140 O.2   601  ADP601     -0.2221
      5  PA       159.8260   44.9740   68.3520 P.3   601  ADP601      0.2231
      6  O1A      159.7360   44.5570   69.8050 O.3   601  ADP601     -0.4370
      7  O2A      158.7870   44.4810   67.3910 O.2   601  ADP601     -0.5169
      8  O3A      161.3230   44.5120   67.9530 O.3   601  ADP601     -0.2261
      9  O5'      159.8930   46.5850   68.3370 O.3   601  ADP601     -0.3111
     10  C5'      161.1340   47.2550   68.5560 C.3   601  ADP601      0.1813
     11  C4'      160.8840   48.7560   68.4490 C.3   601  ADP601      0.1821
     12  O4'      160.7750   49.1360   67.0750 O.3   601  ADP601     -0.3135
     13  C3'      159.5750   49.1760   69.1150 C.3   601  ADP601      0.2184
     14  O3'      159.8010   50.3280   69.9270 O.3   601  ADP601     -0.2174
     15  C2'      158.6470   49.5740   67.9870 C.3   601  ADP601      0.2570
     16  O2'      157.7840   50.6600   68.3380 O.3   601  ADP601     -0.2130
     17  C1'      159.6160   49.9620   66.8880 C.3   601  ADP601      0.3186
     18  N9       159.0030   49.7630   65.5520 N.pl3 601  ADP601     -0.1439
     19  C8       158.6940   48.5870   64.9600 C.3   601  ADP601      0.3377
     20  N7       158.1400   48.7990   63.7360 N.2   601  ADP601     -0.2095
     21  C5       158.0960   50.1300   63.5390 C.2   601  ADP601      0.2526
     22  C6       157.6380   51.0430   62.4750 C.2   601  ADP601      0.4393
     23  N6       157.1030   50.5680   61.3310 N.pl3 601  ADP601      0.2180
     24  N1       157.7630   52.3760   62.6830 N.2   601  ADP601      0.0021
     25  C2       158.2920   52.8860   63.8130 C.3   601  ADP601      0.5254
     26  N3       158.7330   52.1160   64.8180 N.2   601  ADP601     -0.0055
     27  C4       158.6580   50.7640   64.7390 C.2   601  ADP601      0.3518
@<TRIPOS>BOND
     1    23    22    1
     2    22    24    2
     3    22    21    1
     4    24    25    1
     5    21    20    2
     6    21    27    1
     7    20    19    1
     8    25    26    1
     9    27    26    2
    10    27    18    1
    11    19    18    1
    12    18    17    1
    13     4     1    2
    14     3     1    1
    15     1     2    1
    16     1     8    1
    17    17    12    1
    18    17    15    1
    19    12    11    1
    20     7     5    2
    21     8     5    1
    22    15    16    1
    23    15    13    1
    24     9     5    1
    25     9    10    1
    26     5     6    1
    27    11    10    1
    28    11    13    1
    29    13    14    1
