@<TRIPOS>MOLECULE
3l2j_MAL_A_1.pdb
 23 24 0 0 0
SMALL
GASTEIGER

@<TRIPOS>ATOM
      1  C1        70.2870  -39.4320    3.9040 C.3   194  MAL194      0.2695
      2  C2        69.5490  -38.1810    4.3650 C.3   194  MAL194      0.2406
      3  C3        69.1940  -37.2900    3.1790 C.3   194  MAL194      0.2198
      4  C4        70.4180  -36.9800    2.3330 C.3   194  MAL194      0.2144
      5  C5        71.2580  -38.2220    2.0400 C.3   194  MAL194      0.1835
      6  C6        72.6300  -37.8130    1.5270 C.3   194  MAL194      0.2142
      7  O1        69.4290  -40.2690    3.1420 O.3   194  MAL194     -0.3257
      8  O2        68.3690  -38.5460    5.0400 O.3   194  MAL194     -0.2149
      9  O3        68.6520  -36.0660    3.6180 O.3   194  MAL194     -0.2174
     10  O4        69.9570  -36.4180    1.1270 O.3   194  MAL194     -0.2176
     11  O5        71.4410  -39.0380    3.1850 O.3   194  MAL194     -0.3256
     12  O6        73.4200  -38.9610    1.3250 O.3   194  MAL194     -0.2176
     13  C1'       68.9520  -44.4650    2.4500 C.3   194  MAL194      0.3023
     14  C2'       68.6610  -43.9000    3.8620 C.3   194  MAL194      0.2433
     15  C3'       68.4730  -42.3860    3.8610 C.3   194  MAL194      0.2168
     16  C4'       69.6250  -41.6780    3.1360 C.3   194  MAL194      0.1804
     17  C5'       69.6720  -42.2450    1.7020 C.3   194  MAL194      0.1804
     18  C6'       70.7020  -41.5640    0.7930 C.3   194  MAL194      0.2141
     19  O1'       67.7680  -44.6890    1.6930 O.3   194  MAL194     -0.1869
     20  O2'       67.5040  -44.4790    4.4290 O.3   194  MAL194     -0.2148
     21  O3'       68.3170  -41.9520    5.1910 O.3   194  MAL194     -0.2175
     22  O5'       69.8940  -43.6610    1.7250 O.3   194  MAL194     -0.3237
     23  O6'       71.7070  -42.4710    0.4070 O.3   194  MAL194     -0.2176
@<TRIPOS>BOND
     1    23    18    1
     2    18    17    1
     3    10     4    1
     4    12     6    1
     5     6     5    1
     6    19    13    1
     7    17    22    1
     8    17    16    1
     9    22    13    1
    10     5     4    1
    11     5    11    1
    12     4     3    1
    13    13    14    1
    14    16     7    1
    15    16    15    1
    16     7     1    1
    17     3     9    1
    18     3     2    1
    19    11     1    1
    20    15    14    1
    21    15    21    1
    22    14    20    1
    23     1     2    1
    24     2     8    1
