@<TRIPOS>MOLECULE
3l2k_PXC_A_1.pdb
 20 22 0 0 0
SMALL
GASTEIGER

@<TRIPOS>ATOM
      1  OAA       54.7970    8.6250   72.6120 O.co2 400  PXC400     -0.2405
      2  OAB       64.4160    8.7790   75.6220 O.co2 400  PXC400     -0.2405
      3  OAC       56.6790    8.3590   71.5430 O.co2 400  PXC400     -0.2405
      4  OAD       62.5240    9.0790   76.6890 O.co2 400  PXC400     -0.2405
      5  CAE       56.7140    9.2640   76.3310 C.ar  400  PXC400      0.0030
      6  CAF       62.4980    8.0870   71.9120 C.ar  400  PXC400      0.0030
      7  CAG       56.0740    9.0550   75.0960 C.ar  400  PXC400      0.0093
      8  CAH       63.1430    8.3090   73.1430 C.ar  400  PXC400      0.0093
      9  CAI       58.1140    9.2140   76.4070 C.ar  400  PXC400      0.0347
     10  CAJ       61.0890    8.1420   71.8380 C.ar  400  PXC400      0.0347
     11  NAK       58.9920    8.4600   72.9230 N.2   400  PXC400     -0.3965
     12  NAL       60.2200    8.8910   75.3190 N.2   400  PXC400     -0.3965
     13  CAM       56.0500    8.5750   72.5940 C.2   400  PXC400      0.3903
     14  CAN       63.1650    8.8350   75.6390 C.2   400  PXC400      0.3903
     15  CAO       56.8110    8.7830   73.9190 C.ar  400  PXC400      0.1118
     16  CAP       62.4070    8.5810   74.3200 C.ar  400  PXC400      0.1118
     17  CAQ       58.8700    8.9410   75.2530 C.ar  400  PXC400      0.1611
     18  CAR       60.3430    8.4100   72.9890 C.ar  400  PXC400      0.1611
     19  CAS       58.2200    8.7230   74.0010 C.ar  400  PXC400      0.1672
     20  CAT       60.9930    8.6340   74.2330 C.ar  400  PXC400      0.1672
@<TRIPOS>BOND
     1     3    13   ar
     2    10     6   ar
     3    10    18   ar
     4     6     8   ar
     5    13     1   ar
     6    13    15    1
     7    11    18    2
     8    11    19    2
     9    18    20   ar
    10     8    16   ar
    11    15    19   ar
    12    15     7   ar
    13    19    17   ar
    14    20    16   ar
    15    20    12    2
    16    16    14    1
    17     7     5   ar
    18    17    12    2
    19    17     9   ar
    20     2    14   ar
    21    14     4   ar
    22     5     9   ar
