@<TRIPOS>MOLECULE
3l2l_GLC_A_1.pdb
 21 21 0 0 0
SMALL
GASTEIGER

@<TRIPOS>ATOM
      1  C1        50.9370   40.7960   73.2170 C.3   603  GLC603      0.1161
      2  C2        51.8750   40.3300   72.0830 C.3   603  GLC603      0.1122
      3  C3        51.6670   38.8670   71.6580 C.3   603  GLC603      0.1151
      4  C4        51.6670   37.9250   72.8730 C.3   603  GLC603      0.1500
      5  C5        50.7750   38.5080   73.9780 C.3   603  GLC603      0.1138
      6  C6        50.8490   37.6100   75.2260 C.3   603  GLC603      0.0730
      7  O2        51.7410   41.1730   70.9590 O.3   603  GLC603     -0.3865
      8  O3        52.6450   38.4710   70.7040 O.3   603  GLC603     -0.3864
      9  O4        51.0820   36.6900   72.4850 O.3   603  GLC603     -0.2256
     10  O5        51.0360   39.8850   74.2970 O.3   603  GLC603     -0.3630
     11  O6        50.0290   38.1500   76.2330 O.3   603  GLC603     -0.3924
     12  H1        51.2990   41.7620   73.5670 H     603  GLC603      0.0650
     13  H2        52.9000   40.3710   72.4500 H     603  GLC603      0.0647
     14  H3        50.6730   38.7750   71.2190 H     603  GLC603      0.0648
     15  H4        52.7010   37.7670   73.1810 H     603  GLC603      0.0682
     16  H5        49.7450   38.5050   73.6200 H     603  GLC603      0.0647
     17  H61       51.8850   37.5260   75.5510 H     603  GLC603      0.0584
     18  H62       50.4940   36.6110   74.9800 H     603  GLC603      0.0584
     19  HO2       52.1080   42.0560   71.1690 H     603  GLC603      0.2100
     20  HO3       53.5370   38.5350   71.1030 H     603  GLC603      0.2100
     21  HO6       49.1180   37.8020   76.1350 H     603  GLC603      0.2095
@<TRIPOS>BOND
     1     8    20    1
     2     8     3    1
     3     7    19    1
     4     7     2    1
     5    14     3    1
     6     3     2    1
     7     3     4    1
     8     2    13    1
     9     2     1    1
    10     9     4    1
    11     4    15    1
    12     4     5    1
    13     1    12    1
    14     1    10    1
    15    16     5    1
    16     5    10    1
    17     5     6    1
    18    18     6    1
    19     6    17    1
    20     6    11    1
    21    21    11    1
