@<TRIPOS>MOLECULE
3l2m_GLC_A_10.pdb
 21 21 0 0 0
SMALL
GASTEIGER

@<TRIPOS>ATOM
      1  C1        35.9290   64.4300   55.6070 C.3   804  GLC804      0.1161
      2  C2        35.5890   65.6770   54.8050 C.3   804  GLC804      0.1122
      3  C3        35.3960   66.8570   55.7550 C.3   804  GLC804      0.1151
      4  C4        34.3670   66.5420   56.8410 C.3   804  GLC804      0.1500
      5  C5        34.5310   65.1190   57.3950 C.3   804  GLC804      0.1138
      6  C6        33.3210   64.7380   58.2550 C.3   804  GLC804      0.0730
      7  O2        36.6190   65.9630   53.8880 O.3   804  GLC804     -0.3865
      8  O3        34.9780   67.9930   55.0310 O.3   804  GLC804     -0.3864
      9  O4        34.5440   67.4610   57.9080 O.3   804  GLC804     -0.2256
     10  O5        34.7850   64.1400   56.3850 O.3   804  GLC804     -0.3630
     11  O6        32.1160   65.2550   57.7340 O.3   804  GLC804     -0.3924
     12  H1        36.1240   63.6010   54.9270 H     804  GLC804      0.0650
     13  H2        34.6610   65.4950   54.2640 H     804  GLC804      0.0647
     14  H3        36.3480   67.0720   56.2400 H     804  GLC804      0.0648
     15  H4        33.3800   66.6690   56.3980 H     804  GLC804      0.0682
     16  H5        35.4110   65.1070   58.0360 H     804  GLC804      0.0647
     17  H61       33.4390   65.1520   59.2560 H     804  GLC804      0.0584
     18  H62       33.2520   63.6550   58.3440 H     804  GLC804      0.0584
     19  HO2       36.3590   66.7290   53.3340 H     804  GLC804      0.2100
     20  HO3       35.7560   68.5520   54.8240 H     804  GLC804      0.2100
     21  HO6       31.3680   64.6870   58.0140 H     804  GLC804      0.2095
@<TRIPOS>BOND
     1    19     7    1
     2     7     2    1
     3    13     2    1
     4     2     1    1
     5     2     3    1
     6    20     8    1
     7    12     1    1
     8     8     3    1
     9     1    10    1
    10     3    14    1
    11     3     4    1
    12    10     5    1
    13    15     4    1
    14     4     5    1
    15     4     9    1
    16     5    16    1
    17     5     6    1
    18    11    21    1
    19    11     6    1
    20     6    18    1
    21     6    17    1
