@<TRIPOS>MOLECULE
3l2p_AMP_A_1.pdb
 22 24 0 0 0
SMALL
GASTEIGER

@<TRIPOS>ATOM
      1  P          8.7860   31.8490   48.7950 P.3   901  AMP901      0.3942
      2  O1P        8.7260   30.8700   47.6170 O.3   901  AMP901     -0.1425
      3  O3P       10.1050   32.5020   49.1720 O.3   901  AMP901     -0.1425
      4  O5'        8.1360   31.1700   50.1120 O.3   901  AMP901     -0.2926
      5  C5'        8.1810   31.8300   51.3690 C.3   901  AMP901      0.1831
      6  C4'        8.4920   30.6970   52.3230 C.3   901  AMP901      0.1822
      7  O4'        8.5200   31.0700   53.7100 O.3   901  AMP901     -0.3135
      8  C3'        7.4570   29.6280   52.1530 C.3   901  AMP901      0.2184
      9  O3'        8.2140   28.4060   51.8540 O.3   901  AMP901     -0.2174
     10  C2'        6.6820   29.6700   53.4640 C.3   901  AMP901      0.2570
     11  O2'        6.7030   28.3860   54.1010 O.3   901  AMP901     -0.2130
     12  C1'        7.4020   30.6130   54.4000 C.3   901  AMP901      0.3186
     13  N9         6.5980   31.8170   54.6960 N.pl3 901  AMP901     -0.1439
     14  C8         6.8130   33.0950   54.2780 C.3   901  AMP901      0.3377
     15  N7         5.8680   33.9330   54.7860 N.2   901  AMP901     -0.2095
     16  C5         5.0450   33.1830   55.5370 C.2   901  AMP901      0.2526
     17  C6         3.8490   33.4240   56.3460 C.2   901  AMP901      0.4393
     18  N6         3.3330   34.6780   56.4320 N.pl3 901  AMP901      0.2180
     19  N1         3.2950   32.3680   56.9980 N.2   901  AMP901      0.0021
     20  C2         3.8070   31.1170   56.8960 C.3   901  AMP901      0.5254
     21  N3         4.8910   30.8170   56.1720 N.2   901  AMP901     -0.0055
     22  C4         5.5270   31.8000   55.4890 C.2   901  AMP901      0.3518
@<TRIPOS>BOND
     1     2     1    1
     2     1     3    1
     3     1     4    1
     4     4     5    1
     5     5     6    1
     6     9     8    1
     7     8     6    1
     8     8    10    1
     9     6     7    1
    10    10    11    1
    11    10    12    1
    12     7    12    1
    13    14    13    1
    14    14    15    1
    15    12    13    1
    16    13    22    1
    17    15    16    2
    18    22    16    1
    19    22    21    2
    20    16    17    1
    21    21    20    1
    22    17    18    1
    23    17    19    2
    24    20    19    1
