@<TRIPOS>MOLECULE
3l2u_ELV_A_1.pdb
 31 33 0 0 0
SMALL
GASTEIGER

@<TRIPOS>ATOM
      1  CAA      -39.3390   34.7140  -25.3860 C.3   397  ELV397      0.2525
      2  CAB      -39.9040   29.8640  -23.7560 C.3   397  ELV397      0.0020
      3  CAC      -39.8840   29.4750  -21.1820 C.3   397  ELV397      0.0020
      4  OAD      -35.9260   31.3350  -17.2100 O.co2 397  ELV397     -0.2404
      5  OAE      -36.1380   33.3860  -19.2550 O.2   397  ELV397     -0.2862
      6  OAF      -35.7650   28.4020  -23.5890 O.3   397  ELV397     -0.2183
      7  OAG      -35.8150   29.3640  -18.1390 O.co2 397  ELV397     -0.2404
      8  FAH      -40.1500   37.2970  -23.0410 F     397  ELV397     -0.2036
      9 CLAI      -41.0740   38.2210  -20.1380 Cl    397  ELV397     -0.0799
     10  CAJ      -37.6770   36.6400  -19.7900 C.ar  397  ELV397      0.0007
     11  CAK      -38.8850   37.2570  -19.5810 C.ar  397  ELV397      0.0136
     12  CAL      -37.3090   36.2520  -21.0740 C.ar  397  ELV397     -0.0017
     13  CAM      -36.9720   34.0490  -21.7990 C.ar  397  ELV397      0.0037
     14  CAN      -37.7670   32.0770  -23.5140 C.ar  397  ELV397      0.0538
     15  CAO      -36.8750   30.1000  -20.4440 C.ar  397  ELV397      0.0857
     16  CAP      -37.0390   28.9140  -23.8510 C.3   397  ELV397      0.2044
     17  CAQ      -37.3640   35.8930  -23.4150 C.3   397  ELV397      0.0580
     18  OAR      -38.2160   33.7730  -25.2510 O.3   397  ELV397     -0.4717
     19  CAS      -36.0380   30.5770  -18.1990 C.2   397  ELV397      0.3923
     20  CAT      -39.6690   37.4530  -20.6880 C.ar  397  ELV397      0.0847
     21  CAU      -39.3270   37.0700  -22.0110 C.ar  397  ELV397      0.1469
     22  CAV      -38.0910   36.4430  -22.1980 C.ar  397  ELV397      0.0106
     23  CAW      -37.3870   34.4190  -23.0780 C.ar  397  ELV397      0.0164
     24  CAX      -37.7940   33.4230  -23.9590 C.ar  397  ELV397      0.1365
     25  CAY      -36.4720   31.1060  -19.5770 C.ar  397  ELV397      0.1357
     26  CAZ      -36.4930   32.4570  -20.0070 C.ar  397  ELV397      0.2048
     27  CBA      -36.9350   32.7310  -21.3350 C.ar  397  ELV397      0.0549
     28  CBB      -37.3460   31.7100  -22.2200 C.ar  397  ELV397      0.0660
     29  CBC      -39.2600   29.0640  -22.5520 C.3   397  ELV397      0.0234
     30  CBD      -37.6940   29.1120  -22.4920 C.3   397  ELV397      0.1183
     31  NBE      -37.3110   30.3490  -21.7490 N.ar  397  ELV397     -0.3249
@<TRIPOS>BOND
     1     1    18    1
     2    18    24    1
     3    24    14   ar
     4    24    23   ar
     5    16     6    1
     6    16    30    1
     7     2    29    1
     8    14    28   ar
     9    17    23    1
    10    17    22    1
    11    23    13   ar
    12     8    21    1
    13    29    30    1
    14    29     3    1
    15    30    31    1
    16    28    31   ar
    17    28    27   ar
    18    22    21   ar
    19    22    12   ar
    20    21    20   ar
    21    13    27   ar
    22    31    15   ar
    23    27    26   ar
    24    12    10   ar
    25    20     9    1
    26    20    11   ar
    27    15    25   ar
    28    26    25   ar
    29    26     5    2
    30    10    11   ar
    31    25    19    1
    32    19     7   ar
    33    19     4   ar
