@<TRIPOS>MOLECULE
3l2v_RLT_A_1.pdb
 32 34 0 0 0
SMALL
GASTEIGER

@<TRIPOS>ATOM
      1  CAA      -41.4550   23.5370  -19.3990 C.3   397  RLT397      0.0967
      2  CAB      -36.4520   27.3890  -19.7370 C.3   397  RLT397      0.1223
      3  CAC      -38.1420   29.8930  -23.2030 C.3   397  RLT397      0.0304
      4  CAD      -35.9550   28.6640  -23.3280 C.3   397  RLT397      0.0304
      5  OAE      -36.0430   33.8500  -18.8810 O.2   397  RLT397     -0.2658
      6  OAF      -39.6230   28.5500  -20.8250 O.2   397  RLT397     -0.2631
      7  OAG      -35.7620   28.9210  -17.6720 O.2   397  RLT397     -0.2713
      8  OAH      -35.5780   31.5070  -17.5200 O.3   397  RLT397     -0.2053
      9  FAI      -40.8530   38.1460  -20.8410 F     397  RLT397     -0.2042
     10  CAJ      -39.4790   36.8100  -22.2320 C.ar  397  RLT397      0.0294
     11  CAK      -38.8690   37.1860  -19.9260 C.ar  397  RLT397      0.0294
     12  CAL      -38.3440   36.0320  -22.3970 C.ar  397  RLT397     -0.0002
     13  CAM      -37.7290   36.4060  -20.0900 C.ar  397  RLT397     -0.0002
     14  CAN      -36.2700   34.9880  -21.5660 C.3   397  RLT397      0.1419
     15  NAO      -39.5540   24.0340  -21.0080 N.ar  397  RLT397     -0.1112
     16  NAP      -38.9430   25.0120  -21.4660 N.ar  397  RLT397     -0.1024
     17  NAQ      -36.6250   30.9640  -20.9790 N.2   397  RLT397     -0.3860
     18  NAR      -36.2960   33.5950  -21.1420 N.am  397  RLT397     -0.1948
     19  NAS      -37.8180   27.7110  -22.0230 N.am  397  RLT397     -0.1929
     20  OAT      -40.4910   25.8530  -20.0690 O.2   397  RLT397     -0.4161
     21  CAU      -36.1860   33.1480  -19.8890 C.2   397  RLT397      0.2937
     22  CAV      -38.9610   27.5990  -21.2670 C.2   397  RLT397      0.3205
     23  CAW      -40.5000   24.4770  -20.1580 C.ar  397  RLT397      0.2271
     24  CAX      -39.7410   37.3860  -20.9980 C.ar  397  RLT397      0.1401
     25  CAY      -37.4860   35.8380  -21.3340 C.ar  397  RLT397     -0.0004
     26  CAZ      -35.9520   30.9090  -18.6830 C.3   397  RLT397      0.2837
     27  CBA      -39.4560   26.1470  -20.9430 C.ar  397  RLT397      0.3055
     28  CBB      -36.2570   31.6110  -19.8450 C.2   397  RLT397      0.2041
     29  CBC      -36.7250   29.6290  -21.0760 C.2   397  RLT397      0.1835
     30  CBD      -36.0320   29.5420  -18.7030 C.2   397  RLT397      0.2687
     31  NBE      -36.4120   28.8790  -19.8740 N.am  397  RLT397     -0.2320
     32  CBF      -37.1650   28.9810  -22.4490 C.3   397  RLT397      0.1386
@<TRIPOS>BOND
     1     4    32    1
     2     3    32    1
     3    32    19    1
     4    32    29    1
     5    12    10   ar
     6    12    25   ar
     7    10    24   ar
     8    19    22   am
     9    14    25    1
    10    14    18    1
    11    16    15   ar
    12    16    27   ar
    13    25    13   ar
    14    22    27    1
    15    22     6    2
    16    18    21   am
    17    29    17    2
    18    29    31    1
    19    15    23   ar
    20    24     9    1
    21    24    11   ar
    22    17    28    2
    23    27    20   ar
    24    23    20   ar
    25    23     1    1
    26    13    11   ar
    27    21    28    1
    28    21     5    2
    29    31     2    1
    30    31    30   am
    31    28    26    1
    32    30    26    1
    33    30     7    2
    34    26     8    1
