@<TRIPOS>MOLECULE
3l2w_ELV_A_1.pdb
 31 33 0 0 0
SMALL
GASTEIGER

@<TRIPOS>ATOM
      1  CAA      -39.5640   34.4420  -25.5040 C.3   397  ELV397      0.2525
      2  CAB      -39.5270   29.8320  -24.4170 C.3   397  ELV397      0.0020
      3  CAC      -39.9550   29.7930  -21.8250 C.3   397  ELV397      0.0020
      4  OAD      -35.8730   31.5640  -17.4290 O.co2 397  ELV397     -0.2404
      5  OAE      -36.1750   33.5060  -19.2940 O.2   397  ELV397     -0.2862
      6  OAF      -36.1870   28.1370  -24.1880 O.3   397  ELV397     -0.2183
      7  OAG      -35.7570   29.5190  -18.2260 O.co2 397  ELV397     -0.2404
      8  FAH      -40.3080   37.1940  -23.2390 F     397  ELV397     -0.2036
      9 CLAI      -41.2310   38.2320  -20.2770 Cl    397  ELV397     -0.0799
     10  CAJ      -37.7030   36.9660  -19.9770 C.ar  397  ELV397      0.0007
     11  CAK      -38.9540   37.4860  -19.7770 C.ar  397  ELV397      0.0136
     12  CAL      -37.3520   36.5370  -21.2490 C.ar  397  ELV397     -0.0017
     13  CAM      -37.0320   34.2430  -21.8840 C.ar  397  ELV397      0.0037
     14  CAN      -37.7200   32.2420  -23.6000 C.ar  397  ELV397      0.0538
     15  CAO      -36.7780   30.2370  -20.5860 C.ar  397  ELV397      0.0857
     16  CAP      -36.6170   29.4340  -23.8960 C.3   397  ELV397      0.2044
     17  CAQ      -37.5250   36.0640  -23.5650 C.3   397  ELV397      0.0580
     18  OAR      -38.2440   33.8570  -25.3450 O.3   397  ELV397     -0.4717
     19  CAS      -35.9830   30.7400  -18.3500 C.2   397  ELV397      0.3923
     20  CAT      -39.7960   37.5530  -20.8580 C.ar  397  ELV397      0.0847
     21  CAU      -39.4750   37.1260  -22.1730 C.ar  397  ELV397      0.1469
     22  CAV      -38.1990   36.6040  -22.3410 C.ar  397  ELV397      0.0106
     23  CAW      -37.4610   34.5860  -23.1760 C.ar  397  ELV397      0.0164
     24  CAX      -37.8120   33.5650  -24.0510 C.ar  397  ELV397      0.1365
     25  CAY      -36.4260   31.2510  -19.7070 C.ar  397  ELV397      0.1357
     26  CAZ      -36.4940   32.6150  -20.0940 C.ar  397  ELV397      0.2048
     27  CBA      -36.9340   32.9300  -21.4160 C.ar  397  ELV397      0.0549
     28  CBB      -37.2910   31.9020  -22.3090 C.ar  397  ELV397      0.0660
     29  CBC      -39.0810   29.2610  -23.0070 C.3   397  ELV397      0.0234
     30  CBD      -37.5440   29.3620  -22.6890 C.3   397  ELV397      0.1183
     31  NBE      -37.2070   30.5300  -21.8730 N.ar  397  ELV397     -0.3249
@<TRIPOS>BOND
     1     1    18    1
     2    18    24    1
     3     2    29    1
     4     6    16    1
     5    24    14   ar
     6    24    23   ar
     7    16    30    1
     8    14    28   ar
     9    17    23    1
    10    17    22    1
    11     8    21    1
    12    23    13   ar
    13    29    30    1
    14    29     3    1
    15    30    31    1
    16    22    21   ar
    17    22    12   ar
    18    28    31   ar
    19    28    27   ar
    20    21    20   ar
    21    13    27   ar
    22    31    15   ar
    23    27    26   ar
    24    12    10   ar
    25    20     9    1
    26    20    11   ar
    27    15    25   ar
    28    26    25   ar
    29    26     5    2
    30    10    11   ar
    31    25    19    1
    32    19     7   ar
    33    19     4   ar
