@<TRIPOS>MOLECULE
3l2x_RXR_A_1.pdb
 14 14 0 0 0
SMALL
GASTEIGER

@<TRIPOS>ATOM
      1  N1        44.1400   -6.2870    1.0010 N.4   166  RXR166     -0.1314
      2  O1        44.9730   -5.7850    1.8190 O.3   166  RXR166     -0.1176
      3  C2        44.1580   -7.6870    0.5980 C.3   166  RXR166      0.0884
      4  C3        42.9300   -7.7670   -0.2700 C.2   166  RXR166     -0.0234
      5  C4        42.3900   -6.5680   -0.4710 C.2   166  RXR166     -0.0234
      6  C5        43.0730   -5.5170    0.3720 C.3   166  RXR166      0.0884
      7  C6        43.6150   -4.4030   -0.5150 C.3   166  RXR166      0.0227
      8  C7        42.1010   -4.9720    1.4130 C.3   166  RXR166      0.0227
      9  C8        45.3870   -8.0110   -0.2420 C.3   166  RXR166      0.0227
     10  C9        44.0210   -8.6460    1.7750 C.3   166  RXR166      0.0227
     11  SD        40.9600   -9.5680    0.0990 S.3   166  RXR166     -0.0773
     12  CE        42.3990   -9.0760   -0.8040 C.3   166  RXR166      0.0914
     13  C10       41.2550   -6.2820   -1.4310 C.3   166  RXR166      0.0914
     14  S10       41.8990   -5.8470   -3.0710 S.3   166  RXR166     -0.0773
@<TRIPOS>BOND
     1    14    13    1
     2    13     5    1
     3    12     4    1
     4    12    11    1
     5     7     6    1
     6     5     4    2
     7     5     6    1
     8     4     3    1
     9     9     3    1
    10     6     1    1
    11     6     8    1
    12     3     1    1
    13     3    10    1
    14     1     2    1
