@<TRIPOS>MOLECULE
3l30_DBW_A_1.pdb
 23 27 0 0 0
SMALL
GASTEIGER

@<TRIPOS>ATOM
      1  C1       -37.9190   17.6760   22.0400 C.2   128  DBW128      0.0518
      2  C2       -38.9860   17.4280   22.8770 C.2   128  DBW128     -0.0004
      3  N3       -36.6770   18.0850   22.5360 N.pl3 128  DBW128     -0.2635
      4  C4       -38.1360   17.5060   20.6830 C.2   128  DBW128      0.0107
      5  C5       -38.8430   17.5900   24.2400 C.2   128  DBW128      0.0021
      6  C6       -40.1980   17.0100   22.3250 C.3   128  DBW128      0.0948
      7  C7       -35.6350   18.3230   21.6170 C.2   128  DBW128      0.0725
      8  C8       -36.5170   18.2500   23.9200 C.2   128  DBW128      0.0695
      9  C9       -37.1250   17.7340   19.7840 C.2   128  DBW128     -0.0161
     10  C10      -39.9610   17.3140   25.0300 C.2   128  DBW128      0.0396
     11  C11      -37.6060   18.0020   24.7630 C.2   128  DBW128      0.0163
     12  C12      -41.3110   16.7440   23.1070 C.2   128  DBW128      0.1583
     13  C13      -35.8660   18.1440   20.2390 C.2   128  DBW128      0.0531
     14  C14      -37.4050   17.5370   18.4370 C.3   128  DBW128      0.0348
     15  C15      -41.1870   16.9010   24.4770 C.2   128  DBW128      0.1726
     16  O16      -42.5840   16.3420   22.7970 O.2   128  DBW128     -0.4387
     17  C17      -34.8770   18.3600   19.2720 C.2   128  DBW128      0.2309
     18  C18      -36.4340   17.3130   17.4790 C.3   128  DBW128      0.0773
     19  O19      -42.4000   16.5860   25.0210 O.2   128  DBW128     -0.4350
     20  C20      -43.3520   16.7070   23.9450 C.3   128  DBW128      0.4291
     21  C21      -35.1310   17.9700   17.9550 C.2   128  DBW128      0.2120
     22  O22      -33.6870   18.9580   19.5710 O.2   128  DBW128     -0.2835
     23  O23      -34.1710   18.1970   17.0220 O.2   128  DBW128     -0.2879
@<TRIPOS>BOND
     1    23    21    1
     2    18    21    1
     3    18    14    1
     4    21    17    2
     5    14     9    1
     6    17    22    1
     7    17    13    1
     8     9    13    1
     9     9     4    2
    10    13     7    2
    11     4     1    1
    12     7     3    1
    13     1     3    1
    14     1     2    2
    15     6     2    1
    16     6    12    1
    17     3     8    1
    18    16    12    1
    19    16    20    1
    20     2     5    1
    21    12    15    2
    22     8    11    2
    23    20    19    1
    24     5    11    1
    25     5    10    2
    26    15    19    1
    27    15    10    1
