@<TRIPOS>MOLECULE
3l31_AMP_A_1.pdb
 23 25 0 0 0
SMALL
GASTEIGER

@<TRIPOS>ATOM
      1  P        -18.6430  -17.8360   19.4290 P.3     1  AMP1        0.5327
      2  O1P      -18.9020  -19.1550   18.7920 O.3     1  AMP1       -0.1145
      3  O2P      -17.6530  -18.0090   20.5290 O.3     1  AMP1       -0.1145
      4  O3P      -18.3100  -16.7350   18.4430 O.2     1  AMP1       -0.2224
      5  O5'      -19.9810  -17.3510   20.2420 O.3     1  AMP1       -0.2675
      6  C5'      -21.2250  -16.9740   19.5950 C.3     1  AMP1        0.1860
      7  C4'      -22.1530  -16.2660   20.5940 C.3     1  AMP1        0.1823
      8  O4'      -22.4190  -17.1510   21.6910 O.3     1  AMP1       -0.3135
      9  C3'      -21.4820  -15.0850   21.2660 C.3     1  AMP1        0.2184
     10  O3'      -22.4600  -14.1530   21.7330 O.3     1  AMP1       -0.2174
     11  C2'      -20.7750  -15.6730   22.4830 C.3     1  AMP1        0.2570
     12  O2'      -20.6460  -14.7320   23.5510 O.3     1  AMP1       -0.2130
     13  C1'      -21.7400  -16.7730   22.9010 C.3     1  AMP1        0.3186
     14  N9       -21.0830  -17.9700   23.4650 N.pl3   1  AMP1       -0.1439
     15  C8       -19.8080  -18.3170   23.2160 C.3     1  AMP1        0.3377
     16  N7       -19.4680  -19.4630   23.8400 N.2     1  AMP1       -0.2095
     17  C5       -20.5620  -19.8520   24.5190 C.2     1  AMP1        0.2526
     18  C6       -20.8930  -20.9930   25.3940 C.2     1  AMP1        0.4393
     19  N6       -19.9370  -21.9120   25.6320 N.pl3   1  AMP1        0.2180
     20  N1       -22.1480  -21.0770   25.9280 N.2     1  AMP1        0.0021
     21  C2       -23.0580  -20.1220   25.6520 C.3     1  AMP1        0.5254
     22  N3       -22.8290  -19.0500   24.8570 N.2     1  AMP1       -0.0055
     23  C4       -21.6350  -18.8840   24.2550 C.2     1  AMP1        0.3518
@<TRIPOS>BOND
     1     4     1    2
     2     2     1    1
     3     1     5    1
     4     1     3    1
     5     6     5    1
     6     6     7    1
     7     7     9    1
     8     7     8    1
     9     9    10    1
    10     9    11    1
    11     8    13    1
    12    11    13    1
    13    11    12    1
    14    13    14    1
    15    15    14    1
    16    15    16    1
    17    14    23    1
    18    16    17    2
    19    23    17    1
    20    23    22    2
    21    17    18    1
    22    22    21    1
    23    18    19    1
    24    18    20    2
    25    21    20    1
