@<TRIPOS>MOLECULE
3l36_DHI_H_1.pdb
 10 10 0 0 0
SMALL
GASTEIGER

@<TRIPOS>ATOM
      1  N         10.8820  -24.0900   11.8110 N.3     3  DHI3       -0.1241
      2  CA        10.6800  -23.0010   12.7600 C.3     3  DHI3        0.1621
      3  C         10.0600  -21.8480   12.0020 C.2     3  DHI3        0.2264
      4  O          9.2570  -22.0920   11.1020 O.2     3  DHI3       -0.2867
      5  CB         9.7140  -23.5100   13.8400 C.3     3  DHI3        0.0740
      6  CG         9.6400  -22.5780   15.0210 C.2     3  DHI3        0.0765
      7  ND1        9.0420  -21.3640   15.0900 N.2     3  DHI3       -0.2470
      8  CD2       10.2030  -22.8210   16.2690 C.2     3  DHI3        0.1098
      9  CE1        9.2170  -20.8660   16.3330 C.3     3  DHI3        0.2505
     10  NE2        9.9370  -21.7610   17.0450 N.2     3  DHI3       -0.2415
@<TRIPOS>BOND
     1     4     3    2
     2     1     2    1
     3     3     2    1
     4     2     5    1
     5     5     6    1
     6     6     7    2
     7     6     8    1
     8     7     9    1
     9     8    10    2
    10     9    10    1
