@<TRIPOS>MOLECULE
3l36_DTR_H_1.pdb
 14 15 0 0 0
SMALL
GASTEIGER

@<TRIPOS>ATOM
      1  N          7.7190  -15.5530    7.6500 N.3    10  DTR10      -0.1241
      2  CA         8.4230  -15.3090    8.9010 C.3    10  DTR10       0.1602
      3  CB         9.3820  -16.4550    9.2360 C.3    10  DTR10       0.0513
      4  CG        10.5700  -16.5840    8.3040 C.2    10  DTR10      -0.0140
      5  CD1       10.7210  -17.4550    7.2580 C.2    10  DTR10       0.0907
      6  NE1       11.9700  -17.2930    6.6740 N.2    10  DTR10      -0.2482
      7  CE2       12.6320  -16.2950    7.3530 C.2    10  DTR10       0.0665
      8  CZ2       13.9230  -15.7630    7.1500 C.2    10  DTR10       0.0153
      9  CH2       14.3260  -14.7670    7.9970 C.2    10  DTR10       0.0009
     10  CZ3       13.4920  -14.2670    9.0130 C.2    10  DTR10      -0.0038
     11  CE3       12.2300  -14.8060    9.2310 C.2    10  DTR10      -0.0164
     12  CD2       11.7800  -15.8280    8.3790 C.3    10  DTR10       0.0819
     13  C          7.5110  -15.0550   10.1070 C.2    10  DTR10       0.2264
     14  O          7.9630  -15.0270   11.2350 O.2    10  DTR10      -0.2867
@<TRIPOS>BOND
     1     6     5    1
     2     6     7    2
     3     8     7    1
     4     8     9    2
     5     5     4    2
     6     7    12    1
     7     1     2    1
     8     9    10    1
     9     4    12    1
    10     4     3    1
    11    12    11    1
    12     2     3    1
    13     2    13    1
    14    10    11    2
    15    13    14    2
