@<TRIPOS>MOLECULE
3l38_879_A_1.pdb
 33 37 0 0 0
SMALL
GASTEIGER

@<TRIPOS>ATOM
      1  C1        17.9670  -11.5500   18.8840 C.ar    1  8791        0.0001
      2  N1         9.5500   -2.6170   13.6260 N.ar    1  8791       -0.2192
      3  O1         8.9010   -5.8380   15.2770 O.3     1  8791       -0.4503
      4 CL1        14.9330  -12.1630   15.6050 Cl      1  8791       -0.0822
      5  C2        18.2990  -12.2610   17.7330 C.ar    1  8791        0.0009
      6  N2         9.1510   -2.2870   15.9810 N.ar    1  8791       -0.2192
      7  C3        15.7650   -6.2060   18.2340 C.2     1  8791       -0.0148
      8  N3        15.4440   -6.9370   15.5770 N.2     1  8791       -0.3904
      9  C4        16.6890  -11.0150   19.0400 C.ar    1  8791        0.0023
     10  N4        13.8380   -9.6860   17.3480 N.ar    1  8791       -0.3205
     11  C5        12.0910   -7.1410   16.6490 C.ar    1  8791        0.0046
     12  N5        16.3060   -4.8580   14.8630 N.pl3   1  8791       -0.0977
     13  C6        10.3130   -8.7400   16.9510 C.ar    1  8791        0.0046
     14  C7        11.2010   -6.2550   16.0280 C.ar    1  8791        0.0375
     15  C8         9.4210   -7.8640   16.3340 C.ar    1  8791        0.0375
     16  C9        17.3520  -12.4440   16.7270 C.ar    1  8791        0.0114
     17  C10       12.3000  -10.1120   18.9000 C.ar    1  8791        0.0187
     18  C11       13.4370  -10.9050   19.1700 C.ar    1  8791        0.0187
     19  C12       15.2440   -7.4540   17.9170 C.2     1  8791        0.0255
     20  C13       16.1270   -5.3260   17.2190 C.3     1  8791        0.1041
     21  C14        9.3800   -3.9420   13.8190 C.ar    1  8791        0.1396
     22  C15        8.9930   -3.6200   16.1070 C.ar    1  8791        0.1396
     23  C16        9.4260   -1.8600   14.7340 C.ar    1  8791        0.1991
     24  C17       11.6550   -8.3930   17.1190 C.ar    1  8791        0.0160
     25  C18       15.7260  -11.1920   18.0360 C.ar    1  8791        0.0264
     26  C19        9.8620   -6.6260   15.8730 C.ar    1  8791        0.1454
     27  C20        9.0950   -4.5030   15.0500 C.ar    1  8791        0.1835
     28  C21       16.0710  -11.9090   16.8800 C.ar    1  8791        0.0590
     29  C22       12.5530   -9.3550   17.7670 C.ar    1  8791        0.0602
     30  C23       14.3850  -10.6300   18.1990 C.ar    1  8791        0.0610
     31  C24       15.0960   -7.7830   16.5760 C.2     1  8791        0.1328
     32  C25       15.9510   -5.7220   15.8940 C.2     1  8791        0.2005
     33  C26       14.5350   -9.1240   16.1930 C.3     1  8791        0.1652
@<TRIPOS>BOND
     1     2    21   ar
     2     2    23   ar
     3    21    27   ar
     4    23     6   ar
     5    12    32    1
     6    27     3    1
     7    27    22   ar
     8     3    26    1
     9     8    32    2
    10     8    31    2
    11     4    28    1
    12    26    14   ar
    13    26    15   ar
    14    32    20    1
    15     6    22   ar
    16    14    11   ar
    17    33    31    1
    18    33    10    1
    19    15    13   ar
    20    31    19    1
    21    11    24   ar
    22    16    28   ar
    23    16     5   ar
    24    28    25   ar
    25    13    24   ar
    26    24    29    1
    27    20     7    1
    28    10    29   ar
    29    10    30   ar
    30     5     1   ar
    31    29    17   ar
    32    19     7    2
    33    25    30    1
    34    25     9   ar
    35    30    18   ar
    36     1     9   ar
    37    17    18   ar
