@<TRIPOS>MOLECULE
3l3a_625_A_1.pdb
 32 35 0 0 0
SMALL
GASTEIGER

@<TRIPOS>ATOM
      1  C1         9.8340   -1.6630   13.3870 C.1     1  6251        0.0733
      2  N1        10.4770   -1.5020   12.4290 N.1     1  6251       -0.1959
      3  O1         9.3100   -5.4120   15.1150 O.3     1  6251       -0.4754
      4 CL1        15.1490  -12.3300   15.4850 Cl      1  6251       -0.0822
      5  C2        17.9380  -11.5770   18.9630 C.ar    1  6251        0.0001
      6  N2        15.4710   -6.9100   15.4190 N.2     1  6251       -0.3904
      7  C3        18.3370  -12.3510   17.8720 C.ar    1  6251        0.0009
      8  N3        13.9250   -9.6470   17.1980 N.ar    1  6251       -0.3205
      9  C4        15.5930   -6.0930   18.0760 C.2     1  6251       -0.0148
     10  N4        16.2720   -4.8310   14.7030 N.pl3   1  6251       -0.0977
     11  C5        16.6620  -11.0170   19.0040 C.ar    1  6251        0.0023
     12  C6        12.2630   -7.0830   16.4450 C.ar    1  6251        0.0045
     13  C7        10.3880   -8.5330   16.8530 C.ar    1  6251        0.0045
     14  C8        11.4210   -6.1480   15.8380 C.ar    1  6251        0.0369
     15  C9         9.5410   -7.5960   16.2450 C.ar    1  6251        0.0369
     16  C10       17.4610  -12.5670   16.8100 C.ar    1  6251        0.0114
     17  C11       12.3710  -10.0190   18.7440 C.ar    1  6251        0.0187
     18  C12       13.4860  -10.8390   19.0300 C.ar    1  6251        0.0187
     19  C13       15.1540   -7.3710   17.7610 C.2     1  6251        0.0255
     20  C14       15.9720   -5.2250   17.0560 C.3     1  6251        0.1041
     21  C15       11.7650   -8.2860   16.9620 C.ar    1  6251        0.0160
     22  C16       15.7650  -11.2220   17.9430 C.ar    1  6251        0.0264
     23  C17       10.0480   -6.3980   15.7300 C.ar    1  6251        0.1386
     24  C18       16.1770  -12.0070   16.8430 C.ar    1  6251        0.0590
     25  C19       12.6440   -9.2720   17.6090 C.ar    1  6251        0.0602
     26  C20       14.4410  -10.6030   18.0600 C.ar    1  6251        0.0610
     27  C21       15.1120   -7.7410   16.4220 C.2     1  6251        0.1328
     28  C22       15.8930   -5.6690   15.7380 C.2     1  6251        0.2005
     29  C23        9.0210   -1.8220   14.6080 C.3     1  6251        0.1092
     30  C24       14.6410   -9.1140   16.0470 C.3     1  6251        0.1652
     31  C25        8.4410   -3.2250   14.7660 C.3     1  6251        0.0635
     32  C26        9.2860   -4.1000   15.6890 C.3     1  6251        0.2065
@<TRIPOS>BOND
     1     2     1    3
     2     1    29    1
     3    29    31    1
     4    10    28    1
     5    31    32    1
     6     3    32    1
     7     3    23    1
     8     6    28    2
     9     6    27    2
    10     4    24    1
    11    23    14   ar
    12    23    15   ar
    13    28    20    1
    14    14    12   ar
    15    30    27    1
    16    30     8    1
    17    15    13   ar
    18    27    19    1
    19    12    21   ar
    20    16    24   ar
    21    16     7   ar
    22    24    22   ar
    23    13    21   ar
    24    21    25    1
    25    20     9    1
    26     8    25   ar
    27     8    26   ar
    28    25    17   ar
    29    19     9    2
    30     7     5   ar
    31    22    26    1
    32    22    11   ar
    33    26    18   ar
    34    17    18   ar
    35     5    11   ar
