@<TRIPOS>MOLECULE
3l3l_L3L_A_1.pdb
 19 21 0 0 0
SMALL
GASTEIGER

@<TRIPOS>ATOM
      1  C1       -28.7080   65.1120   24.2910 C.ar  351  L3L351     -0.0001
      2  C2       -27.8410   65.9550   23.6210 C.ar  351  L3L351      0.0047
      3  C3       -28.2640   64.3350   25.3420 C.ar  351  L3L351     -0.0025
      4  C4       -26.0720   65.2250   25.0190 C.ar  351  L3L351      0.0557
      5  C5       -26.5120   66.0220   23.9800 C.ar  351  L3L351      0.0608
      6  C6       -26.9340   64.4000   25.6880 C.ar  351  L3L351      0.0022
      7  C7       -24.7410   65.0730   25.6170 C.2   351  L3L351      0.2491
      8  C8       -25.6700   66.9500   23.2160 C.2   351  L3L351      0.2843
      9  C9       -26.2550   63.6590   26.7810 C.3   351  L3L351      0.1205
     10  C10      -23.3550   62.4670   27.2140 C.3   351  L3L351      0.0387
     11  C11      -24.2770   63.8380   29.0150 C.3   351  L3L351      0.0387
     12  C12      -22.1830   62.1540   28.1100 C.3   351  L3L351      0.0904
     13  C13      -23.0850   63.4460   29.8530 C.3   351  L3L351      0.0904
     14  C14      -23.8640   63.8410   27.5660 C.3   351  L3L351      0.0788
     15  N15      -22.6640   62.1060   29.4770 N.3   351  L3L351     -0.2179
     16  N16      -24.9400   64.2500   26.7020 N.am  351  L3L351     -0.2735
     17  N17      -24.3290   66.8950   23.4850 N.am  351  L3L351     -0.0837
     18  O18      -23.6920   65.5380   25.1910 O.2   351  L3L351     -0.2699
     19  O19      -26.2050   67.7030   22.4160 O.2   351  L3L351     -0.2667
@<TRIPOS>BOND
     1    19     8    2
     2     8    17   am
     3     8     5    1
     4     2     5   ar
     5     2     1   ar
     6     5     4   ar
     7     1     3   ar
     8     4     7    1
     9     4     6   ar
    10    18     7    2
    11     3     6   ar
    12     7    16   am
    13     6     9    1
    14    16     9    1
    15    16    14    1
    16    10    14    1
    17    10    12    1
    18    14    11    1
    19    12    15    1
    20    11    13    1
    21    15    13    1
