@<TRIPOS>MOLECULE
3l3m_A92_A_1.pdb
 25 28 0 0 0
SMALL
GASTEIGER

@<TRIPOS>ATOM
      1  F         28.0630    9.0520   27.6280 F     351  A92351     -0.2034
      2  C1        23.1200    7.5990   24.0440 C.ar  351  A92351      0.0030
      3  C2        26.4820   12.3000   27.5780 C.ar  351  A92351      0.0140
      4  C3        22.8040    8.7820   23.4140 C.ar  351  A92351      0.0074
      5  C4        27.3410   12.9870   28.4090 C.ar  351  A92351     -0.0020
      6  C5        24.0070    7.5420   25.0950 C.ar  351  A92351      0.0357
      7  C6        28.6460   11.0240   28.6900 C.ar  351  A92351      0.0275
      8  C7        26.6910   10.9670   27.3020 C.ar  351  A92351      0.1129
      9  C8        23.3840    9.9690   23.7940 C.ar  351  A92351      0.0897
     10  C9        28.4250   12.3500   28.9680 C.ar  351  A92351     -0.0042
     11  C10       24.2810    9.9110   24.8340 C.ar  351  A92351      0.1785
     12  C11       24.5840    8.7360   25.4850 C.ar  351  A92351      0.1743
     13  C12       27.7860   10.3430   27.8630 C.ar  351  A92351      0.1511
     14  C13       25.7690   10.2530   26.4470 C.1   351  A92351      0.1402
     15  C14       23.0150   11.2080   23.1100 C.2   351  A92351      0.2868
     16  C15       29.7750   13.6030   32.2360 C.3   351  A92351      0.0033
     17  C16       30.1780   15.0010   31.8350 C.3   351  A92351      0.0189
     18  C17       28.7530   13.0680   31.2650 C.3   351  A92351      0.0219
     19  C18       30.6730   15.0210   30.4090 C.3   351  A92351      0.0890
     20  C19       29.3590   13.0510   29.8860 C.3   351  A92351      0.0950
     21  N20       25.0340   10.8580   25.4660 N.2   351  A92351     -0.3370
     22  N21       25.4970    8.9650   26.4760 N.2   351  A92351     -0.3371
     23  N22       29.6010   14.4680   29.5490 N.3   351  A92351     -0.2151
     24  N23       23.7070   12.3020   23.5630 N.am  351  A92351     -0.0836
     25  O24       22.1520   11.1890   22.2410 O.2   351  A92351     -0.2666
@<TRIPOS>BOND
     1    25    15    2
     2    15    24   am
     3    15     9    1
     4     4     9   ar
     5     4     2   ar
     6     9    11   ar
     7     2     6   ar
     8    11    21    2
     9    11    12   ar
    10     6    12   ar
    11    21    14    2
    12    12    22    2
    13    14    22    2
    14    14     8    1
    15     8     3   ar
    16     8    13   ar
    17     3     5   ar
    18     1    13    1
    19    13     7   ar
    20     5    10   ar
    21     7    10   ar
    22    10    20    1
    23    23    20    1
    24    23    19    1
    25    20    18    1
    26    19    17    1
    27    18    16    1
    28    17    16    1
