@<TRIPOS>MOLECULE
3l3n_FUC_A_1.pdb
 10 10 0 0 0
SMALL
GASTEIGER

@<TRIPOS>ATOM
      1  C1        36.7310  -19.9390  130.1310 C.3   845  FUC845      0.1776
      2  C2        35.9400  -20.4170  131.3630 C.3   845  FUC845      0.2141
      3  C3        36.7280  -21.4690  132.1630 C.3   845  FUC845      0.2172
      4  C4        38.1460  -20.9570  132.4670 C.3   845  FUC845      0.2116
      5  C5        38.8140  -20.6120  131.1350 C.3   845  FUC845      0.1483
      6  C6        40.2510  -20.1340  131.2690 C.3   845  FUC845      0.0349
      7  O2        34.7020  -20.9830  130.9420 O.3   845  FUC845     -0.2176
      8  O3        36.0420  -21.7530  133.3780 O.3   845  FUC845     -0.2175
      9  O4        38.0770  -19.7870  133.2900 O.3   845  FUC845     -0.2177
     10  O5        38.0620  -19.5630  130.4930 O.3   845  FUC845     -0.3508
@<TRIPOS>BOND
     1     1    10    1
     2     1     2    1
     3    10     5    1
     4     7     2    1
     5     5     6    1
     6     5     4    1
     7     2     3    1
     8     3     4    1
     9     3     8    1
    10     4     9    1
