@<TRIPOS>MOLECULE
3l3n_LSW_A_1.pdb
 36 38 0 0 0
SMALL
GASTEIGER

@<TRIPOS>ATOM
      1  C         42.5540    6.0590  114.3340 C.2     1  LSW1        0.3803
      2  N         42.8870    8.4750  114.0390 N.3     1  LSW1       -0.2004
      3  O         42.9030    4.9570  113.8580 O.co2   1  LSW1       -0.2441
      4  CA        43.5650    7.2100  114.3560 C.3     1  LSW1        0.1764
      5  CB        44.2160    7.2890  115.7400 C.3     1  LSW1        0.0336
      6  NAA       40.8670   14.5300  111.8140 N.3     1  LSW1       -0.1314
      7  OAC       45.8610    9.1690  108.7270 O.co2   1  LSW1       -0.2437
      8  OAD       44.5260    8.4060  111.9170 O.2     1  LSW1       -0.2718
      9  OAF       44.0720   10.2380  109.4530 O.co2   1  LSW1       -0.2437
     10  CAG       46.9100    6.0110  119.9110 C.ar    1  LSW1       -0.0000
     11  CAH       46.5830    4.8150  119.2810 C.ar    1  LSW1       -0.0003
     12  CAI       46.6230    7.2220  119.2900 C.ar    1  LSW1       -0.0003
     13  CAJ       38.2800    9.4490  108.1810 C.2     1  LSW1        0.0009
     14  CAK       39.4730   10.2010  108.2160 C.2     1  LSW1       -0.0038
     15  CAL       45.9710    4.8330  118.0330 C.ar    1  LSW1       -0.0043
     16  CAM       46.0120    7.2380  118.0410 C.ar    1  LSW1       -0.0043
     17  CAN       38.2970    8.0780  108.0950 C.2     1  LSW1        0.0153
     18  CAO       40.7160    9.5720  108.1620 C.2     1  LSW1       -0.0164
     19  CAP       41.2410    5.9800  107.9210 C.2     1  LSW1        0.0907
     20  CAQ       41.7330   13.3610  111.4520 C.3     1  LSW1        0.1093
     21  CAR       41.0760   12.0260  111.8440 C.3     1  LSW1        0.0206
     22  CAS       42.0970   10.9440  112.2600 C.3     1  LSW1        0.0035
     23  CAT       45.0710    6.0470  116.0060 C.3     1  LSW1        0.0284
     24  CAU       41.3730    9.5920  112.4460 C.3     1  LSW1        0.0268
     25  CAW       43.2740    7.5260  107.9500 C.3     1  LSW1        0.0575
     26  NAX       42.9390    7.9530  110.3880 N.am    1  LSW1       -0.1941
     27  CBB       44.6800    9.1860  109.1570 C.2     1  LSW1        0.3845
     28  CBC       43.3390    8.2480  111.6290 C.2     1  LSW1        0.2577
     29  CBD       45.6860    6.0430  117.4090 C.ar    1  LSW1       -0.0221
     30  CBE       41.8260    7.2200  107.9880 C.2     1  LSW1       -0.0136
     31  CBF       39.5430    7.4490  108.0390 C.2     1  LSW1        0.0665
     32  CBG       40.7600    8.1730  108.0690 C.3     1  LSW1        0.0819
     33  CBI       42.2700    8.3690  112.7180 C.3     1  LSW1        0.1509
     34  CBJ       43.9240    7.8590  109.3020 C.3     1  LSW1        0.2018
     35  OXT       41.4090    6.2460  114.8000 O.co2   1  LSW1       -0.2441
     36  NXZ       39.8520    6.1160  107.9510 N.2     1  LSW1       -0.2482
@<TRIPOS>BOND
     1    19    36    1
     2    19    30    2
     3    25    30    1
     4    25    34    1
     5    36    31    2
     6    30    32    1
     7    31    32    1
     8    31    17    1
     9    32    18    1
    10    17    13    2
    11    18    14    2
    12    13    14    1
    13     7    27   ar
    14    27    34    1
    15    27     9   ar
    16    34    26    1
    17    26    28   am
    18    20     6    1
    19    20    21    1
    20    28     8    2
    21    28    33    1
    22    21    22    1
    23    22    24    1
    24    24    33    1
    25    33     2    1
    26     3     1   ar
    27     2     4    1
    28     1     4    1
    29     1    35   ar
    30     4     5    1
    31     5    23    1
    32    23    29    1
    33    29    15   ar
    34    29    16   ar
    35    15    11   ar
    36    16    12   ar
    37    11    10   ar
    38    12    10   ar
