@<TRIPOS>MOLECULE
3l3r_NDP_A_1.pdb
 48 52 0 0 0
SMALL
GASTEIGER

@<TRIPOS>ATOM
      1  PA        22.3380    6.0240  -10.0640 P.3   188  NDP188      0.2189
      2  O1A       21.0210    6.2380   -9.4610 O.3   188  NDP188     -0.4371
      3  O2A       23.4930    6.9560   -9.7170 O.2   188  NDP188     -0.5170
      4  O5B       22.1080    6.0670  -11.6190 O.3   188  NDP188     -0.3112
      5  C5B       23.2770    6.0010  -12.4510 C.3   188  NDP188      0.1813
      6  C4B       22.9260    6.5220  -13.8370 C.3   188  NDP188      0.1820
      7  O4B       22.3330    8.0220  -13.6150 O.3   188  NDP188     -0.3136
      8  C3B       24.0340    6.6190  -14.9810 C.3   188  NDP188      0.2157
      9  O3B       24.1560    5.3920  -15.7630 O.3   188  NDP188     -0.2175
     10  C2B       23.0630    7.6140  -15.5040 C.3   188  NDP188      0.2314
     11  O2B       22.4200    7.7150  -16.7440 O.3   188  NDP188     -0.2630
     12  C1B       23.0310    8.8110  -14.6040 C.3   188  NDP188      0.3158
     13  N9A       24.0930    9.5280  -13.7790 N.pl3 188  NDP188     -0.1439
     14  C8A       24.6230    9.2450  -12.5570 C.3   188  NDP188      0.3377
     15  N7A       25.4270   10.2630  -12.1970 N.2   188  NDP188     -0.2095
     16  C5A       25.3610   11.2120  -13.1640 C.2   188  NDP188      0.2526
     17  C6A       25.9430   12.4650  -13.3840 C.2   188  NDP188      0.4393
     18  N6A       26.7810   13.0330  -12.4880 N.pl3 188  NDP188      0.2180
     19  N1A       25.6140   13.1370  -14.5270 N.2   188  NDP188      0.0021
     20  C2A       24.7670   12.6700  -15.4430 C.3   188  NDP188      0.5254
     21  N3A       24.2110   11.4800  -15.2740 N.2   188  NDP188     -0.0055
     22  C4A       24.5110   10.7410  -14.1660 C.2   188  NDP188      0.3518
     23  O3        22.7390    4.4700   -9.9140 O.3   188  NDP188     -0.2703
     24  PN        23.3880    3.4200   -8.7570 P.3   188  NDP188      0.2189
     25  O1N       24.5870    3.9640   -8.0310 O.3   188  NDP188     -0.4371
     26  O2N       23.4710    2.1430   -9.4930 O.2   188  NDP188     -0.5170
     27  O5D       22.2030    3.2880   -7.6180 O.3   188  NDP188     -0.3112
     28  C5D       20.9420    2.6970   -7.7140 C.3   188  NDP188      0.1813
     29  C4D       21.0030    1.6300   -6.6440 C.3   188  NDP188      0.1799
     30  O4D       21.3920    2.1890   -5.3200 O.3   188  NDP188     -0.3327
     31  C3D       19.6830    0.8860   -6.4070 C.3   188  NDP188      0.2158
     32  O3D       20.0480   -0.3950   -5.8320 O.3   188  NDP188     -0.2175
     33  C2D       18.9560    1.7380   -5.3610 C.3   188  NDP188      0.2309
     34  O2D       18.0560    0.9060   -4.6240 O.3   188  NDP188     -0.2158
     35  C1D       20.1260    2.1100   -4.4310 C.3   188  NDP188      0.2263
     36  N1N       20.0390    3.3430   -3.5580 N.pl3 188  NDP188     -0.2787
     37  C2N       20.1410    3.1360   -2.1460 C.3   188  NDP188      0.1244
     38  C3N       20.1270    4.2410   -1.2890 C.2   188  NDP188      0.0544
     39  C7N       20.2500    4.0580    0.2200 C.2   188  NDP188      0.2818
     40  O7N       20.2920    5.0690    0.8810 O.2   188  NDP188     -0.2670
     41  N7N       20.4570    2.8170    0.7230 N.am  188  NDP188     -0.0839
     42  C4N       20.0140    5.5510   -1.8510 C.2   188  NDP188      0.0033
     43  C5N       19.9190    5.7400   -3.2420 C.2   188  NDP188      0.0157
     44  C6N       19.9270    4.6610   -4.1350 C.2   188  NDP188      0.0633
     45  P2B       22.8390    7.7390  -18.1010 P.3   188  NDP188      0.5328
     46  O1X       21.2940    7.7320  -18.6420 O.2   188  NDP188     -0.2224
     47  O2X       23.5080    6.3110  -18.5410 O.3   188  NDP188     -0.1145
     48  O3X       23.6090    9.0040  -18.4200 O.3   188  NDP188     -0.1145
@<TRIPOS>BOND
     1    46    45    2
     2    47    45    1
     3    48    45    1
     4    45    11    1
     5    11    10    1
     6     9     8    1
     7    10     8    1
     8    10    12    1
     9    20    21    1
    10    20    19    1
    11    21    22    2
    12     8     6    1
    13    12    13    1
    14    12     7    1
    15    19    17    2
    16    22    13    1
    17    22    16    1
    18     6     7    1
    19     6     5    1
    20    13    14    1
    21    17    16    1
    22    17    18    1
    23    16    15    2
    24    14    15    1
    25     5     4    1
    26     4     1    1
    27     1    23    1
    28     1     3    2
    29     1     2    1
    30    23    24    1
    31    26    24    2
    32    24    25    1
    33    24    27    1
    34    28    27    1
    35    28    29    1
    36    29    31    1
    37    29    30    1
    38    31    32    1
    39    31    33    1
    40    33    34    1
    41    33    35    1
    42    30    35    1
    43    35    36    1
    44    44    36    1
    45    44    43    2
    46    36    37    1
    47    43    42    1
    48    37    38    1
    49    42    38    2
    50    38    39    1
    51    39    41   am
    52    39    40    2
