@<TRIPOS>MOLECULE
3l3r_OAG_A_1.pdb
 22 24 0 0 0
SMALL
GASTEIGER

@<TRIPOS>ATOM
      1  C1        15.1570    5.2080   -1.9970 C.3   187  OAG187      0.1401
      2  N1        14.0770    4.2050   -2.2030 N.pl3 187  OAG187     -0.2319
      3 CL2        12.5490    1.6070   -2.1750 Cl    187  OAG187     -0.0809
      4 CL5        10.0780    7.2440   -1.1860 Cl    187  OAG187     -0.0822
      5  C9        16.6410    6.3030   -0.2480 C.2   187  OAG187      0.0141
      6  C1'       12.7670    4.3690   -1.9450 C.ar  187  OAG187      0.0770
      7  N1'       16.9670    5.9740    3.3850 N.2   187  OAG187     -0.2706
      8  C10       15.6130    5.3900   -0.4900 C.2   187  OAG187      0.0201
      9  C11       11.9280    3.2180   -1.8960 C.ar  187  OAG187      0.0725
     10  C12        9.9950    4.6030   -1.4190 C.ar  187  OAG187      0.0123
     11  C2'       17.9620    6.8970    3.5710 C.1   187  OAG187      0.2517
     12  N2'       18.4020    7.1530    4.7930 N.pl3 187  OAG187     -0.0226
     13  C3'       10.5570    3.3480   -1.6340 C.ar  187  OAG187      0.0136
     14  N3'       18.5420    7.5410    2.5420 N.2   187  OAG187     -0.3061
     15  C4'       18.1150    7.3750    1.2880 C.2   187  OAG187      0.2431
     16  N4'       18.6180    8.0310    0.2610 N.pl3 187  OAG187     -0.0914
     17  C4A       17.0840    6.4820    1.0660 C.2   187  OAG187      0.1225
     18  C5'       10.8230    5.7200   -1.4700 C.ar  187  OAG187      0.0590
     19  C6'       12.1950    5.6260   -1.7350 C.ar  187  OAG187      0.0283
     20  C7'       15.0770    4.6900    0.6140 C.2   187  OAG187      0.1080
     21  N8'       15.4970    4.8650    1.8850 N.2   187  OAG187     -0.1817
     22  C8A       16.4980    5.7700    2.1390 C.1   187  OAG187      0.1049
@<TRIPOS>BOND
     1     2     1    1
     2     2     6    1
     3     3     9    1
     4     1     8    1
     5     6     9   ar
     6     6    19   ar
     7     9    13   ar
     8    19    18   ar
     9    13    10   ar
    10    18    10   ar
    11    18     4    1
    12     8     5    1
    13     8    20    2
    14     5    17    2
    15    16    15    1
    16    20    21    1
    17    17    15    1
    18    17    22    1
    19    15    14    2
    20    21    22    2
    21    22     7    2
    22    14    11    2
    23     7    11    2
    24    11    12    1
