@<TRIPOS>MOLECULE
3l3v_SUC_A_1.pdb
 23 24 0 0 0
SMALL
GASTEIGER

@<TRIPOS>ATOM
      1  C1         3.2610    6.3610   -0.8110 C.3     1  SUC1        0.2713
      2  C2         3.3970    6.7930   -2.2730 C.3     1  SUC1        0.2406
      3  C3         3.1080    5.6100   -3.1880 C.3     1  SUC1        0.2198
      4  C4         4.0490    4.4630   -2.8270 C.3     1  SUC1        0.2144
      5  C5         3.9360    4.1380   -1.3410 C.3     1  SUC1        0.1835
      6  C6         4.9290    3.0480   -0.9420 C.3     1  SUC1        0.2142
      7  O1         1.9150    6.0020   -0.5470 O.3     1  SUC1       -0.3033
      8  O2         2.5200    7.8550   -2.5740 O.3     1  SUC1       -0.2149
      9  O3         3.2760    5.9840   -4.5410 O.3     1  SUC1       -0.2174
     10  O4         3.7180    3.3160   -3.5800 O.3     1  SUC1       -0.2176
     11  O5         4.1580    5.2950   -0.5540 O.3     1  SUC1       -0.3256
     12  O6         6.2370    3.3960   -1.3430 O.3     1  SUC1       -0.2176
     13  C1'        2.4840    6.3820    1.7920 C.3     1  SUC1        0.2406
     14  C2'        1.6190    5.6270    0.7870 C.3     1  SUC1        0.2516
     15  C3'        0.1440    5.8970    1.0600 C.3     1  SUC1        0.2381
     16  C4'       -0.5420    4.6210    0.6250 C.3     1  SUC1        0.2167
     17  C5'        0.5320    3.5550    0.7950 C.3     1  SUC1        0.1835
     18  C6'        0.5840    2.6050   -0.3970 C.3     1  SUC1        0.2142
     19  O1'        2.1050    6.0300    3.1070 O.3     1  SUC1       -0.2149
     20  O2'        1.7740    4.2240    0.9290 O.3     1  SUC1       -0.3272
     21  O3'       -0.3260    7.0030    0.3230 O.3     1  SUC1       -0.2150
     22  O4'       -1.6730    4.3650    1.4300 O.3     1  SUC1       -0.2175
     23  O6'        1.1570    1.3780   -0.0020 O.3     1  SUC1       -0.2176
@<TRIPOS>BOND
     1     9     3    1
     2    10     4    1
     3     3     4    1
     4     3     2    1
     5     4     5    1
     6     8     2    1
     7     2     1    1
     8    12     6    1
     9     5     6    1
    10     5    11    1
    11     1    11    1
    12     1     7    1
    13     7    14    1
    14    18    23    1
    15    18    17    1
    16    21    15    1
    17    16    17    1
    18    16    15    1
    19    16    22    1
    20    14    20    1
    21    14    15    1
    22    14    13    1
    23    17    20    1
    24    13    19    1
