@<TRIPOS>MOLECULE
3l3x_DHT_A_1.pdb
 21 24 0 0 0
SMALL
GASTEIGER

@<TRIPOS>ATOM
      1  C1         1.0700   28.5730    5.1400 C.3     1  DHT1        0.0078
      2  C2         1.8530   27.3070    5.5320 C.3     1  DHT1        0.0645
      3  C3         3.2700   27.3880    5.0270 C.2     1  DHT1        0.1506
      4  O3         3.7760   26.4160    4.4850 O.2     1  DHT1       -0.2961
      5  C4         4.0000   28.6780    5.2700 C.3     1  DHT1        0.0645
      6  C5         3.1330   29.8750    4.8510 C.3     1  DHT1        0.0073
      7  C6         3.9240   31.1950    5.0410 C.3     1  DHT1        0.0004
      8  C7         3.1210   32.3770    4.5010 C.3     1  DHT1        0.0000
      9  C8         1.7010   32.4580    5.0940 C.3     1  DHT1        0.0001
     10  C9         0.9580   31.1060    4.9300 C.3     1  DHT1        0.0000
     11  C10        1.7470   29.8940    5.5010 C.3     1  DHT1        0.0008
     12  C11       -0.4890   31.1920    5.4790 C.3     1  DHT1        0.0001
     13  C12       -1.2900   32.3880    4.9480 C.3     1  DHT1        0.0024
     14  C13       -0.5240   33.7170    5.0500 C.3     1  DHT1        0.0282
     15  C14        0.8700   33.5610    4.4510 C.3     1  DHT1        0.0024
     16  C15        1.4070   34.9950    4.4150 C.3     1  DHT1        0.0027
     17  C16        0.1800   35.8390    4.0350 C.3     1  DHT1        0.0329
     18  C17       -1.0130   34.8890    4.1680 C.3     1  DHT1        0.1519
     19  O17       -2.2040   35.5480    4.6620 O.3     1  DHT1       -0.2232
     20  C18       -0.4570   34.1190    6.5210 C.3     1  DHT1        0.0025
     21  C19        1.8440   29.9790    7.0300 C.3     1  DHT1        0.0000
@<TRIPOS>BOND
     1    17    18    1
     2    17    16    1
     3    18    19    1
     4    18    14    1
     5    16    15    1
     6    15    14    1
     7    15     9    1
     8     4     3    2
     9     8     7    1
    10     8     9    1
    11     6     7    1
    12     6     5    1
    13     6    11    1
    14    10     9    1
    15    10    12    1
    16    10    11    1
    17    13    14    1
    18    13    12    1
    19     3     5    1
    20     3     2    1
    21    14    20    1
    22     1    11    1
    23     1     2    1
    24    11    21    1
