@<TRIPOS>MOLECULE
3l3z_DHT_A_1.pdb
 21 24 0 0 0
SMALL
GASTEIGER

@<TRIPOS>ATOM
      1  C1         0.9240   28.4360    4.8940 C.3     1  DHT1        0.0078
      2  C2         1.6740   27.1360    5.2910 C.3     1  DHT1        0.0645
      3  C3         3.1160   27.2220    4.7900 C.2     1  DHT1        0.1506
      4  O3         3.6500   26.2500    4.2300 O.2     1  DHT1       -0.2961
      5  C4         3.8540   28.5360    4.9920 C.3     1  DHT1        0.0645
      6  C5         3.0190   29.7460    4.5560 C.3     1  DHT1        0.0073
      7  C6         3.7650   31.0880    4.7500 C.3     1  DHT1        0.0004
      8  C7         2.9480   32.2810    4.2030 C.3     1  DHT1        0.0000
      9  C8         1.5390   32.3260    4.8400 C.3     1  DHT1        0.0001
     10  C9         0.7960   30.9830    4.6670 C.3     1  DHT1        0.0000
     11  C10        1.6040   29.7770    5.2060 C.3     1  DHT1        0.0008
     12  C11       -0.6320   31.0700    5.2590 C.3     1  DHT1        0.0001
     13  C12       -1.4940   32.2770    4.8170 C.3     1  DHT1        0.0024
     14  C13       -0.7430   33.6170    4.8980 C.3     1  DHT1        0.0282
     15  C14        0.6430   33.4490    4.2690 C.3     1  DHT1        0.0024
     16  C15        1.2000   34.8770    4.2440 C.3     1  DHT1        0.0027
     17  C16       -0.0080   35.7250    3.8210 C.3     1  DHT1        0.0329
     18  C17       -1.2170   34.7700    3.9910 C.3     1  DHT1        0.1519
     19  O17       -2.3590   35.4750    4.4530 O.3     1  DHT1       -0.2232
     20  C18       -0.7450   34.0610    6.3670 C.3     1  DHT1        0.0025
     21  C19        1.6570   29.8970    6.7500 C.3     1  DHT1        0.0000
@<TRIPOS>BOND
     1    17    18    1
     2    17    16    1
     3    18    19    1
     4    18    14    1
     5     8     7    1
     6     8     9    1
     7     4     3    2
     8    16    15    1
     9    15     9    1
    10    15    14    1
    11     6     7    1
    12     6     5    1
    13     6    11    1
    14    10     9    1
    15    10    11    1
    16    10    12    1
    17     3     5    1
    18     3     2    1
    19    13    14    1
    20    13    12    1
    21     1    11    1
    22     1     2    1
    23    14    20    1
    24    11    21    1
