@<TRIPOS>MOLECULE
3l43_GDP_A_1.pdb
 28 30 0 0 0
SMALL
GASTEIGER

@<TRIPOS>ATOM
      1  PB        14.4030   15.8650   14.7450 P.3   901  GDP901      0.5373
      2  O1B       13.0610   15.2950   14.3510 O.2   901  GDP901     -0.2221
      3  O2B       14.3770   17.3510   14.5020 O.3   901  GDP901     -0.1143
      4  O3B       14.6800   15.5980   16.2030 O.3   901  GDP901     -0.1143
      5  O3A       15.5410   15.2240   13.8020 O.3   901  GDP901     -0.2261
      6  PA        16.5820   14.0630   14.2040 P.3   901  GDP901      0.2231
      7  O1A       15.9410   12.8230   14.7620 O.2   901  GDP901     -0.5169
      8  O2A       17.6370   14.5860   15.1450 O.3   901  GDP901     -0.4370
      9  O5'       17.2140   13.7610   12.7590 O.3   901  GDP901     -0.3111
     10  C5'       16.3630   13.4570   11.6550 C.3   901  GDP901      0.1813
     11  C4'       17.0920   12.5750   10.6430 C.3   901  GDP901      0.1799
     12  O4'       18.1170   13.3510   10.0130 O.3   901  GDP901     -0.3326
     13  C3'       17.7920   11.3840   11.2970 C.3   901  GDP901      0.2158
     14  O3'       17.7310   10.3160   10.3400 O.3   901  GDP901     -0.2175
     15  C2'       19.2400   11.8460   11.4480 C.3   901  GDP901      0.2310
     16  O2'       20.1910   10.7710   11.3850 O.3   901  GDP901     -0.2158
     17  C1'       19.4190   12.8000   10.2750 C.3   901  GDP901      0.2293
     18  N9        20.3590   13.9060   10.5990 N.pl3 901  GDP901     -0.2354
     19  C8        20.1830   14.8470   11.5440 C.3   901  GDP901      0.2246
     20  N7        21.2140   15.7350   11.5500 N.2   901  GDP901     -0.2322
     21  C5        22.0380   15.4000   10.5470 C.2   901  GDP901      0.2182
     22  C6        23.3070   15.9280    9.9850 C.1   901  GDP901      0.2372
     23  O6        23.8570   16.9520   10.4610 O.2   901  GDP901     -0.2069
     24  N1        23.8510   15.2780    8.9400 N.2   901  GDP901     -0.2485
     25  C2        23.2780   14.1800    8.3920 C.1   901  GDP901      0.2531
     26  N2        23.8890   13.5930    7.3320 N.pl3 901  GDP901     -0.0226
     27  N3        22.1300   13.6270    8.8840 N.2   901  GDP901     -0.3074
     28  C4        21.4670   14.2000    9.9190 C.2   901  GDP901      0.2300
@<TRIPOS>BOND
     1    26    25    1
     2    25    27    2
     3    25    24    2
     4    27    28    2
     5    24    22    2
     6    28    21    1
     7    28    18    1
     8    22    23    2
     9    22    21    1
    10    12    17    1
    11    12    11    1
    12    17    18    1
    13    17    15    1
    14    14    13    1
    15    21    20    2
    16    18    19    1
    17    11    13    1
    18    11    10    1
    19    13    15    1
    20    16    15    1
    21    19    20    1
    22    10     9    1
    23     9     6    1
    24     5     6    1
    25     5     1    1
    26     6     7    2
    27     6     8    1
    28     2     1    2
    29     3     1    1
    30     1     4    1
