@<TRIPOS>MOLECULE
3l4b_AMP_A_1.pdb
 23 25 0 0 0
SMALL
GASTEIGER

@<TRIPOS>ATOM
      1  P         -8.5590   23.6130   36.7310 P.3   144  AMP144      0.5327
      2  O1P       -7.4020   23.8560   37.6770 O.3   144  AMP144     -0.1145
      3  O2P       -9.9010   24.1430   37.2110 O.3   144  AMP144     -0.1145
      4  O3P       -8.0910   24.3110   35.4770 O.2   144  AMP144     -0.2224
      5  O5'       -8.5310   22.0170   36.4440 O.3   144  AMP144     -0.2675
      6  C5'       -9.7380   21.2050   36.4170 C.3   144  AMP144      0.1860
      7  C4'      -10.0070   20.3640   37.6840 C.3   144  AMP144      0.1823
      8  O4'      -10.9310   19.3300   37.2990 O.3   144  AMP144     -0.3135
      9  C3'       -8.7920   19.6070   38.2350 C.3   144  AMP144      0.2184
     10  O3'       -8.4420   20.1270   39.5240 O.3   144  AMP144     -0.2174
     11  C2'       -9.2260   18.1280   38.3260 C.3   144  AMP144      0.2570
     12  O2'       -8.9770   17.5650   39.6200 O.3   144  AMP144     -0.2130
     13  C1'      -10.7290   18.1400   38.0490 C.3   144  AMP144      0.3186
     14  N9       -11.0310   16.9210   37.2320 N.pl3 144  AMP144     -0.1439
     15  C8       -10.3790   16.5560   36.1310 C.3   144  AMP144      0.3377
     16  N7       -10.8910   15.4230   35.6650 N.2   144  AMP144     -0.2095
     17  C5       -11.8790   15.0590   36.4630 C.2   144  AMP144      0.2526
     18  C6       -12.7570   13.9820   36.4650 C.2   144  AMP144      0.4393
     19  N6       -12.6880   13.0500   35.5060 N.pl3 144  AMP144      0.2180
     20  N1       -13.6710   13.8950   37.4500 N.2   144  AMP144      0.0021
     21  C2       -13.7370   14.8170   38.4010 C.3   144  AMP144      0.5254
     22  N3       -12.9090   15.8500   38.4140 N.2   144  AMP144     -0.0055
     23  C4       -11.9710   16.0040   37.4650 C.2   144  AMP144      0.3518
@<TRIPOS>BOND
     1     4     1    2
     2    19    18    1
     3    16    15    1
     4    16    17    2
     5    15    14    1
     6     6     5    1
     7     6     7    1
     8     5     1    1
     9    17    18    1
    10    17    23    1
    11    18    20    2
    12     1     3    1
    13     1     2    1
    14    14    23    1
    15    14    13    1
    16     8     7    1
    17     8    13    1
    18    20    21    1
    19    23    22    2
    20     7     9    1
    21    13    11    1
    22     9    11    1
    23     9    10    1
    24    11    12    1
    25    21    22    1
