@<TRIPOS>MOLECULE
3l4d_HEM_A_1.pdb
 43 50 0 0 0
SMALL
GASTEIGER

@<TRIPOS>ATOM
      1  CHA       27.7950  -28.5450    1.6240 C.2   481  HEM481      0.0000
      2  CHB       30.0460  -24.5290    3.2370 C.2   481  HEM481      0.0000
      3  CHC       32.5160  -27.1380    6.4750 C.2   481  HEM481      0.0000
      4  CHD       30.9860  -31.1800    4.2450 C.2   481  HEM481      0.0000
      5  C1A       28.1310  -27.2240    1.8290 C.ar  481  HEM481      0.0000
      6  C2A       27.4840  -26.0680    1.2380 C.ar  481  HEM481      0.0000
      7  C3A       28.1040  -24.9650    1.6800 C.ar  481  HEM481      0.0000
      8  C4A       29.1690  -25.3730    2.5780 C.ar  481  HEM481      0.0000
      9  CMA       27.7430  -23.5090    1.3010 C.3   481  HEM481      0.0000
     10  CAA       26.2930  -26.1010    0.2530 C.3   481  HEM481      0.0000
     11  CBA       26.8560  -26.0670   -1.1680 C.3   481  HEM481      0.0000
     12  CGA       25.7550  -26.2600   -2.1810 C.2   481  HEM481      0.0000
     13  O1A       24.5620  -26.0700   -1.8230 O.co2 481  HEM481      0.0000
     14  O2A       26.0710  -26.6060   -3.3520 O.co2 481  HEM481      0.0000
     15  C1B       30.8980  -24.8580    4.2690 C.2   481  HEM481      0.0000
     16  C2B       31.6950  -23.9470    5.0790 C.2   481  HEM481      0.0000
     17  C3B       32.3690  -24.6790    5.9700 C.2   481  HEM481      0.0000
     18  C4B       32.0330  -26.0690    5.7610 C.2   481  HEM481      0.0000
     19  CMB       31.7670  -22.4040    4.9530 C.3   481  HEM481      0.0000
     20  CAB       33.3430  -24.1420    7.0380 C.2   481  HEM481      0.0000
     21  CBB       33.2210  -24.5600    8.3010 C.2   481  HEM481      0.0000
     22  C1C       32.2930  -28.4610    6.1690 C.ar  481  HEM481      0.0000
     23  C2C       32.7790  -29.5990    6.9210 C.ar  481  HEM481      0.0000
     24  C3C       32.3570  -30.7050    6.3080 C.ar  481  HEM481      0.0000
     25  C4C       31.5880  -30.3190    5.1420 C.ar  481  HEM481      0.0000
     26  CMC       33.6310  -29.5460    8.2080 C.3   481  HEM481      0.0000
     27  CAC       32.6470  -32.1470    6.7630 C.2   481  HEM481      0.0000
     28  CBC       33.4720  -32.8950    6.0220 C.2   481  HEM481      0.0000
     29  C1D       29.9740  -30.8800    3.3550 C.2   481  HEM481      0.0000
     30  C2D       29.2240  -31.8480    2.5790 C.2   481  HEM481      0.0000
     31  C3D       28.2180  -31.0340    1.7570 C.2   481  HEM481      0.0000
     32  C4D       28.4670  -29.6460    2.1170 C.2   481  HEM481      0.0000
     33  CMD       29.3900  -33.3820    2.5730 C.3   481  HEM481      0.0000
     34  CAD       27.1890  -31.6010    0.7480 C.3   481  HEM481      0.0000
     35  CBD       25.8250  -31.8430    1.3900 C.3   481  HEM481      0.0000
     36  CGD       24.7730  -32.0640    0.3200 C.2   481  HEM481      0.0000
     37  O1D       23.5880  -32.2960    0.6850 O.co2 481  HEM481      0.0000
     38  O2D       25.1010  -32.0100   -0.9010 O.co2 481  HEM481      0.0000
     39  NA        29.1480  -26.7610    2.6430 N.ar  481  HEM481      0.0000
     40  NB        31.1370  -26.1410    4.7150 N.2   481  HEM481      0.0000
     41  NC        31.5710  -28.9380    5.0910 N.ar  481  HEM481      0.0000
     42  ND        29.5000  -29.6050    3.0530 N.2   481  HEM481      0.0000
     43 FE         30.3460  -27.8620    3.8690 Fe    481  HEM481      0.0000
@<TRIPOS>BOND
     1    14    12   ar
     2    12    13   ar
     3    12    11    1
     4    11    10    1
     5    38    36   ar
     6    10     6    1
     7    36    37   ar
     8    36    35    1
     9    34    35    1
    10    34    31    1
    11     6     7   ar
    12     6     5   ar
    13     9     7    1
    14     1     5    2
    15     1    32    1
    16     7     8   ar
    17    31    32    1
    18    31    30    2
    19     5    39   ar
    20    32    42    2
    21    33    30    1
    22     8    39   ar
    23     8     2    2
    24    30    29    1
    25    39    43    1
    26    42    29    1
    27    42    43    1
    28     2    15    1
    29    29     4    2
    30    43    40    1
    31    43    41    1
    32     4    25    1
    33    15    40    2
    34    15    16    1
    35    40    18    1
    36    19    16    1
    37    16    17    2
    38    41    25   ar
    39    41    22   ar
    40    25    24   ar
    41    18    17    1
    42    18     3    2
    43    17    20    1
    44    28    27    2
    45    22     3    1
    46    22    23   ar
    47    24    27    1
    48    24    23   ar
    49    23    26    1
    50    20    21    2
