@<TRIPOS>MOLECULE
3l4d_TPF_A_1.pdb
 22 24 0 0 0
SMALL
GASTEIGER

@<TRIPOS>ATOM
      1  O         30.7300  -28.2030   -1.4180 O.3   490  TPF490     -0.2169
      2  C1        31.9170  -28.9600   -1.6580 C.3   490  TPF490      0.1922
      3  C2        32.3460  -28.7000   -3.1040 C.3   490  TPF490      0.1658
      4  C5        33.0090  -28.5460   -0.6800 C.3   490  TPF490      0.1658
      5  C8        31.6360  -30.4000   -1.3460 C.ar  490  TPF490      0.0365
      6  N1        32.4150  -27.2300   -3.2470 N.ar  490  TPF490     -0.2271
      7  C3        33.6010  -26.7710   -3.9450 C.ar  490  TPF490      0.1973
      8  N3        31.3090  -26.6910   -3.9410 N.ar  490  TPF490     -0.1451
      9  N2        33.1620  -25.9830   -4.9550 N.ar  490  TPF490     -0.2007
     10  C4        31.8040  -25.9380   -4.9530 C.ar  490  TPF490      0.2210
     11  N4        32.5380  -27.6380    0.3800 N.ar  490  TPF490     -0.2271
     12  C6        31.1980  -27.8890    0.9120 C.ar  490  TPF490      0.1973
     13  N6        33.4090  -27.6830    1.4850 N.ar  490  TPF490     -0.1451
     14  N5        31.3100  -28.0070    2.2620 N.ar  490  TPF490     -0.2007
     15  C7        32.6300  -27.8930    2.5850 C.ar  490  TPF490      0.2210
     16  C9        30.3260  -30.8520   -1.2970 C.ar  490  TPF490      0.0027
     17  C13       32.6830  -31.2640   -1.0630 C.ar  490  TPF490      0.1408
     18  C10       30.0660  -32.1790   -0.9870 C.ar  490  TPF490      0.0295
     19  C11       31.1160  -33.0490   -0.7150 C.ar  490  TPF490      0.1424
     20  F1        30.8590  -34.3340   -0.4150 F     490  TPF490     -0.2041
     21  C12       32.4280  -32.5930   -0.7530 C.ar  490  TPF490      0.0590
     22  F2        33.9560  -30.8240   -1.0990 F     490  TPF490     -0.2043
@<TRIPOS>BOND
     1     9    10   ar
     2     9     7   ar
     3    10     8   ar
     4     7     6   ar
     5     8     6   ar
     6     6     3    1
     7     3     2    1
     8     2     1    1
     9     2     5    1
    10     2     4    1
    11     5    16   ar
    12     5    17   ar
    13    16    18   ar
    14    22    17    1
    15    17    21   ar
    16    18    19   ar
    17    21    19   ar
    18    19    20    1
    19     4    11    1
    20    11    12   ar
    21    11    13   ar
    22    12    14   ar
    23    13    15   ar
    24    14    15   ar
