@<TRIPOS>MOLECULE
3l4g_PHE_A_1.pdb
 12 12 0 0 0
SMALL
GASTEIGER

@<TRIPOS>ATOM
      1  N         47.6450   98.1450    1.2220 N.3   509  PHE509     -0.1205
      2  CA        47.7690   96.6710    1.4740 C.3   509  PHE509      0.1986
      3  C         48.8030   96.2800    2.5400 C.2   509  PHE509      0.3822
      4  O         48.8650   95.0790    2.8900 O.co2 509  PHE509     -0.2440
      5  CB        48.0980   95.9410    0.1690 C.3   509  PHE509      0.0569
      6  CG        48.4210   94.5210    0.3680 C.ar  509  PHE509     -0.0202
      7  CD1       49.7050   94.1410    0.6950 C.ar  509  PHE509     -0.0042
      8  CD2       47.4190   93.5810    0.3680 C.ar  509  PHE509     -0.0042
      9  CE1       49.9910   92.8520    1.0340 C.ar  509  PHE509     -0.0003
     10  CE2       47.6960   92.2840    0.7050 C.ar  509  PHE509     -0.0003
     11  CZ        48.9930   91.9180    1.0440 C.ar  509  PHE509     -0.0000
     12  OXT       49.5450   97.1690    3.0140 O.co2 509  PHE509     -0.2440
@<TRIPOS>BOND
     1     5     6    1
     2     5     2    1
     3     6     8   ar
     4     6     7   ar
     5     8    10   ar
     6     7     9   ar
     7    10    11   ar
     8     9    11   ar
     9     1     2    1
    10     2     3    1
    11     3     4   ar
    12     3    12   ar
