@<TRIPOS>MOLECULE
3l4i_ADP_A_1.pdb
 27 29 0 0 0
SMALL
GASTEIGER

@<TRIPOS>ATOM
      1  PB        20.7220    4.5950   44.0000 P.3   401  ADP401      0.5373
      2  O1B       20.9740    5.6570   45.0440 O.3   401  ADP401     -0.1143
      3  O2B       21.9910    4.0500   43.3860 O.2   401  ADP401     -0.2221
      4  O3B       19.7990    3.4530   44.4510 O.3   401  ADP401     -0.1143
      5  PA        18.8430    4.7450   41.7620 P.3   401  ADP401      0.2231
      6  O1A       17.5490    5.4480   42.1100 O.3   401  ADP401     -0.4370
      7  O2A       18.8520    3.2380   41.7430 O.2   401  ADP401     -0.5169
      8  O3A       20.0680    5.2920   42.6710 O.3   401  ADP401     -0.2261
      9  O5'       19.2990    5.2160   40.2920 O.3   401  ADP401     -0.3111
     10  C5'       19.3180    6.5650   39.8730 C.3   401  ADP401      0.1813
     11  C4'       19.8740    6.6290   38.4520 C.3   401  ADP401      0.1821
     12  O4'       18.9220    6.0100   37.5550 O.3   401  ADP401     -0.3135
     13  C3'       20.1050    8.0490   37.9300 C.3   401  ADP401      0.2184
     14  O3'       21.3950    8.1940   37.3270 O.3   401  ADP401     -0.2174
     15  C2'       19.1070    8.1720   36.8190 C.3   401  ADP401      0.2570
     16  O2'       19.5390    9.0390   35.7830 O.3   401  ADP401     -0.2130
     17  C1'       19.0100    6.7290   36.3450 C.3   401  ADP401      0.3186
     18  N9        17.7840    6.5540   35.5750 N.pl3 401  ADP401     -0.1439
     19  C8        16.5300    6.6370   36.0800 C.3   401  ADP401      0.3377
     20  N7        15.6220    6.4410   35.0910 N.2   401  ADP401     -0.2095
     21  C5        16.3200    6.2230   33.9390 C.2   401  ADP401      0.2526
     22  C6        15.9870    5.9500   32.5330 C.2   401  ADP401      0.4393
     23  N6        14.6940    5.8760   32.1760 N.pl3 401  ADP401      0.2180
     24  N1        16.9780    5.7680   31.6190 N.2   401  ADP401      0.0021
     25  C2        18.2620    5.8610   31.9990 C.3   401  ADP401      0.5254
     26  N3        18.6260    6.1230   33.2830 N.2   401  ADP401     -0.0055
     27  C4        17.7260    6.2980   34.2620 C.2   401  ADP401      0.3518
@<TRIPOS>BOND
     1    24    25    1
     2    24    22    2
     3    25    26    1
     4    23    22    1
     5    22    21    1
     6    26    27    2
     7    21    27    1
     8    21    20    2
     9    27    18    1
    10    20    19    1
    11    18    19    1
    12    18    17    1
    13    16    15    1
    14    17    15    1
    15    17    12    1
    16    15    13    1
    17    14    13    1
    18    12    11    1
    19    13    11    1
    20    11    10    1
    21    10     9    1
    22     9     5    1
    23     7     5    2
    24     5     6    1
    25     5     8    1
    26     8     1    1
    27     3     1    2
    28     1     4    1
    29     1     2    1
