@<TRIPOS>MOLECULE
3l4j_TSP_D_1.pdb
 20 21 0 0 0
SMALL
GASTEIGER

@<TRIPOS>ATOM
      1  P         30.9500  -15.2550   -5.7920 P.3    11  TSP11       0.3942
      2  OP1       30.0910  -14.2640   -5.1070 O.3    11  TSP11      -0.1425
      3  OP2       32.4060  -15.2740   -5.5320 O.3    11  TSP11      -0.1425
      4  O5'       30.3790  -16.7200   -5.4930 O.3    11  TSP11      -0.2927
      5  C5'       29.0360  -17.0470   -5.8330 C.3    11  TSP11       0.1812
      6  C4'       28.7740  -18.5290   -5.6270 C.3    11  TSP11       0.1578
      7  O4'       29.7850  -19.3010   -6.3260 O.3    11  TSP11      -0.3357
      8  C3'       28.8040  -18.9900   -4.1720 C.3    11  TSP11       0.0919
      9  S3'       27.6910  -19.8360   -3.9070 S.3    11  TSP11      -0.0803
     10  C2'       30.1250  -19.7430   -4.0570 C.3    11  TSP11       0.0661
     11  C1'       30.2930  -20.2980   -5.4650 C.3    11  TSP11       0.2072
     12  N1        31.7130  -20.5650   -5.8280 N.am   11  TSP11      -0.1795
     13  C2        32.1200  -21.8620   -6.0510 C.1    11  TSP11       0.2844
     14  O2        31.3720  -22.8190   -5.9680 O.2    11  TSP11      -0.1918
     15  N3        33.4460  -21.9950   -6.3780 N.2    11  TSP11      -0.2455
     16  C4        34.3810  -20.9840   -6.5000 C.1    11  TSP11       0.2134
     17  O4        35.5510  -21.2060   -6.7980 O.2    11  TSP11      -0.2088
     18  C5        33.8870  -19.6540   -6.2520 C.2    11  TSP11       0.0891
     19  C5M       34.8140  -18.4810   -6.3550 C.3    11  TSP11       0.0462
     20  C6        32.5950  -19.5100   -5.9310 C.2    11  TSP11       0.0877
@<TRIPOS>BOND
     1    17    16    2
     2    16    15    2
     3    16    18    1
     4    15    13    2
     5    19    18    1
     6     7     6    1
     7     7    11    1
     8    18    20    2
     9    13    14    2
    10    13    12   am
    11    20    12    1
    12     5     6    1
    13     5     4    1
    14    12    11    1
    15     1     3    1
    16     1     4    1
    17     1     2    1
    18     6     8    1
    19    11    10    1
    20     8    10    1
    21     8     9    1
