@<TRIPOS>MOLECULE
3l4k_TSP_D_1.pdb
 20 21 0 0 0
SMALL
GASTEIGER

@<TRIPOS>ATOM
      1  P        -31.2320   14.2920   -5.6120 P.3    11  TSP11       0.4718
      2  OP1      -30.2330   13.3080   -5.0790 O.3    11  TSP11      -0.1310
      3  OP2      -32.6420   14.0750   -5.4170 O.2    11  TSP11      -0.2429
      4  O5'      -30.7500   15.7200   -5.3910 O.3    11  TSP11      -0.2823
      5  C5'      -29.4050   16.0650   -5.5530 C.3    11  TSP11       0.1822
      6  C4'      -29.2040   17.5500   -5.2990 C.3    11  TSP11       0.1579
      7  O4'      -30.0230   18.3090   -6.2220 O.3    11  TSP11      -0.3357
      8  C3'      -29.6290   18.0600   -3.9280 C.3    11  TSP11       0.0919
      9  S3'      -28.5960   17.8700   -2.9690 S.3    11  TSP11      -0.0803
     10  C2'      -29.8390   19.5440   -4.2040 C.3    11  TSP11       0.0661
     11  C1'      -30.3800   19.5480   -5.6320 C.3    11  TSP11       0.2072
     12  N1       -31.8590   19.7170   -5.7020 N.am   11  TSP11      -0.1795
     13  C2       -32.3910   20.9880   -5.7350 C.1    11  TSP11       0.2844
     14  O2       -31.7120   21.9990   -5.7100 O.2    11  TSP11      -0.1918
     15  N3       -33.7600   21.0330   -5.7990 N.2    11  TSP11      -0.2455
     16  C4       -34.6300   19.9600   -5.8320 C.1    11  TSP11       0.2134
     17  O4       -35.8470   20.1030   -5.8900 O.2    11  TSP11      -0.2088
     18  C5       -34.0070   18.6610   -5.7950 C.2    11  TSP11       0.0891
     19  C5M      -34.8510   17.4210   -5.8260 C.3    11  TSP11       0.0462
     20  C6       -32.6710   18.6000   -5.7330 C.2    11  TSP11       0.0877
@<TRIPOS>BOND
     1     7    11    1
     2     7     6    1
     3    17    16    2
     4    16    15    2
     5    16    18    1
     6    19    18    1
     7    15    13    2
     8    18    20    2
     9    13    14    2
    10    13    12   am
    11    20    12    1
    12    12    11    1
    13    11    10    1
    14     1     3    2
    15     1     4    1
    16     1     2    1
    17     5     4    1
    18     5     6    1
    19     6     8    1
    20    10     8    1
    21     8     9    1
