@<TRIPOS>MOLECULE
3l4m_HEC_A_1.pdb
 43 50 0 0 0
SMALL
GASTEIGER

@<TRIPOS>ATOM
      1 FE         25.5570   29.3360  -84.4500 Fe    500  HEC500      0.0000
      2  CHA       25.5470   30.1600  -81.1590 C.2   500  HEC500      0.0000
      3  CHB       22.8820   31.3970  -85.0030 C.2   500  HEC500      0.0000
      4  CHC       26.3480   29.4230  -87.8080 C.2   500  HEC500      0.0000
      5  CHD       28.1050   27.0830  -83.9090 C.2   500  HEC500      0.0000
      6  NA        24.4020   30.5760  -83.2610 N.ar  500  HEC500      0.0000
      7  C1A       24.4400   30.7310  -81.9590 C.ar  500  HEC500      0.0000
      8  C2A       23.2880   31.5080  -81.4240 C.ar  500  HEC500      0.0000
      9  C3A       22.5490   31.8640  -82.5070 C.ar  500  HEC500      0.0000
     10  C4A       23.3180   31.2840  -83.6240 C.ar  500  HEC500      0.0000
     11  CMA       21.2630   32.6760  -82.5740 C.3   500  HEC500      0.0000
     12  CAA       22.9280   31.9170  -80.0240 C.3   500  HEC500      0.0000
     13  CBA       22.0720   30.8250  -79.4070 C.3   500  HEC500      0.0000
     14  CGA       21.9980   31.0630  -77.8520 C.2   500  HEC500      0.0000
     15  O1A       21.1470   30.4620  -77.1420 O.co2 500  HEC500      0.0000
     16  O2A       22.7990   31.8280  -77.2660 O.co2 500  HEC500      0.0000
     17  NB        24.7510   30.2590  -86.1130 N.2   500  HEC500      0.0000
     18  C1B       23.6910   31.0520  -86.1930 C.2   500  HEC500      0.0000
     19  C2B       23.4130   31.5500  -87.5660 C.2   500  HEC500      0.0000
     20  C3B       24.3710   30.9560  -88.3830 C.2   500  HEC500      0.0000
     21  C4B       25.1750   30.1760  -87.4110 C.2   500  HEC500      0.0000
     22  CMB       22.2710   32.4400  -88.0090 C.3   500  HEC500      0.0000
     23  CAB       24.6240   31.1240  -89.8860 C.3   500  HEC500      0.0000
     24  CBB       25.0300   32.5810  -90.1300 C.3   500  HEC500      0.0000
     25  NC        27.0370   28.4610  -85.6360 N.ar  500  HEC500      0.0000
     26  C1C       27.1180   28.4880  -86.9600 C.ar  500  HEC500      0.0000
     27  C2C       28.0720   27.4940  -87.5350 C.ar  500  HEC500      0.0000
     28  C3C       28.5680   26.8290  -86.4320 C.ar  500  HEC500      0.0000
     29  C4C       27.8480   27.4690  -85.3030 C.ar  500  HEC500      0.0000
     30  CMC       28.3410   27.3070  -88.9970 C.3   500  HEC500      0.0000
     31  CAC       29.5320   25.6580  -86.2360 C.3   500  HEC500      0.0000
     32  CBC       30.8740   25.8660  -86.9230 C.3   500  HEC500      0.0000
     33  ND        26.6370   28.6950  -82.7900 N.2   500  HEC500      0.0000
     34  C1D       27.6970   27.9120  -82.7340 C.2   500  HEC500      0.0000
     35  C2D       28.3470   27.8850  -81.4120 C.2   500  HEC500      0.0000
     36  C3D       27.6280   28.7810  -80.6260 C.2   500  HEC500      0.0000
     37  C4D       26.5700   29.2300  -81.5440 C.2   500  HEC500      0.0000
     38  CMD       29.5500   27.0770  -81.0060 C.3   500  HEC500      0.0000
     39  CAD       27.8770   29.1760  -79.1890 C.3   500  HEC500      0.0000
     40  CBD       29.1520   30.0010  -79.2690 C.3   500  HEC500      0.0000
     41  CGD       29.3200   30.8380  -78.0010 C.2   500  HEC500      0.0000
     42  O1D       30.3860   31.4310  -77.8710 O.co2 500  HEC500      0.0000
     43  O2D       28.4030   30.9980  -77.1530 O.co2 500  HEC500      0.0000
@<TRIPOS>BOND
     1    24    23    1
     2    23    20    1
     3    30    27    1
     4    20    19    2
     5    20    21    1
     6    22    19    1
     7     4    21    2
     8     4    26    1
     9    19    18    1
    10    27    26   ar
    11    27    28   ar
    12    21    17    1
    13    26    25   ar
    14    32    31    1
    15    28    31    1
    16    28    29   ar
    17    18    17    2
    18    18     3    1
    19    17     1    1
    20    25    29   ar
    21    25     1    1
    22    29     5    1
    23     3    10    2
    24     1     6    1
    25     1    33    1
    26     5    34    2
    27    10     6   ar
    28    10     9   ar
    29     6     7   ar
    30    33    34    1
    31    33    37    2
    32    34    35    1
    33    11     9    1
    34     9     8   ar
    35     7     8   ar
    36     7     2    2
    37    37     2    1
    38    37    36    1
    39     8    12    1
    40    35    38    1
    41    35    36    2
    42    36    39    1
    43    12    13    1
    44    13    14    1
    45    40    39    1
    46    40    41    1
    47    41    42   ar
    48    41    43   ar
    49    14    16   ar
    50    14    15   ar
