@<TRIPOS>MOLECULE
3l4o_HEC_A_1.pdb
 43 50 0 0 0
SMALL
GASTEIGER

@<TRIPOS>ATOM
      1 FE         25.5940   29.3910  -84.4030 Fe    500  HEC500      0.0000
      2  CHA       25.4740   30.1400  -81.1050 C.2   500  HEC500      0.0000
      3  CHB       22.8330   31.4590  -85.0080 C.2   500  HEC500      0.0000
      4  CHC       26.3620   29.3750  -87.6970 C.2   500  HEC500      0.0000
      5  CHD       28.1330   27.0350  -83.8070 C.2   500  HEC500      0.0000
      6  NA        24.3590   30.6160  -83.2500 N.ar  500  HEC500      0.0000
      7  C1A       24.3910   30.7310  -81.9270 C.ar  500  HEC500      0.0000
      8  C2A       23.2440   31.5430  -81.3940 C.ar  500  HEC500      0.0000
      9  C3A       22.5030   31.9040  -82.4880 C.ar  500  HEC500      0.0000
     10  C4A       23.2610   31.2990  -83.6170 C.ar  500  HEC500      0.0000
     11  CMA       21.2760   32.7570  -82.5850 C.3   500  HEC500      0.0000
     12  CAA       22.9480   31.9350  -79.9830 C.3   500  HEC500      0.0000
     13  CBA       21.9200   31.0280  -79.3680 C.3   500  HEC500      0.0000
     14  CGA       21.9310   31.1320  -77.8130 C.2   500  HEC500      0.0000
     15  O1A       21.0500   30.5220  -77.1970 O.co2 500  HEC500      0.0000
     16  O2A       22.7820   31.7740  -77.1480 O.co2 500  HEC500      0.0000
     17  NB        24.7750   30.3020  -86.0280 N.2   500  HEC500      0.0000
     18  C1B       23.6820   31.0850  -86.1540 C.2   500  HEC500      0.0000
     19  C2B       23.4030   31.5210  -87.5490 C.2   500  HEC500      0.0000
     20  C3B       24.3840   30.8950  -88.3220 C.2   500  HEC500      0.0000
     21  C4B       25.1940   30.1580  -87.3180 C.2   500  HEC500      0.0000
     22  CMB       22.2520   32.4150  -87.9780 C.3   500  HEC500      0.0000
     23  CAB       24.6790   31.0150  -89.8220 C.3   500  HEC500      0.0000
     24  CBB       24.9690   32.4970  -90.0810 C.3   500  HEC500      0.0000
     25  NC        27.0270   28.3690  -85.5610 N.ar  500  HEC500      0.0000
     26  C1C       27.1230   28.4040  -86.8850 C.ar  500  HEC500      0.0000
     27  C2C       28.1170   27.4610  -87.4550 C.ar  500  HEC500      0.0000
     28  C3C       28.6380   26.7670  -86.3540 C.ar  500  HEC500      0.0000
     29  C4C       27.8830   27.3870  -85.2190 C.ar  500  HEC500      0.0000
     30  CMC       28.4010   27.2670  -88.9110 C.3   500  HEC500      0.0000
     31  CAC       29.6390   25.6020  -86.2420 C.3   500  HEC500      0.0000
     32  CBC       31.0380   25.8240  -86.8130 C.3   500  HEC500      0.0000
     33  ND        26.6200   28.6600  -82.7320 N.2   500  HEC500      0.0000
     34  C1D       27.6880   27.8500  -82.6610 C.2   500  HEC500      0.0000
     35  C2D       28.3280   27.8080  -81.3380 C.2   500  HEC500      0.0000
     36  C3D       27.5860   28.7130  -80.5610 C.2   500  HEC500      0.0000
     37  C4D       26.5280   29.1900  -81.4780 C.2   500  HEC500      0.0000
     38  CMD       29.5820   27.0400  -80.9480 C.3   500  HEC500      0.0000
     39  CAD       27.8700   29.1000  -79.1250 C.3   500  HEC500      0.0000
     40  CBD       29.1310   29.9580  -79.2450 C.3   500  HEC500      0.0000
     41  CGD       29.2110   30.8160  -77.9830 C.2   500  HEC500      0.0000
     42  O1D       30.2080   31.5310  -77.8470 O.co2 500  HEC500      0.0000
     43  O2D       28.2760   30.8060  -77.1530 O.co2 500  HEC500      0.0000
@<TRIPOS>BOND
     1    24    23    1
     2    23    20    1
     3    30    27    1
     4    20    19    2
     5    20    21    1
     6    22    19    1
     7     4    21    2
     8     4    26    1
     9    19    18    1
    10    27    26   ar
    11    27    28   ar
    12    21    17    1
    13    26    25   ar
    14    32    31    1
    15    28    31    1
    16    28    29   ar
    17    18    17    2
    18    18     3    1
    19    17     1    1
    20    25    29   ar
    21    25     1    1
    22    29     5    1
    23     3    10    2
    24     1     6    1
    25     1    33    1
    26     5    34    2
    27    10     6   ar
    28    10     9   ar
    29     6     7   ar
    30    33    34    1
    31    33    37    2
    32    34    35    1
    33    11     9    1
    34     9     8   ar
    35     7     8   ar
    36     7     2    2
    37    37     2    1
    38    37    36    1
    39     8    12    1
    40    35    38    1
    41    35    36    2
    42    36    39    1
    43    12    13    1
    44    13    14    1
    45    40    39    1
    46    40    41    1
    47    41    42   ar
    48    41    43   ar
    49    14    15   ar
    50    14    16   ar
