@<TRIPOS>MOLECULE
3l4p_PCD_A_1.pdb
 48 53 0 0 0
SMALL
GASTEIGER

@<TRIPOS>ATOM
      1  N1        57.8780  -24.2940   23.4360 N.am  931  PCD931      0.0000
      2  C2        59.2710  -24.4740   23.3650 C.1   931  PCD931      0.0000
      3  N3        59.8730  -25.3800   24.1650 N.2   931  PCD931      0.0000
      4  C4        59.1290  -26.1180   25.0290 C.2   931  PCD931      0.0000
      5  C5        57.7460  -25.9540   25.1120 C.2   931  PCD931      0.0000
      6  C6        57.1330  -25.0280   24.2750 C.2   931  PCD931      0.0000
      7  O2        59.9510  -23.7780   22.5850 O.2   931  PCD931      0.0000
      8  N4        59.7490  -27.0300   25.8010 N.pl3 931  PCD931      0.0000
      9  C1'       57.2100  -23.3330   22.5600 C.3   931  PCD931      0.0000
     10  C2D       56.2980  -24.0510   21.5590 C.3   931  PCD931      0.0000
     11  O2'       56.9430  -24.4510   20.3350 O.3   931  PCD931      0.0000
     12  C3'       55.1880  -23.0510   21.3170 C.3   931  PCD931      0.0000
     13  C4D       55.0600  -22.3630   22.6660 C.3   931  PCD931      0.0000
     14  O4D       56.3160  -22.5580   23.3390 O.3   931  PCD931      0.0000
     15  O3'       55.6100  -22.0590   20.3710 O.3   931  PCD931      0.0000
     16  C5'       53.9260  -22.9390   23.5090 C.3   931  PCD931      0.0000
     17  O5'       53.9710  -24.3640   23.4310 O.3   931  PCD931      0.0000
     18  PA        52.9080  -25.2630   24.2300 P.3   931  PCD931      0.0000
     19  O1A       52.9530  -26.6330   23.6640 O.2   931  PCD931     -0.5000
     20  O2A       53.1610  -25.0860   25.7120 O.3   931  PCD931     -0.5000
     21  O3A       51.4990  -24.5520   23.9570 O.3   931  PCD931      0.0000
     22  PB        50.5160  -24.6690   22.6690 P.3   931  PCD931      0.0000
     23  O1B       49.6430  -25.8730   22.8610 O.3   931  PCD931     -0.5000
     24  O2B       51.2940  -24.4860   21.3930 O.2   931  PCD931     -0.5000
     25  O3B       49.7200  -23.2910   22.9030 O.3   931  PCD931      0.0000
     26  C10       48.5870  -23.2270   23.7680 C.3   931  PCD931      0.0000
     27  C9'       48.8760  -22.3120   24.9610 C.3   931  PCD931      0.0000
     28  C8'       47.6020  -22.0770   25.7560 C.2   931  PCD931      0.0000
     29  S8'       46.7140  -23.4220   26.2800 S.3   931  PCD931      0.0000
     30  C7'       47.2020  -20.8150   26.0570 C.2   931  PCD931      0.0000
     31  S7'       45.7040  -20.5320   26.7880 S.3   931  PCD931      0.0000
     32  C6'       48.0960  -19.6140   25.8020 C.3   931  PCD931      0.0000
     33  C7        49.5140  -20.1070   25.5190 C.3   931  PCD931      0.0000
     34  O9'       49.4860  -21.1030   24.4940 O.3   931  PCD931      0.0000
     35  N5'       47.6240  -18.6850   24.7580 N.2   931  PCD931      0.0000
     36  C4A       48.5190  -17.7890   24.2620 C.2   931  PCD931      0.0000
     37  N8'       50.4080  -19.0270   25.1440 N.2   931  PCD931      0.0000
     38  C4B       49.9590  -17.9700   24.4680 C.1   931  PCD931      0.0000
     39  N1'       50.8350  -17.0680   23.9880 N.2   931  PCD931      0.0000
     40  C2'       50.4050  -16.0090   23.2690 C.1   931  PCD931      0.0000
     41  N2'       51.3280  -15.1600   22.7830 N.pl3 931  PCD931      0.0000
     42  N3'       49.1080  -15.7730   23.0400 N.2   931  PCD931      0.0000
     43  C4'       48.1390  -16.5940   23.4930 C.1   931  PCD931      0.0000
     44  O4'       46.8570  -16.3110   23.2490 O.2   931  PCD931      0.0000
     45 MO         44.5240  -22.5820   26.8040 Mo    931  PCD931      0.0000
     46  OR1       43.3680  -21.8090   27.9410 O.3   931  PCD931      0.0000
     47  OM2       44.1320  -24.4420   27.5910 O.3   931  PCD931      0.0000
     48  OM1       43.7490  -22.4960   25.0750 O.3   931  PCD931      0.0000
@<TRIPOS>BOND
     1    11    10    1
     2    15    12    1
     3    12    10    1
     4    12    13    1
     5    24    22    2
     6    10     9    1
     7     9    14    1
     8     9     1    1
     9     7     2    2
    10    13    14    1
    11    13    16    1
    12    22    23    1
    13    22    25    1
    14    22    21    1
    15    41    40    1
    16    25    26    1
    17    42    40    2
    18    42    43    2
    19    44    43    2
    20    40    39    2
    21     2     1   am
    22     2     3    2
    23    17    16    1
    24    17    18    1
    25     1     6    1
    26    43    36    1
    27    19    18    2
    28    26    27    1
    29    21    18    1
    30    39    38    2
    31     3     4    2
    32    18    20    1
    33    36    38    1
    34    36    35    2
    35     6     5    2
    36    38    37    2
    37    34    27    1
    38    34    33    1
    39    35    32    1
    40    27    28    1
    41     4     5    1
    42     4     8    1
    43    48    45    1
    44    37    33    1
    45    33    32    1
    46    28    30    2
    47    28    29    1
    48    32    30    1
    49    30    31    1
    50    29    45    1
    51    31    45    1
    52    45    47    1
    53    45    46    1
