@<TRIPOS>MOLECULE
3l4s_NAD_O_1.pdb
 44 48 0 0 0
SMALL
GASTEIGER

@<TRIPOS>ATOM
      1  PA        -9.4560  -28.2650   30.3900 P.3   337  NAD337      0.2189
      2  O1A      -10.3320  -29.3990   29.9140 O.3   337  NAD337     -0.4371
      3  O2A       -9.3450  -27.2760   29.3330 O.2   337  NAD337     -0.5170
      4  O5B       -8.0180  -28.9310   30.5010 O.3   337  NAD337     -0.3112
      5  C5B       -7.8950  -30.2520   30.9950 C.3   337  NAD337      0.1813
      6  C4B       -6.8760  -30.9100   30.0950 C.3   337  NAD337      0.1821
      7  O4B       -6.5650  -32.1760   30.5830 O.3   337  NAD337     -0.3135
      8  C3B       -7.4200  -31.1720   28.7130 C.3   337  NAD337      0.2184
      9  O3B       -6.4230  -30.7180   27.8290 O.3   337  NAD337     -0.2174
     10  C2B       -7.5560  -32.6990   28.6730 C.3   337  NAD337      0.2570
     11  O2B       -7.4130  -33.1430   27.3470 O.3   337  NAD337     -0.2130
     12  C1B       -6.4230  -33.1500   29.5710 C.3   337  NAD337      0.3186
     13  N9A       -6.5430  -34.3960   30.3090 N.pl3 337  NAD337     -0.1439
     14  C8A       -7.6410  -34.9240   30.9320 C.3   337  NAD337      0.3377
     15  N7A       -7.2850  -36.0890   31.5330 N.2   337  NAD337     -0.2095
     16  C5A       -5.9730  -36.3160   31.3680 C.2   337  NAD337      0.2526
     17  C6A       -5.1290  -37.3550   31.7540 C.2   337  NAD337      0.4393
     18  N6A       -5.5310  -38.4050   32.4750 N.pl3 337  NAD337      0.2180
     19  N1A       -3.8090  -37.3120   31.3830 N.2   337  NAD337      0.0021
     20  C2A       -3.3550  -36.2320   30.6600 C.3   337  NAD337      0.5254
     21  N3A       -4.2030  -35.2150   30.2550 N.2   337  NAD337     -0.0055
     22  C4A       -5.5020  -35.2500   30.5990 C.2   337  NAD337      0.3518
     23  O3        -9.7750  -27.7900   31.9120 O.3   337  NAD337     -0.2703
     24  PN        -9.2650  -26.3300   32.4910 P.3   337  NAD337      0.2189
     25  O1N      -10.3760  -25.4390   32.5130 O.3   337  NAD337     -0.4371
     26  O2N       -7.9530  -25.9500   31.8850 O.2   337  NAD337     -0.5170
     27  O5D       -8.9280  -26.6730   34.0160 O.3   337  NAD337     -0.3112
     28  C5D       -8.2930  -27.8630   34.4490 C.3   337  NAD337      0.1813
     29  C4D       -8.2850  -27.8180   35.9820 C.3   337  NAD337      0.1799
     30  O4D       -8.0050  -26.5170   36.5380 O.3   337  NAD337     -0.3327
     31  C3D       -9.6280  -28.1510   36.5220 C.3   337  NAD337      0.2158
     32  O3D       -9.3240  -28.7240   37.7440 O.3   337  NAD337     -0.2175
     33  C2D      -10.2430  -26.7530   36.7670 C.3   337  NAD337      0.2309
     34  O2D      -11.1920  -26.7740   37.8120 O.3   337  NAD337     -0.2158
     35  C1D       -9.0760  -25.9300   37.2300 C.3   337  NAD337      0.2263
     36  N1N       -9.2990  -24.4340   37.0190 N.pl3 337  NAD337     -0.2787
     37  C2N      -10.0080  -23.9190   35.9760 C.3   337  NAD337      0.1244
     38  C3N      -10.1790  -22.5220   35.8420 C.2   337  NAD337      0.0544
     39  C7N      -10.8830  -22.0040   34.6530 C.2   337  NAD337      0.2818
     40  O7N      -10.7500  -22.7810   33.4860 O.2   337  NAD337     -0.2670
     41  N7N      -11.5840  -20.8770   34.7270 N.am  337  NAD337     -0.0839
     42  C4N       -9.6450  -21.6240   36.7590 C.2   337  NAD337      0.0033
     43  C5N       -8.9530  -22.1810   37.8220 C.2   337  NAD337      0.0157
     44  C6N       -8.7910  -23.5690   37.9380 C.2   337  NAD337      0.0633
@<TRIPOS>BOND
     1    11    10    1
     2     9     8    1
     3    10     8    1
     4    10    12    1
     5     8     6    1
     6     3     1    2
     7    12    13    1
     8    12     7    1
     9     2     1    1
    10     6     7    1
    11     6     5    1
    12    21    22    2
    13    21    20    1
    14    13    22    1
    15    13    14    1
    16     1     4    1
    17     1    23    1
    18     4     5    1
    19    22    16    1
    20    20    19    1
    21    14    15    1
    22    16    15    2
    23    16    17    1
    24    19    17    2
    25    17    18    1
    26    26    24    2
    27    23    24    1
    28    24    25    1
    29    24    27    1
    30    40    39    2
    31    27    28    1
    32    28    29    1
    33    39    41   am
    34    39    38    1
    35    38    37    1
    36    38    42    2
    37    37    36    1
    38    29    31    1
    39    29    30    1
    40    31    33    1
    41    31    32    1
    42    30    35    1
    43    42    43    1
    44    33    35    1
    45    33    34    1
    46    36    35    1
    47    36    44    1
    48    43    44    2
