@<TRIPOS>MOLECULE
3l4s_3PG_O_1.pdb
 11 10 0 0 0
SMALL
GASTEIGER

@<TRIPOS>ATOM
      1  C1       -13.6880  -25.3220   36.4000 C.2   338  3PG338      0.3972
      2  O1       -14.4540  -26.2880   36.6070 O.co2 338  3PG338     -0.2427
      3  O2       -13.2610  -25.0670   35.2550 O.co2 338  3PG338     -0.2427
      4  C2       -13.3120  -24.4940   37.5920 C.3   338  3PG338      0.2838
      5  O3       -14.3410  -24.8070   38.5160 O.3   338  3PG338     -0.2081
      6  C3       -13.3970  -22.9780   37.4240 C.3   338  3PG338      0.1983
      7  O1P      -13.7700  -22.4050   38.6920 O.3   338  3PG338     -0.2669
      8  P        -12.9450  -21.2960   39.5700 P.3   338  3PG338      0.5327
      9  O2P      -12.8550  -20.0160   38.7730 O.2   338  3PG338     -0.2224
     10  O3P      -13.7170  -21.1480   40.8590 O.3   338  3PG338     -0.1145
     11  O4P      -11.6400  -22.0370   39.6880 O.3   338  3PG338     -0.1145
@<TRIPOS>BOND
     1     3     1   ar
     2     1     2   ar
     3     1     4    1
     4     6     4    1
     5     6     7    1
     6     4     5    1
     7     7     8    1
     8     9     8    2
     9     8    11    1
    10     8    10    1
