@<TRIPOS>MOLECULE
3l4t_NAG_A_1.pdb
 14 14 0 0 0
SMALL
GASTEIGER

@<TRIPOS>ATOM
      1  C1        64.8890  117.6900   44.2070 C.3   2001  NAG2001     0.1665
      2  C2        65.6930  118.9680   44.4640 C.3   2001  NAG2001     0.1576
      3  C3        65.3900  119.4770   45.8800 C.3   2001  NAG2001     0.2069
      4  C4        63.8840  119.5430   46.1980 C.3   2001  NAG2001     0.2134
      5  C5        63.1650  118.2720   45.7410 C.3   2001  NAG2001     0.1809
      6  C6        61.6560  118.5140   45.7820 C.3   2001  NAG2001     0.2141
      7  C7        67.7290  118.4940   43.0820 C.2   2001  NAG2001     0.2420
      8  C8        68.8070  117.4400   43.0230 C.3   2001  NAG2001     0.0964
      9  N2        67.1390  118.8130   44.2490 N.am  2001  NAG2001    -0.2019
     10  O3        66.0120  120.7350   45.9820 O.3   2001  NAG2001    -0.2184
     11  O4        63.6050  119.6970   47.5810 O.3   2001  NAG2001    -0.2176
     12  O5        63.5280  117.9980   44.4060 O.3   2001  NAG2001    -0.3489
     13  O6        61.0150  117.2730   45.9340 O.3   2001  NAG2001    -0.2176
     14  O7        67.4140  119.0320   42.0320 O.2   2001  NAG2001    -0.2733
@<TRIPOS>BOND
     1    14     7    2
     2     8     7    1
     3     7     9   am
     4     1    12    1
     5     1     2    1
     6     9     2    1
     7    12     5    1
     8     2     3    1
     9     5     6    1
    10     5     4    1
    11     6    13    1
    12     3    10    1
    13     3     4    1
    14     4    11    1
