@<TRIPOS>MOLECULE
3l4t_BJ1_A_1.pdb
 22 22 0 0 0
SMALL
GASTEIGER

@<TRIPOS>ATOM
      1  OAA       41.3810   87.1480   31.3680 O.3   1001  BJ11001    -0.2175
      2  OAB       43.0890   94.7440   36.0540 O.3   1001  BJ11001    -0.2194
      3  OAC       43.1620   86.1780   33.4480 O.3   1001  BJ11001    -0.2175
      4  OAD       47.8800   94.2930   34.0510 O.3   1001  BJ11001    -0.2195
      5  OAE       44.6570   89.8960   32.0640 O.3   1001  BJ11001    -0.2194
      6  OAF       46.8690   94.2400   36.6970 O.3   1001  BJ11001    -0.2194
      7  OAG       45.3230   88.5870   36.8070 O.3   1001  BJ11001    -0.2682
      8  OAH       43.7000   86.8590   36.2730 O.2   1001  BJ11001    -0.3452
      9  OAI       46.0650   86.5100   35.9230 O.2   1001  BJ11001    -0.3452
     10  CAJ       41.7900   87.9280   32.5020 C.3   1001  BJ11001     0.2175
     11  CAK       43.6770   93.6370   36.7340 C.3   1001  BJ11001     0.1946
     12  CAL       45.7890   93.2480   33.3150 C.3   1001  BJ11001     0.0839
     13  CAM       44.7500   90.6850   34.3820 C.3   1001  BJ11001     0.0839
     14  OAN       44.9900   87.9200   34.4750 O.3   1001  BJ11001    -0.2383
     15  CAO       43.1860   87.5070   32.8860 C.3   1001  BJ11001     0.2166
     16  CAP       46.8090   93.4260   34.4430 C.3   1001  BJ11001     0.1929
     17  CAQ       43.9810   89.8790   33.3560 C.3   1001  BJ11001     0.1938
     18  CAR       45.9910   94.0990   35.5800 C.3   1001  BJ11001     0.1946
     19  CAS       44.8760   93.0740   35.8940 C.3   1001  BJ11001     0.1051
     20  CAT       43.7650   88.4540   33.9260 C.3   1001  BJ11001     0.2069
     21  SAU       44.4190   92.4650   34.2410 S.3   1001  BJ11001    -0.1702
     22  SAV       45.0170   87.4590   35.8830 S.3   1001  BJ11001    -0.0001
@<TRIPOS>BOND
     1     1    10    1
     2     5    17    1
     3    10    15    1
     4    15     3    1
     5    15    20    1
     6    12    21    1
     7    12    16    1
     8    17    20    1
     9    17    13    1
    10    20    14    1
    11     4    16    1
    12    21    13    1
    13    21    19    1
    14    16    18    1
    15    14    22    1
    16    18    19    1
    17    18     6    1
    18    22     9    2
    19    22     8    2
    20    22     7    1
    21    19    11    1
    22     2    11    1
