@<TRIPOS>MOLECULE
3l4u_NAG_A_1.pdb
 14 14 0 0 0
SMALL
GASTEIGER

@<TRIPOS>ATOM
      1  C1        17.7660    9.3610  -11.2680 C.3   2001  NAG2001     0.1665
      2  C2        18.3030   10.7960  -11.1740 C.3   2001  NAG2001     0.1576
      3  C3        17.8850   11.4240   -9.8110 C.3   2001  NAG2001     0.2069
      4  C4        16.3800   11.3470   -9.5690 C.3   2001  NAG2001     0.2134
      5  C5        15.9270    9.9080   -9.6940 C.3   2001  NAG2001     0.1809
      6  C6        14.3940    9.8970   -9.7430 C.3   2001  NAG2001     0.2141
      7  C7        20.6990   10.8150  -12.2490 C.2   2001  NAG2001     0.2420
      8  C8        21.1570    9.5210  -12.9220 C.3   2001  NAG2001     0.0964
      9  N2        19.7670   10.7750  -11.2590 N.am  2001  NAG2001    -0.2019
     10  O3        18.2990   12.7810   -9.7320 O.3   2001  NAG2001    -0.2184
     11  O4        15.9720   11.8120   -8.2810 O.3   2001  NAG2001    -0.2176
     12  O5        16.4010    9.2840  -10.8950 O.3   2001  NAG2001    -0.3489
     13  O6        14.0350    8.5540   -9.5470 O.3   2001  NAG2001    -0.2176
     14  O7        21.2690   11.8790  -12.5490 O.2   2001  NAG2001    -0.2733
@<TRIPOS>BOND
     1     8     7    1
     2    14     7    2
     3     7     9   am
     4     1     2    1
     5     1    12    1
     6     9     2    1
     7     2     3    1
     8    12     5    1
     9     3    10    1
    10     3     4    1
    11     6     5    1
    12     6    13    1
    13     5     4    1
    14     4    11    1
