@<TRIPOS>MOLECULE
3l4u_DSK_A_1.pdb
 22 22 0 0 0
SMALL
GASTEIGER

@<TRIPOS>ATOM
      1  OAA       -4.5820  -25.9270  -24.4060 O.3   4001  DSK4001    -0.2175
      2  OAB       -3.5630  -14.2880  -18.6810 O.3   4001  DSK4001    -0.2194
      3  OAC       -2.5250  -23.7780  -24.6300 O.3   4001  DSK4001    -0.2175
      4  OAD       -1.8400  -19.0670  -22.8410 O.3   4001  DSK4001    -0.2194
      5  OAE        1.1590  -14.8040  -20.9000 O.3   4001  DSK4001    -0.2195
      6  OAF       -1.8620  -23.6130  -21.9840 O.3   4001  DSK4001    -0.2175
      7  OAG       -3.4230  -21.1230  -20.3290 O.3   4001  DSK4001    -0.2176
      8  OAH       -4.3410  -21.1410  -22.9860 O.3   4001  DSK4001    -0.2175
      9  OAI        0.1390  -14.8610  -18.2440 O.3   4001  DSK4001    -0.2194
     10  CAJ       -3.8410  -25.3650  -23.3360 C.3   4001  DSK4001     0.2175
     11  CAK       -3.0400  -15.5240  -18.1840 C.3   4001  DSK4001     0.1946
     12  CAL       -1.9870  -18.5410  -20.4420 C.3   4001  DSK4001     0.0840
     13  CAM       -0.9410  -15.9610  -21.6020 C.3   4001  DSK4001     0.0839
     14  CAN       -3.5770  -23.8890  -23.6600 C.3   4001  DSK4001     0.2175
     15  CAO       -2.5440  -19.3660  -21.6440 C.3   4001  DSK4001     0.1947
     16  CAP        0.0950  -15.7140  -20.4860 C.3   4001  DSK4001     0.1929
     17  CAQ       -3.1560  -23.1410  -22.3760 C.3   4001  DSK4001     0.2175
     18  CAR       -2.5020  -20.8730  -21.4050 C.3   4001  DSK4001     0.2157
     19  CAS       -3.0520  -21.6390  -22.6310 C.3   4001  DSK4001     0.2174
     20  CAT       -0.7410  -15.0460  -19.3600 C.3   4001  DSK4001     0.1946
     21  CAU       -1.8490  -16.0810  -19.0120 C.3   4001  DSK4001     0.1051
     22  SAV       -2.2940  -16.7690  -20.6530 S.3   4001  DSK4001    -0.1702
@<TRIPOS>BOND
     1     3    14    1
     2     1    10    1
     3    14    10    1
     4    14    17    1
     5     8    19    1
     6     4    15    1
     7    19    17    1
     8    19    18    1
     9    17     6    1
    10    15    18    1
    11    15    12    1
    12    13    22    1
    13    13    16    1
    14    18     7    1
    15     5    16    1
    16    22    12    1
    17    22    21    1
    18    16    20    1
    19    20    21    1
    20    20     9    1
    21    21    11    1
    22     2    11    1
