@<TRIPOS>MOLECULE
3l4v_NAG_A_1.pdb
 14 14 0 0 0
SMALL
GASTEIGER

@<TRIPOS>ATOM
      1  C1        63.8280  118.8660   43.8650 C.3   2001  NAG2001     0.1665
      2  C2        64.3330  120.2970   44.0630 C.3   2001  NAG2001     0.1576
      3  C3        64.0930  120.7610   45.5080 C.3   2001  NAG2001     0.2069
      4  C4        62.6260  120.6490   45.9310 C.3   2001  NAG2001     0.2134
      5  C5        62.0480  119.2920   45.5380 C.3   2001  NAG2001     0.1809
      6  C6        60.5350  119.4360   45.4370 C.3   2001  NAG2001     0.2141
      7  C7        66.2800  121.3700   43.0420 C.2   2001  NAG2001     0.2420
      8  C8        67.7470  121.3060   42.6900 C.3   2001  NAG2001     0.0964
      9  N2        65.7440  120.3360   43.7180 N.am  2001  NAG2001    -0.2019
     10  O3        64.4790  122.1020   45.6570 O.3   2001  NAG2001    -0.2184
     11  O4        62.4620  120.6720   47.3410 O.3   2001  NAG2001    -0.2176
     12  O5        62.4980  118.7210   44.3150 O.3   2001  NAG2001    -0.3489
     13  O6        60.0420  118.1860   45.8470 O.3   2001  NAG2001    -0.2176
     14  O7        65.6300  122.3820   42.7160 O.2   2001  NAG2001    -0.2733
@<TRIPOS>BOND
     1     8     7    1
     2    14     7    2
     3     7     9   am
     4     9     2    1
     5     1     2    1
     6     1    12    1
     7     2     3    1
     8    12     5    1
     9     6     5    1
    10     6    13    1
    11     3    10    1
    12     3     4    1
    13     5     4    1
    14     4    11    1
