@<TRIPOS>MOLECULE
3l4v_KTL_A_1.pdb
 26 26 0 0 0
SMALL
GASTEIGER

@<TRIPOS>ATOM
      1  OAA       41.2250   84.1420   30.7670 O.3   1001  KTL1001    -0.2175
      2  OAB       42.3740   95.5410   36.1280 O.3   1001  KTL1001    -0.2194
      3  OAC       43.6380   86.1190   30.1980 O.3   1001  KTL1001    -0.2175
      4  OAD       47.0100   95.2460   33.9250 O.3   1001  KTL1001    -0.2195
      5  OAE       44.0500   90.9670   31.9570 O.3   1001  KTL1001    -0.2194
      6  OAF       44.4430   86.3190   32.7790 O.3   1001  KTL1001    -0.2175
      7  OAG       45.9980   95.0850   36.6570 O.3   1001  KTL1001    -0.2194
      8  OAH       41.6830   88.6680   32.1340 O.3   1001  KTL1001    -0.2175
      9  OAI       44.5600   87.0970   35.6750 O.2   1001  KTL1001    -0.3452
     10  OAJ       44.5260   89.2810   36.5710 O.2   1001  KTL1001    -0.3452
     11  OAK       42.5550   87.8370   36.8560 O.3   1001  KTL1001    -0.2682
     12  CAL       42.3750   84.5210   31.5580 C.3   1001  KTL1001     0.2175
     13  CAM       42.9840   94.3280   36.6010 C.3   1001  KTL1001     0.1946
     14  CAN       45.0260   93.7360   33.3090 C.3   1001  KTL1001     0.0839
     15  CAO       43.8750   91.5530   34.3490 C.3   1001  KTL1001     0.0839
     16  OAP       42.9120   88.7710   34.6240 O.3   1001  KTL1001    -0.2383
     17  CAQ       42.6660   86.0020   31.2440 C.3   1001  KTL1001     0.2175
     18  CAR       46.0260   94.2700   34.3540 C.3   1001  KTL1001     0.1929
     19  CAS       43.4240   90.6320   33.1980 C.3   1001  KTL1001     0.1938
     20  CAT       43.1210   86.7560   32.4950 C.3   1001  KTL1001     0.2175
     21  CAU       45.2010   94.8470   35.4960 C.3   1001  KTL1001     0.1946
     22  CAV       43.0560   88.2840   32.3160 C.3   1001  KTL1001     0.2166
     23  CAW       44.1090   93.7960   35.7210 C.3   1001  KTL1001     0.1051
     24  CAX       43.6420   89.1290   33.4620 C.3   1001  KTL1001     0.2069
     25  SAY       43.6850   93.2260   34.1880 S.3   1001  KTL1001    -0.1702
     26  SAZ       43.6610   88.2370   35.9660 S.3   1001  KTL1001    -0.0001
@<TRIPOS>BOND
     1     3    17    1
     2     1    12    1
     3    17    12    1
     4    17    20    1
     5     5    19    1
     6     8    22    1
     7    22    20    1
     8    22    24    1
     9    20     6    1
    10    19    24    1
    11    19    15    1
    12    14    25    1
    13    14    18    1
    14    24    16    1
    15     4    18    1
    16    25    15    1
    17    25    23    1
    18    18    21    1
    19    16    26    1
    20    21    23    1
    21    21     7    1
    22     9    26    2
    23    23    13    1
    24    26    10    2
    25    26    11    1
    26     2    13    1
