@<TRIPOS>MOLECULE
3l4w_NAG_A_1.pdb
 14 14 0 0 0
SMALL
GASTEIGER

@<TRIPOS>ATOM
      1  C1        65.4160  117.1100   44.7100 C.3   2001  NAG2001     0.1665
      2  C2        66.3210  118.3060   45.0340 C.3   2001  NAG2001     0.1576
      3  C3        66.0580  118.8530   46.4510 C.3   2001  NAG2001     0.2069
      4  C4        64.5840  119.0030   46.8990 C.3   2001  NAG2001     0.2134
      5  C5        63.7340  117.8840   46.2310 C.3   2001  NAG2001     0.1809
      6  C6        62.2160  118.1070   46.2880 C.3   2001  NAG2001     0.2141
      7  C7        68.4290  117.7910   43.8060 C.2   2001  NAG2001     0.2420
      8  C8        69.6140  116.8520   43.8250 C.3   2001  NAG2001     0.0964
      9  N2        67.7370  117.9960   44.9360 N.am  2001  NAG2001    -0.2019
     10  O3        66.8110  120.0440   46.5050 O.3   2001  NAG2001    -0.2184
     11  O4        64.5430  118.5910   48.2350 O.3   2001  NAG2001    -0.2176
     12  O5        64.1040  117.5930   44.8840 O.3   2001  NAG2001    -0.3489
     13  O6        61.5660  116.8590   46.5170 O.3   2001  NAG2001    -0.2176
     14  O7        68.1210  118.3180   42.7550 O.2   2001  NAG2001    -0.2733
@<TRIPOS>BOND
     1    14     7    2
     2     7     8    1
     3     7     9   am
     4     1    12    1
     5     1     2    1
     6    12     5    1
     7     9     2    1
     8     2     3    1
     9     5     6    1
    10     5     4    1
    11     6    13    1
    12     3    10    1
    13     3     4    1
    14     4    11    1
