@<TRIPOS>MOLECULE
3l4w_MIG_A_1.pdb
 14 14 0 0 0
SMALL
GASTEIGER

@<TRIPOS>ATOM
      1  OAA       42.5010   89.4750   34.0700 O.3   1001  MIG1001    -0.2189
      2  OAB       43.5400   94.0540   36.2930 O.3   1001  MIG1001    -0.2188
      3  OAC       47.3420   92.1970   32.1470 O.3   1001  MIG1001    -0.2188
      4  OAD       48.4860   93.7590   34.4000 O.3   1001  MIG1001    -0.2176
      5  OAE       47.2460   93.4380   36.8280 O.3   1001  MIG1001    -0.2188
      6  CAF       43.2230   90.2150   35.0500 C.3   1001  MIG1001     0.1993
      7  CAG       44.2640   92.9360   36.8730 C.3   1001  MIG1001     0.2006
      8  CAH       43.2040   91.6700   34.5750 C.3   1001  MIG1001     0.1082
      9  CAI       45.3800   91.6950   33.4780 C.3   1001  MIG1001     0.1083
     10  CAJ       46.5700   92.6560   33.2520 C.3   1001  MIG1001     0.2006
     11  CAK       47.3930   92.8210   34.5360 C.3   1001  MIG1001     0.2150
     12  CAL       46.4630   93.3330   35.6540 C.3   1001  MIG1001     0.2018
     13  CAM       45.2510   92.3900   35.8350 C.3   1001  MIG1001     0.1242
     14  NAN       44.5500   92.2830   34.5170 N.3   1001  MIG1001    -0.2651
@<TRIPOS>BOND
     1     3    10    1
     2    10     9    1
     3    10    11    1
     4     9    14    1
     5     1     6    1
     6     4    11    1
     7    14     8    1
     8    14    13    1
     9    11    12    1
    10     8     6    1
    11    12    13    1
    12    12     5    1
    13    13     7    1
    14     2     7    1
