@<TRIPOS>MOLECULE
3l4x_NR3_A_1.pdb
 26 26 0 0 0
SMALL
GASTEIGER

@<TRIPOS>ATOM
      1  OAA        3.8520  -25.9490   20.8560 O.3   1001  NR31001    -0.2175
      2  OAB        3.7070  -14.0180   18.5140 O.3   1001  NR31001    -0.2194
      3  OAC        5.3250  -22.7480   21.4240 O.3   1001  NR31001    -0.2175
      4  OAD       -0.9850  -14.5900   20.7570 O.3   1001  NR31001    -0.2195
      5  OAE        2.2010  -18.7470   22.6660 O.3   1001  NR31001    -0.2194
      6  OAF        1.7340  -23.4440   21.9790 O.3   1001  NR31001    -0.2175
      7  OAG        0.0640  -14.6200   18.0800 O.3   1001  NR31001    -0.2194
      8  OAH        4.2710  -20.9270   22.7360 O.3   1001  NR31001    -0.2175
      9  OAI        1.5370  -20.4540   18.1660 O.2   1001  NR31001    -0.3452
     10  OAJ        3.3830  -21.9840   17.7250 O.2   1001  NR31001    -0.3452
     11  OAK        1.5710  -22.5760   19.1850 O.3   1001  NR31001    -0.2682
     12  CAL        4.4240  -25.0100   21.8050 C.3   1001  NR31001     0.2175
     13  CAM        3.2050  -15.2750   18.0170 C.3   1001  NR31001     0.1946
     14  CAN        1.1560  -15.7830   21.4640 C.3   1001  NR31001     0.0839
     15  CAO        2.2670  -18.2260   20.2920 C.3   1001  NR31001     0.0839
     16  OAP        3.1310  -20.9840   19.9040 O.3   1001  NR31001    -0.2383
     17  CAQ        4.1110  -23.5460   21.4060 C.3   1001  NR31001     0.2175
     18  CAR        0.1450  -15.4450   20.3480 C.3   1001  NR31001     0.1929
     19  CAS        2.7790  -19.1290   21.4140 C.3   1001  NR31001     0.1938
     20  CAT        3.0270  -22.9430   22.3280 C.3   1001  NR31001     0.2175
     21  CAU        0.9430  -14.7780   19.2030 C.3   1001  NR31001     0.1946
     22  CAV        2.9740  -21.4090   22.3840 C.3   1001  NR31001     0.2166
     23  CAW        2.0400  -15.8190   18.8590 C.3   1001  NR31001     0.1051
     24  CAX        2.4720  -20.6200   21.1350 C.3   1001  NR31001     0.2069
     25  SAY        2.5670  -16.4600   20.4860 S.3   1001  NR31001    -0.1702
     26  SAZ        2.4010  -21.5030   18.7600 S.3   1001  NR31001    -0.0001
@<TRIPOS>BOND
     1    10    26    2
     2    13     2    1
     3    13    23    1
     4     7    21    1
     5     9    26    2
     6    26    11    1
     7    26    16    1
     8    23    21    1
     9    23    25    1
    10    21    18    1
    11    16    24    1
    12    15    25    1
    13    15    19    1
    14    18     4    1
    15    18    14    1
    16    25    14    1
    17     1    12    1
    18    24    19    1
    19    24    22    1
    20    17     3    1
    21    17    12    1
    22    17    20    1
    23    19     5    1
    24     6    20    1
    25    20    22    1
    26    22     8    1
