@<TRIPOS>MOLECULE
3l4x_NAG_A_1.pdb
 14 14 0 0 0
SMALL
GASTEIGER

@<TRIPOS>ATOM
      1  C1        24.9400  -10.4630   35.3230 C.3   2001  NAG2001     0.1665
      2  C2        24.7840   -9.6270   36.6000 C.3   2001  NAG2001     0.1576
      3  C3        25.4090   -8.2330   36.4470 C.3   2001  NAG2001     0.2069
      4  C4        26.8600   -8.2940   35.9390 C.3   2001  NAG2001     0.2134
      5  C5        26.8880   -9.2160   34.7210 C.3   2001  NAG2001     0.1809
      6  C6        28.3020   -9.4350   34.1740 C.3   2001  NAG2001     0.2141
      7  C7        22.9280   -9.9770   38.1330 C.2   2001  NAG2001     0.2420
      8  C8        21.4840   -9.7660   38.4740 C.3   2001  NAG2001     0.0964
      9  N2        23.3780   -9.4890   36.9820 N.am  2001  NAG2001    -0.2019
     10  O3        25.3440   -7.5860   37.6920 O.3   2001  NAG2001    -0.2184
     11  O4        27.3140   -7.0220   35.4940 O.3   2001  NAG2001    -0.2176
     12  O5        26.3220  -10.4890   34.9960 O.3   2001  NAG2001    -0.3489
     13  O6        28.2240  -10.1900   32.9750 O.3   2001  NAG2001    -0.2176
     14  O7        23.6280  -10.5900   38.9340 O.2   2001  NAG2001    -0.2733
@<TRIPOS>BOND
     1    13     6    1
     2     6     5    1
     3     5    12    1
     4     5     4    1
     5    12     1    1
     6     1     2    1
     7    11     4    1
     8     4     3    1
     9     3     2    1
    10     3    10    1
    11     2     9    1
    12     9     7   am
    13     7     8    1
    14     7    14    2
