@<TRIPOS>MOLECULE
3l4y_NR4_A_1.pdb
 26 26 0 0 0
SMALL
GASTEIGER

@<TRIPOS>ATOM
      1  OAA       -0.5440  -24.4780  -22.7250 O.3   1001  NR41001    -0.2175
      2  OAB       -3.7160  -13.9230  -18.7190 O.3   1001  NR41001    -0.2194
      3  OAC       -3.3850  -23.5690  -24.1010 O.3   1001  NR41001    -0.2175
      4  OAD        1.0140  -14.4210  -20.8550 O.3   1001  NR41001    -0.2195
      5  OAE       -2.2240  -18.5740  -22.8000 O.3   1001  NR41001    -0.2194
      6  OAF       -2.8910  -23.2990  -21.6740 O.3   1001  NR41001    -0.2175
      7  OAG       -0.1040  -14.4500  -18.2140 O.3   1001  NR41001    -0.2194
      8  OAH       -4.0970  -21.0070  -22.7340 O.3   1001  NR41001    -0.2175
      9  OAI       -1.3470  -22.4200  -19.4000 O.2   1001  NR41001    -0.3452
     10  OAJ       -1.4850  -20.2880  -18.3250 O.2   1001  NR41001    -0.3452
     11  OAK       -3.1860  -21.9130  -17.9840 O.3   1001  NR41001    -0.2682
     12  CAL       -0.9410  -24.0090  -24.0470 C.3   1001  NR41001     0.2175
     13  CAM       -3.1480  -15.0910  -18.1410 C.3   1001  NR41001     0.1946
     14  CAN       -1.1540  -15.4750  -21.6280 C.3   1001  NR41001     0.0839
     15  CAO       -2.0830  -18.0630  -20.4600 C.3   1001  NR41001     0.0839
     16  OAP       -3.0880  -20.8320  -20.0970 O.3   1001  NR41001    -0.2383
     17  CAQ       -2.0830  -23.0050  -23.8940 C.3   1001  NR41001     0.2175
     18  CAR       -0.1310  -15.2670  -20.5010 C.3   1001  NR41001     0.1929
     19  CAS       -2.7330  -18.9150  -21.5230 C.3   1001  NR41001     0.1938
     20  CAT       -2.1040  -22.4550  -22.4940 C.3   1001  NR41001     0.2175
     21  CAU       -0.9450  -14.6170  -19.3670 C.3   1001  NR41001     0.1946
     22  CAV       -2.6910  -21.0720  -22.5240 C.3   1001  NR41001     0.2166
     23  CAW       -2.0270  -15.6800  -19.0430 C.3   1001  NR41001     0.1051
     24  CAX       -2.3530  -20.3510  -21.2490 C.3   1001  NR41001     0.2069
     25  SAY       -2.5150  -16.3410  -20.6720 S.3   1001  NR41001    -0.1702
     26  SAZ       -2.2730  -21.3450  -18.9670 S.3   1001  NR41001    -0.0001
@<TRIPOS>BOND
     1     3    17    1
     2    12    17    1
     3    12     1    1
     4    17    20    1
     5     5    19    1
     6     8    22    1
     7    22    20    1
     8    22    24    1
     9    20     6    1
    10    14    25    1
    11    14    18    1
    12    19    24    1
    13    19    15    1
    14    24    16    1
    15     4    18    1
    16    25    15    1
    17    25    23    1
    18    18    21    1
    19    16    26    1
    20     9    26    2
    21    21    23    1
    22    21     7    1
    23    23    13    1
    24    26    10    2
    25    26    11    1
    26     2    13    1
