@<TRIPOS>MOLECULE
3l4y_NAG_A_1.pdb
 14 14 0 0 0
SMALL
GASTEIGER

@<TRIPOS>ATOM
      1  C1       -24.8890  -10.3770  -35.4910 C.3   2001  NAG2001     0.1665
      2  C2       -24.7460   -9.5130  -36.7500 C.3   2001  NAG2001     0.1576
      3  C3       -25.3680   -8.1230  -36.5690 C.3   2001  NAG2001     0.2069
      4  C4       -26.8160   -8.2420  -36.0650 C.3   2001  NAG2001     0.2134
      5  C5       -26.8370   -9.1400  -34.8440 C.3   2001  NAG2001     0.1809
      6  C6       -28.2570   -9.4740  -34.4000 C.3   2001  NAG2001     0.2141
      7  C7       -22.9040   -9.9760  -38.2620 C.2   2001  NAG2001     0.2420
      8  C8       -21.4120   -9.9450  -38.4800 C.3   2001  NAG2001     0.0964
      9  N2       -23.3550   -9.3860  -37.1730 N.am  2001  NAG2001    -0.2019
     10  O3       -25.3060   -7.4820  -37.8180 O.3   2001  NAG2001    -0.2184
     11  O4       -27.3220   -6.9970  -35.6170 O.3   2001  NAG2001    -0.2176
     12  O5       -26.2670  -10.3950  -35.1670 O.3   2001  NAG2001    -0.3489
     13  O6       -28.2030  -10.1640  -33.1750 O.3   2001  NAG2001    -0.2176
     14  O7       -23.6350  -10.5390  -39.0790 O.2   2001  NAG2001    -0.2733
@<TRIPOS>BOND
     1    14     7    2
     2     8     7    1
     3     7     9   am
     4    10     3    1
     5     9     2    1
     6     2     3    1
     7     2     1    1
     8     3     4    1
     9     4    11    1
    10     4     5    1
    11     1    12    1
    12    12     5    1
    13     5     6    1
    14     6    13    1
