@<TRIPOS>MOLECULE
3l4z_NAG_A_1.pdb
 14 14 0 0 0
SMALL
GASTEIGER

@<TRIPOS>ATOM
      1  C1        64.4360  118.2730   44.3020 C.3   2001  NAG2001     0.1665
      2  C2        65.4130  119.4200   44.6080 C.3   2001  NAG2001     0.1576
      3  C3        65.1170  120.0740   45.9790 C.3   2001  NAG2001     0.2069
      4  C4        63.6300  120.3220   46.2360 C.3   2001  NAG2001     0.2134
      5  C5        62.8180  119.0780   45.8160 C.3   2001  NAG2001     0.1809
      6  C6        61.2910  119.2550   45.9220 C.3   2001  NAG2001     0.2141
      7  C7        67.5150  118.8030   43.4210 C.2   2001  NAG2001     0.2420
      8  C8        68.7760  117.9850   43.4020 C.3   2001  NAG2001     0.0964
      9  N2        66.7960  118.9300   44.5490 N.am  2001  NAG2001    -0.2019
     10  O3        65.8480  121.2780   46.0520 O.3   2001  NAG2001    -0.2184
     11  O4        63.3140  120.4660   47.6030 O.3   2001  NAG2001    -0.2176
     12  O5        63.1190  118.7570   44.4810 O.3   2001  NAG2001    -0.3489
     13  O6        60.7350  117.9590   46.1250 O.3   2001  NAG2001    -0.2176
     14  O7        67.1740  119.3290   42.3870 O.2   2001  NAG2001    -0.2733
@<TRIPOS>BOND
     1    14     7    2
     2     8     7    1
     3     7     9   am
     4     1    12    1
     5     1     2    1
     6    12     5    1
     7     9     2    1
     8     2     3    1
     9     5     6    1
    10     5     4    1
    11     6    13    1
    12     3    10    1
    13     3     4    1
    14     4    11    1
