@<TRIPOS>MOLECULE
3l4z_SSD_A_1.pdb
 20 20 0 0 0
SMALL
GASTEIGER

@<TRIPOS>ATOM
      1  C1        45.5930   94.3270   35.6510 C.3   1001  SSD1001     0.1946
      2  C2        46.4390   93.6620   34.5700 C.3   1001  SSD1001     0.1929
      3  C3        45.4420   93.4090   33.4200 C.3   1001  SSD1001     0.0839
      4  C5        44.4620   93.3080   35.9670 C.3   1001  SSD1001     0.1051
      5  S4        43.9910   92.7450   34.3170 S.3   1001  SSD1001    -0.1702
      6  O2        47.4560   94.6280   34.1970 O.3   1001  SSD1001    -0.2195
      7  O1        46.4190   94.5190   36.7990 O.3   1001  SSD1001    -0.2194
      8  C6        43.3230   93.9460   36.7850 C.3   1001  SSD1001     0.1946
      9  O6        42.8480   95.1280   36.1600 O.3   1001  SSD1001    -0.2194
     10  C7        44.3280   90.9610   34.4780 C.3   1001  SSD1001     0.0839
     11  C8        43.7480   90.0630   33.3930 C.3   1001  SSD1001     0.1938
     12  C9        44.0570   88.5990   33.7370 C.3   1001  SSD1001     0.2069
     13  C10       43.5760   87.6740   32.6200 C.3   1001  SSD1001     0.2165
     14  O10       42.2760   88.1380   32.2820 O.3   1001  SSD1001    -0.2175
     15  O8        44.3130   90.3770   32.1290 O.3   1001  SSD1001    -0.2194
     16  O9        43.3690   88.2440   34.9500 O.3   1001  SSD1001    -0.2383
     17  S9        44.0760   87.6120   36.0520 S.3   1001  SSD1001    -0.0001
     18  O11       45.0180   88.5450   36.7410 O.2   1001  SSD1001    -0.3452
     19  O12       43.0620   87.1850   37.0990 O.3   1001  SSD1001    -0.2682
     20  O13       44.8470   86.4340   35.5370 O.2   1001  SSD1001    -0.3452
@<TRIPOS>BOND
     1    15    11    1
     2    14    13    1
     3    13    12    1
     4    11    12    1
     5    11    10    1
     6     3     5    1
     7     3     2    1
     8    12    16    1
     9     6     2    1
    10     5    10    1
    11     5     4    1
    12     2     1    1
    13    16    17    1
    14    20    17    2
    15     1     4    1
    16     1     7    1
    17     4     8    1
    18    17    18    2
    19    17    19    1
    20     9     8    1
