@<TRIPOS>MOLECULE
3l54_LXX_A_1.pdb
 25 29 0 0 0
SMALL
GASTEIGER

@<TRIPOS>ATOM
      1  C1        27.2000   13.5330   19.0520 C.2     1  LXX1        0.1329
      2  N2        28.5530   13.3400   19.0890 N.2     1  LXX1       -0.1369
      3  N3        29.0360   12.9930   20.2950 N.2     1  LXX1       -0.0935
      4  C4        27.9490   12.9630   21.0730 C.1     1  LXX1        0.0581
      5  N5        27.8690   12.6710   22.3760 N.2     1  LXX1       -0.1908
      6  C6        26.5960   12.7500   22.7880 C.2     1  LXX1        0.1096
      7  C7        25.4470   13.0700   22.0860 C.2     1  LXX1        0.0203
      8  C8        25.4890   13.3740   20.7410 C.2     1  LXX1        0.0133
      9  C9        26.7970   13.2940   20.3410 C.2     1  LXX1        0.0851
     10  C10       24.1670   13.0540   22.7320 C.2     1  LXX1       -0.0026
     11  C11       23.8100   11.9710   23.4920 C.2     1  LXX1       -0.0197
     12  C12       22.5640   11.9090   24.0610 C.3     1  LXX1        0.0714
     13  C13       21.6440   12.9170   23.9000 C.2     1  LXX1        0.0600
     14  N14       20.4470   12.8030   24.4790 N.2     1  LXX1       -0.2484
     15  C15       19.6030   13.8140   24.2920 C.2     1  LXX1        0.0945
     16  C16       19.8910   14.9350   23.5570 C.2     1  LXX1        0.0030
     17  C17       21.1260   15.0460   22.9650 C.3     1  LXX1        0.0692
     18  C18       21.4300   16.2380   22.2140 C.ar    1  LXX1       -0.0112
     19  C19       20.5800   16.7010   21.2380 C.ar    1  LXX1        0.0170
     20  C20       20.9060   17.8610   20.5740 C.ar    1  LXX1        0.0986
     21  N21       21.9940   18.6000   20.8020 N.ar    1  LXX1       -0.2423
     22  C22       22.7970   18.1250   21.7560 C.ar    1  LXX1        0.0986
     23  C23       22.5640   16.9750   22.4720 C.ar    1  LXX1        0.0170
     24  C24       22.0190   14.0130   23.1490 C.2     1  LXX1       -0.0004
     25  C25       23.2630   14.0740   22.5660 C.2     1  LXX1       -0.0027
@<TRIPOS>BOND
     1     1     2    2
     2     1     9    1
     3     2     3    1
     4     3     4    2
     5     9     8    2
     6     9     4    1
     7    20    21   ar
     8    20    19   ar
     9     8     7    1
    10    21    22   ar
    11     4     5    2
    12    19    18   ar
    13    22    23   ar
    14     7    10    1
    15     7     6    2
    16    18    23   ar
    17    18    17    1
    18     5     6    1
    19    25    10    1
    20    25    24    2
    21    10    11    2
    22    17    24    1
    23    17    16    1
    24    24    13    1
    25    11    12    1
    26    16    15    2
    27    13    12    1
    28    13    14    2
    29    15    14    1
