@<TRIPOS>MOLECULE
3l58_CS5_A_1.pdb
 42 44 0 0 0
SMALL
GASTEIGER

@<TRIPOS>ATOM
      1  C1        27.0810   15.4430   24.4790 C.ar    1  CS51        0.0003
      2  C2        25.7930   15.7870   24.9770 C.ar    1  CS51       -0.0216
      3  C3        24.6770   14.9440   24.7060 C.ar    1  CS51        0.0003
      4  C4        24.8450   13.7550   23.9370 C.ar    1  CS51        0.0549
      5  C5        26.1390   13.4060   23.4470 C.ar    1  CS51        0.0091
      6  C6        27.2620   14.2480   23.7230 C.ar    1  CS51        0.0534
      7  C7        28.6220   13.8620   23.3120 C.2     1  CS51        0.2490
      8  N1        28.8520   13.6800   21.9720 N.am    1  CS51       -0.2761
      9  O1        29.5250   13.7050   24.1330 O.2     1  CS51       -0.2699
     10  C8        27.9230   14.1110   20.9160 C.3     1  CS51        0.0937
     11  C9        28.5830   15.0980   19.9700 C.3     1  CS51        0.0215
     12  C10       29.0380   16.3550   20.6820 C.3     1  CS51        0.0018
     13  C11       30.1240   13.0590   21.6070 C.3     1  CS51        0.0937
     14  C12       29.9390   11.6090   21.1600 C.3     1  CS51        0.0215
     15  C13       29.2920   10.7560   22.2160 C.3     1  CS51        0.0018
     16  C14       23.6820   12.9030   23.6520 C.2     1  CS51        0.2648
     17  N2        23.9790   11.5950   23.5110 N.am    1  CS51       -0.2004
     18  O2        22.5280   13.3310   23.5510 O.2     1  CS51       -0.2684
     19  C15       22.9110   10.6790   23.1130 C.3     1  CS51        0.1316
     20  C16       22.4280    9.8910   24.3390 C.3     1  CS51        0.1894
     21  C17       23.3940    9.7320   22.0030 C.3     1  CS51        0.0508
     22  O3        23.5640    9.3860   25.0430 O.3     1  CS51       -0.2197
     23  C18       21.6150   10.7940   25.2750 C.3     1  CS51        0.1237
     24  N3        20.9930    9.9750   26.3310 N.3     1  CS51       -0.2105
     25  C19       20.0640   10.7720   27.1630 C.3     1  CS51        0.1152
     26  C20       18.8600   11.2940   26.3940 C.ar    1  CS51       -0.0018
     27  C21       23.9800   10.5300   20.8560 C.ar    1  CS51       -0.0159
     28  C22       25.3320   10.3210   20.4570 C.ar    1  CS51        0.0256
     29  C23       25.8830   11.0830   19.3870 C.ar    1  CS51        0.1421
     30  C24       25.0840   12.0530   18.7170 C.ar    1  CS51        0.0592
     31  C25       23.7350   12.2620   19.1190 C.ar    1  CS51        0.1421
     32  C26       23.1830   11.4990   20.1820 C.ar    1  CS51        0.0256
     33  C27       18.5290   12.6820   26.4550 C.ar    1  CS51       -0.0027
     34  C28       17.4110   13.1800   25.7210 C.ar    1  CS51        0.0028
     35  C29       16.6210   12.2910   24.9240 C.ar    1  CS51        0.0369
     36  C30       16.9490   10.9030   24.8610 C.ar    1  CS51        0.1385
     37  C31       18.0690   10.4060   25.6060 C.ar    1  CS51        0.0340
     38  O4        16.1970   10.0640   24.0490 O.3     1  CS51       -0.4714
     39  C32       15.7950    8.8620   24.7170 C.3     1  CS51        0.2525
     40  C33       25.6190   17.0080   25.7800 C.3     1  CS51        0.0310
     41  F2        27.1510   10.8930   19.0130 F       1  CS51       -0.2041
     42  F1        22.9910   13.1920   18.5130 F       1  CS51       -0.2041
@<TRIPOS>BOND
     1    42    31    1
     2    30    31   ar
     3    30    29   ar
     4    41    29    1
     5    31    32   ar
     6    29    28   ar
     7    11    12    1
     8    11    10    1
     9    32    27   ar
    10    28    27   ar
    11    27    21    1
    12    10     8    1
    13    14    13    1
    14    14    15    1
    15    13     8    1
    16     8     7   am
    17    21    19    1
    18    19    17    1
    19    19    20    1
    20     7     6    1
    21     7     9    2
    22     5     6   ar
    23     5     4   ar
    24    17    16   am
    25    18    16    2
    26    16     4    1
    27     6     1   ar
    28     4     3   ar
    29    38    39    1
    30    38    36    1
    31    20    22    1
    32    20    23    1
    33     1     2   ar
    34     3     2   ar
    35    36    35   ar
    36    36    37   ar
    37    35    34   ar
    38     2    40    1
    39    23    24    1
    40    37    26   ar
    41    34    33   ar
    42    24    25    1
    43    26    33   ar
    44    26    25    1
