@<TRIPOS>MOLECULE
3l59_BDJ_A_1.pdb
 17 18 0 0 0
SMALL
GASTEIGER

@<TRIPOS>ATOM
      1  C1        21.8790   10.2430   24.6060 C.2     1  BDJ1        0.4494
      2  N1        21.8050   10.8280   25.8180 N.2     1  BDJ1       -0.0923
      3  O1        19.4080   12.4070   23.7710 O.2     1  BDJ1       -0.2528
      4  C2        20.2960   11.7210   24.2840 C.2     1  BDJ1        0.3235
      5  N2        21.0120   10.7430   23.7050 N.am    1  BDJ1       -0.1361
      6  C3        20.7700   11.8420   25.7270 C.3     1  BDJ1        0.2302
      7  N3        22.7220    9.2610   24.3100 N.pl3   1  BDJ1        0.1440
      8  C4        19.5620   11.4830   26.6010 C.3     1  BDJ1        0.0545
      9  C5        21.3460   13.2660   25.9330 C.3     1  BDJ1        0.0545
     10  C6        20.8800   10.3020   22.3180 C.3     1  BDJ1        0.2023
     11  C7        21.8480   11.0640   21.4370 C.ar    1  BDJ1        0.0162
     12  C8        21.5880   12.4270   21.1030 C.ar    1  BDJ1       -0.0011
     13  C9        22.4990   13.1500   20.2760 C.ar    1  BDJ1        0.0006
     14  C10       23.6710   12.5130   19.7850 C.ar    1  BDJ1        0.0114
     15  C11       23.9350   11.1570   20.1150 C.ar    1  BDJ1        0.0575
     16  C12       23.0270   10.4300   20.9410 C.ar    1  BDJ1        0.0103
     17 CL1        25.3620   10.3970   19.5100 Cl      1  BDJ1       -0.0823
@<TRIPOS>BOND
     1    17    15    1
     2    14    15   ar
     3    14    13   ar
     4    15    16   ar
     5    13    12   ar
     6    16    11   ar
     7    12    11   ar
     8    11    10    1
     9    10     5    1
    10     5     4   am
    11     5     1    1
    12     3     4    2
    13     4     6    1
    14     7     1    1
    15     1     2    2
    16     6     2    1
    17     6     9    1
    18     6     8    1
