@<TRIPOS>MOLECULE
3l5b_BDO_A_1.pdb
 20 21 0 0 0
SMALL
GASTEIGER

@<TRIPOS>ATOM
      1  C1        22.1650    9.8130   23.6830 C.2     1  BDO1        0.4494
      2  N1        21.7480    9.3120   22.4990 N.2     1  BDO1       -0.0923
      3  O1        21.3280   12.8060   22.3370 O.2     1  BDO1       -0.2528
      4  C2        21.5340   11.6290   22.6320 C.2     1  BDO1        0.3235
      5  N2        22.0270   11.1490   23.7890 N.am    1  BDO1       -0.1361
      6  C3        21.2560   10.4370   21.7180 C.3     1  BDO1        0.2301
      7  N3        22.6600    9.0730   24.6710 N.pl3   1  BDO1        0.1440
      8  C4        22.0220   10.5800   20.3970 C.3     1  BDO1        0.0505
      9  C5        19.7270   10.3550   21.5390 C.3     1  BDO1        0.0545
     10  C6        22.3240   11.9460   24.9790 C.3     1  BDO1        0.2023
     11  C7        21.0540   12.3310   25.7030 C.ar    1  BDO1        0.0162
     12  C8        20.6480   11.6140   26.8670 C.ar    1  BDO1       -0.0011
     13  C9        19.4310   11.9570   27.5250 C.ar    1  BDO1        0.0006
     14  C10       18.6220   13.0210   27.0240 C.ar    1  BDO1        0.0114
     15  C11       19.0330   13.7440   25.8650 C.ar    1  BDO1        0.0575
     16  C12       20.2500   13.4000   25.2080 C.ar    1  BDO1        0.0103
     17  C13       24.3280    9.7900   21.0460 C.3     1  BDO1        0.0001
     18  C14       24.0490   11.6300   19.3430 C.3     1  BDO1        0.0001
     19  C15       23.4890   10.9730   20.5950 C.3     1  BDO1        0.0039
     20 CL1        18.0530   15.0370   25.2450 Cl      1  BDO1       -0.0823
@<TRIPOS>BOND
     1    18    19    1
     2     8    19    1
     3     8     6    1
     4    19    17    1
     5     9     6    1
     6     6     2    1
     7     6     4    1
     8     3     4    2
     9     2     1    2
    10     4     5   am
    11     1     5    1
    12     1     7    1
    13     5    10    1
    14    10    11    1
    15    16    11   ar
    16    16    15   ar
    17    20    15    1
    18    11    12   ar
    19    15    14   ar
    20    12    13   ar
    21    14    13   ar
