@<TRIPOS>MOLECULE
3l5c_BDQ_A_1.pdb
 32 34 0 0 0
SMALL
GASTEIGER

@<TRIPOS>ATOM
      1  C1        21.4880   12.3400   25.1460 C.3     1  BDQ1        0.2301
      2  N1        22.0970   11.0640   25.4920 N.2     1  BDQ1       -0.0923
      3  O1        20.3700   12.9330   23.0460 O.2     1  BDQ1       -0.2528
      4  C2        21.9300   10.2520   24.4270 C.2     1  BDQ1        0.4494
      5  N2        21.2800   10.8310   23.3920 N.am    1  BDQ1       -0.1361
      6  O2        25.6990   13.9260   19.7700 O.2     1  BDQ1       -0.2488
      7  C3        20.9650   12.0970   23.7300 C.2     1  BDQ1        0.3235
      8  N3        22.3640    8.9960   24.3830 N.pl3   1  BDQ1        0.1440
      9  C4        22.5400   13.4600   25.0550 C.3     1  BDQ1        0.0545
     10  N4        25.1190   13.0410   17.7630 N.am    1  BDQ1       -0.1821
     11  C5        20.3320   12.6590   26.0830 C.3     1  BDQ1        0.0505
     12  N5        25.1980   15.2910   18.0210 N.am    1  BDQ1       -0.1610
     13  C6        19.5980   11.3920   26.5250 C.3     1  BDQ1        0.0039
     14  N6        26.2010   21.0630   21.4960 N.1     1  BDQ1       -0.1908
     15  C7        18.1060   11.4860   26.2150 C.3     1  BDQ1        0.0001
     16  C8        19.8800   11.0750   27.9920 C.3     1  BDQ1        0.0001
     17  C9        21.0240   10.2150   22.0890 C.3     1  BDQ1        0.2023
     18  C10       22.1110   10.5900   21.1060 C.ar    1  BDQ1        0.0154
     19  C11       23.2850    9.7880   20.9970 C.ar    1  BDQ1       -0.0014
     20  C12       24.3090   10.1470   20.0740 C.ar    1  BDQ1       -0.0028
     21  C13       24.1650   11.3040   19.2570 C.ar    1  BDQ1       -0.0005
     22  C14       22.9890   12.1050   19.3680 C.ar    1  BDQ1       -0.0028
     23  C15       21.9650   11.7480   20.2920 C.ar    1  BDQ1       -0.0014
     24  C16       25.2630   11.6770   18.2750 C.3     1  BDQ1        0.1432
     25  C17       25.4000   16.4440   18.7150 C.ar    1  BDQ1        0.0750
     26  C18       24.5830   16.7550   19.8420 C.ar    1  BDQ1        0.0173
     27  C19       26.4300   17.3470   18.3120 C.ar    1  BDQ1        0.0173
     28  C20       24.7930   17.9630   20.5690 C.ar    1  BDQ1        0.0116
     29  C21       26.6410   18.5570   19.0410 C.ar    1  BDQ1        0.0116
     30  C22       25.3610   14.0780   18.5930 C.2     1  BDQ1        0.3438
     31  C23       25.8230   18.8650   20.1680 C.ar    1  BDQ1        0.0685
     32  C24       26.0340   20.0820   20.9010 C.1     1  BDQ1        0.1004
@<TRIPOS>BOND
     1    10    24    1
     2    10    30   am
     3    12    30   am
     4    12    25    1
     5    24    21    1
     6    27    25   ar
     7    27    29   ar
     8    30     6    2
     9    25    26   ar
    10    29    31   ar
    11    21    22   ar
    12    21    20   ar
    13    22    23   ar
    14    26    28   ar
    15    20    19   ar
    16    31    28   ar
    17    31    32    1
    18    23    18   ar
    19    32    14    3
    20    19    18   ar
    21    18    17    1
    22    17     5    1
    23     3     7    2
    24     5     7   am
    25     5     4    1
    26     7     1    1
    27     8     4    1
    28     4     2    2
    29     9     1    1
    30     1     2    1
    31     1    11    1
    32    11    13    1
    33    15    13    1
    34    13    16    1
