@<TRIPOS>MOLECULE
3l5d_BDV_A_1.pdb
 28 29 0 0 0
SMALL
GASTEIGER

@<TRIPOS>ATOM
      1  C1        20.6810   10.6720   21.7290 C.3     1  BDV1        0.2301
      2  N1        21.2830    9.5630   22.4480 N.2     1  BDV1       -0.0923
      3  O1        20.5470   13.0130   22.4570 O.2     1  BDV1       -0.2528
      4  C2        21.7630   10.0660   23.6080 C.2     1  BDV1        0.4494
      5  N2        21.5530   11.3910   23.7570 N.am    1  BDV1       -0.1361
      6  O2        28.3810   14.2820   24.6840 O.2     1  BDV1       -0.2492
      7  C3        20.9070   11.8540   22.6750 C.2     1  BDV1        0.3235
      8  N3        22.3880    9.3370   24.5310 N.pl3   1  BDV1        0.1440
      9  C4        19.1580   10.4820   21.5830 C.3     1  BDV1        0.0545
     10  N4        27.4880   15.0870   22.7670 N.am    1  BDV1       -0.1824
     11  C5        21.3900   10.9180   20.3920 C.3     1  BDV1        0.0505
     12  N5        29.3240   13.7470   22.6950 N.am    1  BDV1       -0.1872
     13  C6        22.8940   11.1590   20.5390 C.3     1  BDV1        0.0039
     14  C7        23.4340   12.0520   19.4210 C.3     1  BDV1        0.0001
     15  C8        23.6780    9.8530   20.6550 C.3     1  BDV1        0.0001
     16  C9        21.9650   12.2050   24.9040 C.3     1  BDV1        0.2023
     17  C10       23.1210   13.1300   24.5530 C.ar    1  BDV1        0.0154
     18  C11       23.1860   14.4410   25.1120 C.ar    1  BDV1       -0.0014
     19  C12       24.2730   15.3070   24.7810 C.ar    1  BDV1       -0.0028
     20  C13       25.2970   14.8650   23.8900 C.ar    1  BDV1       -0.0005
     21  C14       25.2310   13.5550   23.3320 C.ar    1  BDV1       -0.0028
     22  C15       24.1490   12.6920   23.6630 C.ar    1  BDV1       -0.0014
     23  C16       26.4520   15.7820   23.5370 C.3     1  BDV1        0.1432
     24  C17       29.2580   13.9080   21.2460 C.3     1  BDV1        0.1168
     25  C18       28.4300   12.7910   20.6080 C.3     1  BDV1        0.0235
     26  C19       28.8260   11.4220   21.1330 C.3     1  BDV1        0.0018
     27  C20       28.3980   14.3670   23.4560 C.2     1  BDV1        0.3396
     28  C21       28.2520   10.2950   20.2960 C.3     1  BDV1        0.0001
@<TRIPOS>BOND
     1    14    13    1
     2    28    26    1
     3    11    13    1
     4    11     1    1
     5    13    15    1
     6    25    26    1
     7    25    24    1
     8    24    12    1
     9     9     1    1
    10     1     2    1
    11     1     7    1
    12     2     4    2
    13     3     7    2
    14     7     5   am
    15    12    27   am
    16    10    27   am
    17    10    23    1
    18    21    22   ar
    19    21    20   ar
    20    27     6    2
    21    23    20    1
    22     4     5    1
    23     4     8    1
    24    22    17   ar
    25     5    16    1
    26    20    19   ar
    27    17    16    1
    28    17    18   ar
    29    19    18   ar
