@<TRIPOS>MOLECULE
3l5e_BDW_A_1.pdb
 39 43 0 0 0
SMALL
GASTEIGER

@<TRIPOS>ATOM
      1  C1        20.3470   10.8870   22.0080 C.3     1  BDW1        0.2300
      2  N1        21.0260    9.7710   22.6680 N.2     1  BDW1       -0.0923
      3  O1        20.2880   13.2200   22.7770 O.2     1  BDW1       -0.2528
      4  C2        21.6220   10.2740   23.7840 C.2     1  BDW1        0.4494
      5  N2        21.4180   11.5980   23.9550 N.am    1  BDW1       -0.1361
      6  O2        28.4740   14.4550   24.7430 O.2     1  BDW1       -0.2063
      7  C3        20.6650   12.0640   22.9430 C.2     1  BDW1        0.3235
      8  N3        22.3460    9.5500   24.6460 N.pl3   1  BDW1        0.1440
      9  C4        20.9180   11.1270   20.5880 C.3     1  BDW1        0.0505
     10  N4        27.5370   15.0610   22.7630 N.am    1  BDW1       -0.2302
     11  C5        18.8330   10.6660   21.9340 C.3     1  BDW1        0.0505
     12  N5        29.3520   13.8200   22.7360 N.2     1  BDW1       -0.1903
     13  C6        22.3870   11.5800   20.5360 C.3     1  BDW1        0.0039
     14  C7        21.9370   12.4150   25.0590 C.3     1  BDW1        0.2023
     15  C8        23.0820   13.2950   24.6000 C.ar    1  BDW1        0.0154
     16  C9        22.9760   14.7140   24.6730 C.ar    1  BDW1       -0.0014
     17  C10       24.0590   15.5380   24.2370 C.ar    1  BDW1       -0.0028
     18  C11       25.2520   14.9460   23.7260 C.ar    1  BDW1       -0.0017
     19  C12       25.3490   13.5210   23.6560 C.ar    1  BDW1       -0.0028
     20  C13       24.2720   12.7010   24.0900 C.ar    1  BDW1       -0.0014
     21  C14       23.3360   10.4030   20.7660 C.3     1  BDW1        0.0001
     22  C15       24.7960   10.7240   20.4620 C.3     1  BDW1        0.0000
     23  C16       24.9600   11.2420   19.0450 C.3     1  BDW1        0.0000
     24  C17       24.1390   12.5040   18.8620 C.3     1  BDW1        0.0000
     25  C18       22.6670   12.2530   19.1830 C.3     1  BDW1        0.0001
     26  C19       18.1750   10.6840   23.3010 C.3     1  BDW1        0.0040
     27  C22       26.4000   15.8400   23.2670 C.3     1  BDW1        0.1291
     28  C23       27.7150   14.9140   21.3320 C.3     1  BDW1        0.1282
     29  C24       28.9830   14.0280   21.3240 C.3     1  BDW1        0.1365
     30  C25       28.4600   14.4450   23.5110 C.1     1  BDW1        0.2113
     31  C26       28.6160   12.6810   20.6720 C.3     1  BDW1        0.0270
     32  C27       29.1970   11.4300   21.2870 C.3     1  BDW1        0.0021
     33  C28       28.5700   10.1590   20.6830 C.3     1  BDW1        0.0001
     34  C29       16.7170   10.2260   23.2770 C.3     1  BDW1        0.0001
     35  C30       16.1830   10.1010   24.6990 C.3     1  BDW1        0.0000
     36  C31       14.7050    9.7250   24.7480 C.3     1  BDW1        0.0000
     37  C32       13.8560   10.7110   23.9440 C.3     1  BDW1        0.0000
     38  C33       14.3560   10.8830   22.5120 C.3     1  BDW1        0.0000
     39  C34       15.8540   11.1840   22.4490 C.3     1  BDW1        0.0000
@<TRIPOS>BOND
     1    24    23    1
     2    24    25    1
     3    23    22    1
     4    25    13    1
     5    22    21    1
     6    13     9    1
     7    13    21    1
     8     9     1    1
     9    31    32    1
    10    31    29    1
    11    33    32    1
    12    29    28    1
    13    29    12    1
    14    28    10    1
    15    11     1    1
    16    11    26    1
    17     1     2    1
    18     1     7    1
    19    39    38    1
    20    39    34    1
    21    38    37    1
    22     2     4    2
    23    12    30    2
    24    10    27    1
    25    10    30   am
    26     3     7    2
    27     7     5   am
    28    27    18    1
    29    34    26    1
    30    34    35    1
    31    30     6    2
    32    19    18   ar
    33    19    20   ar
    34    18    17   ar
    35     4     5    1
    36     4     8    1
    37    37    36    1
    38     5    14    1
    39    20    15   ar
    40    17    16   ar
    41    15    16   ar
    42    15    14    1
    43    35    36    1
