@<TRIPOS>MOLECULE
3l5f_BDX_A_1.pdb
 23 25 0 0 0
SMALL
GASTEIGER

@<TRIPOS>ATOM
      1  C1        21.8760   10.0680   23.9510 C.2     1  BDX1        0.4492
      2  N1        21.8230   11.4090   24.1020 N.am    1  BDX1       -0.1369
      3  O1        20.8220   13.1100   22.9070 O.2     1  BDX1       -0.2528
      4  C2        21.0900   11.9250   23.0950 C.2     1  BDX1        0.3234
      5  N2        21.2030    9.6030   22.8680 N.2     1  BDX1       -0.0923
      6  C3        20.6170   10.7640   22.2050 C.3     1  BDX1        0.2299
      7  N3        22.5410    9.2920   24.8060 N.pl3   1  BDX1        0.1440
      8  C4        19.0830   10.7130   22.2210 C.3     1  BDX1        0.0505
      9  C5        22.5190   11.3120   20.4990 C.3     1  BDX1        0.0039
     10  C6        23.5300   10.2400   20.8960 C.3     1  BDX1        0.0001
     11  C7        24.9510   10.5350   20.4320 C.3     1  BDX1        0.0000
     12  C8        24.9910   10.7910   18.9350 C.3     1  BDX1        0.0000
     13  C9        24.1130   11.9600   18.5710 C.3     1  BDX1        0.0000
     14  C10       22.6810   11.7280   19.0270 C.3     1  BDX1        0.0001
     15  C11       21.0760   10.8830   20.7450 C.3     1  BDX1        0.0505
     16  C12       18.4870   10.6260   23.6120 C.3     1  BDX1        0.0040
     17  C13       17.0040   10.2220   23.6080 C.3     1  BDX1        0.0001
     18  C14       16.4470   10.0440   25.0170 C.3     1  BDX1        0.0000
     19  C15       14.9700    9.6640   25.0330 C.3     1  BDX1        0.0000
     20  C16       14.1380   10.6630   24.2380 C.3     1  BDX1        0.0000
     21  C17       14.6570   10.8360   22.8070 C.3     1  BDX1        0.0000
     22  C18       16.1470   11.1820   22.7800 C.3     1  BDX1        0.0000
     23  C19       22.4480   12.1690   25.1650 C.3     1  BDX1        0.2162
@<TRIPOS>BOND
     1    13    12    1
     2    13    14    1
     3    12    11    1
     4    14     9    1
     5    11    10    1
     6     9    15    1
     7     9    10    1
     8    15     6    1
     9     6     8    1
    10     6     5    1
    11     6     4    1
    12     8    16    1
    13    22    21    1
    14    22    17    1
    15    21    20    1
    16     5     1    2
    17     3     4    2
    18     4     2   am
    19    17    16    1
    20    17    18    1
    21     1     2    1
    22     1     7    1
    23     2    23    1
    24    20    19    1
    25    18    19    1
