@<TRIPOS>MOLECULE
3l5l_FMN_A_1.pdb
 47 49 0 0 0
SMALL
GASTEIGER

@<TRIPOS>ATOM
      1  N1        19.1490   23.9570   59.3220 N.2   1401  FMN1401    -0.3029
      2  C2        19.4180   23.2170   58.1930 C.1   1401  FMN1401     0.2727
      3  O2        19.8040   22.0570   58.2300 O.2   1401  FMN1401    -0.1927
      4  N3        19.3200   23.8740   56.9360 N.am  1401  FMN1401    -0.1956
      5  C4        18.8890   25.1800   56.7730 C.2   1401  FMN1401     0.2929
      6  O4        18.9470   25.6970   55.6610 O.2   1401  FMN1401    -0.2661
      7  C4A       18.4550   25.8230   57.9790 C.2   1401  FMN1401     0.2291
      8  N5        17.9190   27.0860   57.8670 N.2   1401  FMN1401    -0.4002
      9  C5A       17.8880   27.8590   59.0550 C.2   1401  FMN1401     0.1045
     10  C6        17.5910   29.2230   58.9210 C.3   1401  FMN1401     0.0308
     11  C7        17.6960   30.0610   60.0440 C.3   1401  FMN1401     0.0080
     12  C7M       17.5620   31.5420   59.8590 C.3   1401  FMN1401    -0.0544
     13  C8        17.9970   29.4750   61.2750 C.2   1401  FMN1401    -0.0666
     14  C8M       18.0920   30.3620   62.5430 C.3   1401  FMN1401    -0.0431
     15  C9        18.2610   28.1470   61.4090 C.2   1401  FMN1401    -0.0518
     16  C9A       18.2350   27.3070   60.2800 C.3   1401  FMN1401     0.1366
     17  N10       18.6000   25.9630   60.3620 N.pl3 1401  FMN1401    -0.2814
     18  C10       18.7450   25.2060   59.1990 C.2   1401  FMN1401     0.2319
     19  C1'       19.1330   25.4030   61.6660 C.3   1401  FMN1401     0.0478
     20  C2'       20.4670   25.8990   61.9530 C.3   1401  FMN1401     0.1410
     21  O2'       21.4540   25.3290   61.0580 O.3   1401  FMN1401    -0.2266
     22  C3'       20.9660   25.5460   63.4100 C.3   1401  FMN1401     0.1553
     23  O3'       20.9800   24.1360   63.5970 O.3   1401  FMN1401    -0.2254
     24  C4'       20.0560   26.2170   64.4820 C.3   1401  FMN1401     0.1490
     25  O4'       19.8610   27.5790   64.1890 O.3   1401  FMN1401    -0.2259
     26  C5'       20.6040   26.0200   65.8920 C.3   1401  FMN1401     0.0910
     27  O5'       21.8890   26.6270   66.0710 O.3   1401  FMN1401    -0.2808
     28  P         22.0050   28.0710   66.8240 P.3   1401  FMN1401     0.5320
     29  O1P       21.2200   29.0580   65.9780 O.2   1401  FMN1401    -0.2224
     30  O2P       21.3860   27.9270   68.2150 O.3   1401  FMN1401    -0.1145
     31  O3P       23.4260   28.3150   66.8290 O.3   1401  FMN1401    -0.1145
     32  HN3       19.5860   23.3390   56.0850 H     1401  FMN1401     0.1693
     33  H6        17.1300   29.5930   58.0050 H     1401  FMN1401     0.0387
     34 HM71       16.5620   31.7730   59.4900 H     1401  FMN1401     0.0239
     35 HM72       18.3030   31.8860   59.1380 H     1401  FMN1401     0.0239
     36 HM73       17.7220   32.0430   60.8130 H     1401  FMN1401     0.0239
     37 HM81       17.1260   30.8300   62.7320 H     1401  FMN1401     0.0275
     38 HM82       18.8460   31.1340   62.3900 H     1401  FMN1401     0.0275
     39 HM83       18.3710   29.7450   63.3970 H     1401  FMN1401     0.0275
     40  H9        18.3850   27.7160   62.4030 H     1401  FMN1401     0.0598
     41 H1'1       18.4620   25.6800   62.4790 H     1401  FMN1401     0.0492
     42 H1'2       19.1570   24.3150   61.6100 H     1401  FMN1401     0.0492
     43  H2'       20.4610   26.9840   61.8450 H     1401  FMN1401     0.0672
     44  H3'       21.9760   25.9370   63.5290 H     1401  FMN1401     0.0684
     45  H4'       19.0880   25.7160   64.4410 H     1401  FMN1401     0.0679
     46 H5'1       19.9040   26.4460   66.6110 H     1401  FMN1401     0.0593
     47 H5'2       20.6800   24.9520   66.1000 H     1401  FMN1401     0.0593
@<TRIPOS>BOND
     1     6     5    2
     2    32     4    1
     3     5     4   am
     4     5     7    1
     5     4     2   am
     6     8     7    2
     7     8     9    2
     8     7    18    1
     9    33    10    1
    10     2     3    2
    11     2     1    2
    12    10     9    1
    13    10    11    1
    14     9    16    1
    15    35    12    1
    16    18     1    2
    17    18    17    1
    18    34    12    1
    19    12    11    1
    20    12    36    1
    21    11    13    1
    22    16    17    1
    23    16    15    1
    24    17    19    1
    25    21    20    1
    26    13    15    2
    27    13    14    1
    28    15    40    1
    29    42    19    1
    30    19    20    1
    31    19    41    1
    32    43    20    1
    33    20    22    1
    34    38    14    1
    35    14    37    1
    36    14    39    1
    37    22    44    1
    38    22    23    1
    39    22    24    1
    40    25    24    1
    41    45    24    1
    42    24    26    1
    43    26    27    1
    44    26    47    1
    45    26    46    1
    46    29    28    2
    47    27    28    1
    48    28    31    1
    49    28    30    1
