@<TRIPOS>MOLECULE
3l5l_BU3_A_1.pdb
 16 15 0 0 0
SMALL
GASTEIGER

@<TRIPOS>ATOM
      1  O6        20.4640   21.1290   65.1630 O.3   1508  BU31508    -0.3895
      2  C3        19.3460   21.6150   65.8380 C.3   1508  BU31508     0.0780
      3  C4        19.1180   21.1610   67.2530 C.3   1508  BU31508    -0.0365
      4  C2        18.1760   22.0310   64.9960 C.3   1508  BU31508     0.0780
      5  O5        16.9250   21.3270   65.1280 O.3   1508  BU31508    -0.3895
      6  C1        18.4290   23.0820   63.8500 C.3   1508  BU31508    -0.0365
      7  HO6       20.3520   21.2360   64.2850 H     1508  BU31508     0.2099
      8  H3        19.7140   22.6350   65.9840 H     1508  BU31508     0.0616
      9  H41       18.5140   21.7870   67.7060 H     1508  BU31508     0.0255
     10  H42       18.7200   20.2740   67.2470 H     1508  BU31508     0.0255
     11  H43       19.9750   21.1330   67.7310 H     1508  BU31508     0.0255
     12  H2        17.8970   22.7940   65.7100 H     1508  BU31508     0.0616
     13  HO5       16.7990   20.8040   64.4180 H     1508  BU31508     0.2099
     14  H11       19.3430   22.9810   63.5050 H     1508  BU31508     0.0255
     15  H12       17.8030   22.9440   63.1310 H     1508  BU31508     0.0255
     16  H13       18.3130   23.9770   64.2070 H     1508  BU31508     0.0255
@<TRIPOS>BOND
     1    15     6    1
     2    14     6    1
     3     6    16    1
     4     6     4    1
     5     7     1    1
     6    13     5    1
     7     4     5    1
     8     4    12    1
     9     4     2    1
    10     1     2    1
    11     2     8    1
    12     2     3    1
    13    10     3    1
    14     3     9    1
    15     3    11    1
