@<TRIPOS>MOLECULE
3l5m_BU3_A_1.pdb
 16 15 0 0 0
SMALL
GASTEIGER

@<TRIPOS>ATOM
      1  O6        20.5540   22.7850   66.6850 O.3   1508  BU31508    -0.3895
      2  C3        19.9460   21.7730   65.9550 C.3   1508  BU31508     0.0780
      3  C4        20.7990   20.6200   65.4880 C.3   1508  BU31508    -0.0365
      4  C2        18.5940   22.1330   65.3890 C.3   1508  BU31508     0.0780
      5  O5        18.5500   22.7870   64.0730 O.3   1508  BU31508    -0.3895
      6  C1        17.3840   21.9590   66.4080 C.3   1508  BU31508    -0.0365
      7  HO6       21.3170   23.0210   66.2870 H     1508  BU31508     0.2099
      8  H3        19.4900   21.3010   66.8310 H     1508  BU31508     0.0616
      9  H41       21.4760   20.4160   66.1670 H     1508  BU31508     0.0255
     10  H42       20.2360   19.8400   65.3450 H     1508  BU31508     0.0255
     11  H43       21.2450   20.8610   64.6470 H     1508  BU31508     0.0255
     12  H2        18.4790   21.1430   64.9680 H     1508  BU31508     0.0616
     13  HO5       18.3720   23.6550   64.1760 H     1508  BU31508     0.2099
     14  H11       16.6800   22.6110   66.1990 H     1508  BU31508     0.0255
     15  H12       17.0210   21.0690   66.3410 H     1508  BU31508     0.0255
     16  H13       17.7050   22.1050   67.3120 H     1508  BU31508     0.0255
@<TRIPOS>BOND
     1     5    13    1
     2     5     4    1
     3    11     3    1
     4    12     4    1
     5    10     3    1
     6     4     2    1
     7     4     6    1
     8     3     2    1
     9     3     9    1
    10     2     1    1
    11     2     8    1
    12    14     6    1
    13     7     1    1
    14    15     6    1
    15     6    16    1
