@<TRIPOS>MOLECULE
3l5m_FMN_A_1.pdb
 50 52 0 0 0
SMALL
GASTEIGER

@<TRIPOS>ATOM
      1  N1        19.1830   23.9270   59.2940 N.2   1401  FMN1401    -0.3029
      2  C2        19.4280   23.2560   58.1550 C.1   1401  FMN1401     0.2727
      3  O2        19.7900   22.0380   58.1970 O.2   1401  FMN1401    -0.1927
      4  N3        19.3090   23.8400   56.9600 N.am  1401  FMN1401    -0.1956
      5  C4        18.9690   25.2100   56.8190 C.2   1401  FMN1401     0.2930
      6  O4        19.0200   25.6890   55.6540 O.2   1401  FMN1401    -0.2661
      7  C4A       18.5830   25.7990   57.9550 C.2   1401  FMN1401     0.2295
      8  N5        18.0630   27.1170   57.8350 N.2   1401  FMN1401    -0.3962
      9  C5A       18.0250   27.7950   59.0140 C.2   1401  FMN1401     0.1228
     10  C6        17.6900   29.2390   58.9550 C.2   1401  FMN1401    -0.0228
     11  C7        17.7320   29.9880   60.0460 C.2   1401  FMN1401    -0.0450
     12  C7M       17.5490   31.5170   59.8830 C.3   1401  FMN1401    -0.0394
     13  C8        18.0130   29.4500   61.3140 C.2   1401  FMN1401    -0.0489
     14  C8M       18.0090   30.3010   62.5570 C.3   1401  FMN1401    -0.0397
     15  C9        18.2490   28.0940   61.4340 C.2   1401  FMN1401    -0.0478
     16  C9A       18.3020   27.2960   60.2840 C.3   1401  FMN1401     0.1409
     17  N10       18.6940   25.8710   60.3290 N.pl3 1401  FMN1401    -0.2812
     18  C10       18.7990   25.2300   59.1720 C.2   1401  FMN1401     0.2319
     19  C1'       19.1790   25.3750   61.6570 C.3   1401  FMN1401     0.0444
     20  C2'       20.5130   25.8600   61.9310 C.3   1401  FMN1401     0.0992
     21  O2'       21.4730   25.3210   61.0450 O.3   1401  FMN1401    -0.3876
     22  C3'       20.9820   25.5370   63.3700 C.3   1401  FMN1401     0.1104
     23  O3'       21.0210   24.0880   63.5640 O.3   1401  FMN1401    -0.3865
     24  C4'       20.1660   26.1490   64.5130 C.3   1401  FMN1401     0.1073
     25  O4'       19.8770   27.5320   64.1960 O.3   1401  FMN1401    -0.3868
     26  C5'       20.6870   25.9860   65.8490 C.3   1401  FMN1401     0.0876
     27  O5'       21.9460   26.5620   66.0300 O.3   1401  FMN1401    -0.2809
     28  P         22.0840   28.0120   66.7930 P.3   1401  FMN1401     0.5320
     29  O1P       21.3180   29.0100   65.9350 O.2   1401  FMN1401    -0.2224
     30  O2P       21.5200   27.8920   68.2100 O.3   1401  FMN1401    -0.1145
     31  O3P       23.4990   28.2630   66.7980 O.3   1401  FMN1401    -0.1145
     32  HN3       19.4810   23.2740   56.1040 H     1401  FMN1401     0.1693
     33  H6        17.4200   29.6910   58.0000 H     1401  FMN1401     0.0649
     34 HM71       16.5520   31.7240   59.4930 H     1401  FMN1401     0.0278
     35 HM72       18.2970   31.9010   59.1900 H     1401  FMN1401     0.0278
     36 HM73       17.6680   32.0030   60.8520 H     1401  FMN1401     0.0278
     37 HM81       17.0430   30.7970   62.6540 H     1401  FMN1401     0.0278
     38 HM82       18.7970   31.0500   62.4870 H     1401  FMN1401     0.0278
     39 HM83       18.1840   29.6710   63.4290 H     1401  FMN1401     0.0278
     40  H9        18.2650   27.6300   62.4200 H     1401  FMN1401     0.0601
     41 H1'1       19.1800   24.2850   61.6600 H     1401  FMN1401     0.0491
     42 H1'2       18.5010   25.7120   62.4410 H     1401  FMN1401     0.0491
     43  H2'       20.5010   26.9450   61.8220 H     1401  FMN1401     0.0636
     44 HO2'       22.1850   24.8850   61.5600 H     1401  FMN1401     0.2100
     45  H3'       21.9980   25.9200   63.4660 H     1401  FMN1401     0.0646
     46 HO3'       20.5210   23.8530   64.3740 H     1401  FMN1401     0.2100
     47  H4'       19.2140   25.6190   64.5070 H     1401  FMN1401     0.0643
     48 HO4'       20.0870   28.0950   64.9700 H     1401  FMN1401     0.2100
     49 H5'1       20.7480   24.9220   66.0770 H     1401  FMN1401     0.0592
     50 H5'2       19.9880   26.4320   66.5570 H     1401  FMN1401     0.0592
@<TRIPOS>BOND
     1     6     5    2
     2    32     4    1
     3     5     4   am
     4     5     7    1
     5     4     2   am
     6     8     7    2
     7     8     9    2
     8     7    18    1
     9    33    10    1
    10     2     3    2
    11     2     1    2
    12    10     9    1
    13    10    11    2
    14     9    16    1
    15    18     1    2
    16    18    17    1
    17    35    12    1
    18    34    12    1
    19    12    11    1
    20    12    36    1
    21    11    13    1
    22    16    17    1
    23    16    15    1
    24    17    19    1
    25    21    44    1
    26    21    20    1
    27    13    15    2
    28    13    14    1
    29    15    40    1
    30    19    41    1
    31    19    20    1
    32    19    42    1
    33    43    20    1
    34    20    22    1
    35    38    14    1
    36    14    37    1
    37    14    39    1
    38    22    45    1
    39    22    23    1
    40    22    24    1
    41    23    46    1
    42    25    24    1
    43    25    48    1
    44    47    24    1
    45    24    26    1
    46    26    27    1
    47    26    49    1
    48    26    50    1
    49    29    28    2
    50    27    28    1
    51    28    31    1
    52    28    30    1
