@<TRIPOS>MOLECULE
3l5m_COU_A_1.pdb
 17 18 0 0 0
SMALL
GASTEIGER

@<TRIPOS>ATOM
      1  C1        16.0140   23.8570   58.1750 C.ar  801  COU801      0.3372
      2  C2        15.6600   24.8420   57.2540 C.ar  801  COU801      0.0236
      3  C3        15.2070   26.0850   57.7120 C.ar  801  COU801     -0.0443
      4  C4        15.1270   26.3350   59.0860 C.ar  801  COU801      0.0176
      5  C5        14.7060   27.5630   59.6210 C.ar  801  COU801     -0.0511
      6  C6        14.6560   27.7130   60.9910 C.ar  801  COU801     -0.0610
      7  C7        15.0020   26.7040   61.8550 C.ar  801  COU801     -0.0582
      8  C8        15.4130   25.4950   61.3320 C.ar  801  COU801     -0.0186
      9  C9        15.4760   25.3110   59.9600 C.ar  801  COU801      0.1390
     10  O1        16.4690   22.7480   57.8860 O.2   801  COU801     -0.2452
     11  O2        15.9020   24.0860   59.5080 O.2   801  COU801     -0.4222
     12  H2        15.7400   24.6500   56.1920 H     801  COU801      0.0689
     13  H3        14.9470   26.8610   57.0040 H     801  COU801      0.0627
     14  H5        14.4020   28.3720   58.9670 H     801  COU801      0.0625
     15  H6        14.2980   28.6500   61.4010 H     801  COU801      0.0618
     16  H7        14.9380   26.8490   62.9260 H     801  COU801      0.0619
     17  H8        15.7110   24.6940   61.9980 H     801  COU801      0.0654
@<TRIPOS>BOND
     1    12     2    1
     2    13     3    1
     3     2     3   ar
     4     2     1   ar
     5     3     4   ar
     6    10     1    2
     7     1    11   ar
     8    14     5    1
     9     4     5   ar
    10     4     9   ar
    11    11     9   ar
    12     5     6   ar
    13     9     8   ar
    14     6    15    1
    15     6     7   ar
    16     8     7   ar
    17     8    17    1
    18     7    16    1
