@<TRIPOS>MOLECULE
3l5p_428_A_1.pdb
 13 14 0 0 0
SMALL
GASTEIGER

@<TRIPOS>ATOM
      1  CAA       17.6360  -39.4480  -26.0050 C.2   123  428123      0.2030
      2  NAB       16.5490  -39.0690  -25.2060 N.pl3 123  428123     -0.1684
      3  NAC       17.9170  -40.7200  -25.7330 N.2   123  428123     -0.3921
      4  CAD       18.1900  -38.5190  -26.8770 C.2   123  428123      0.0617
      5  CAE       16.2170  -40.1340  -24.4810 C.3   123  428123      0.1736
      6  NAF       16.0720  -37.9340  -25.2590 N.2   123  428123     -0.1008
      7  CAG       17.0500  -41.1210  -24.8090 C.2   123  428123      0.1100
      8  CAH       17.6250  -37.2480  -26.9090 C.2   123  428123      0.0993
      9  CAI       16.5460  -36.9790  -26.0750 C.1   123  428123      0.1699
     10  CAJ       17.0290  -42.5370  -24.2260 C.3   123  428123      0.0500
     11  OAK       15.9660  -35.7480  -26.0920 O.2   123  428123     -0.2206
     12  CAL       15.9580  -42.6940  -23.1440 C.3   123  428123      0.0071
     13  CAM       16.8230  -43.5580  -25.3480 C.3   123  428123      0.0071
@<TRIPOS>BOND
     1     8     4    2
     2     8     9    1
     3     4     1    1
     4    11     9    2
     5     9     6    2
     6     1     3    2
     7     1     2    1
     8     3     7    2
     9    13    10    1
    10     6     2    1
    11     2     5    1
    12     7     5    1
    13     7    10    1
    14    10    12    1
