@<TRIPOS>MOLECULE
3l5r_47X_A_1.pdb
 20 22 0 0 0
SMALL
GASTEIGER

@<TRIPOS>ATOM
      1  CAA       14.8700  -33.3140  -20.6430 C.ar  123  47X123      0.0423
      2  CAB       14.9420  -34.2350  -19.6020 C.ar  123  47X123      0.1988
      3  CAC       15.1470  -35.5840  -19.8770 C.ar  123  47X123      0.0796
      4  CAD       14.9990  -33.7410  -21.9620 C.ar  123  47X123      0.0095
      5  CAE       15.2010  -35.0910  -22.2380 C.ar  123  47X123      0.0738
      6  CAF       15.2770  -36.0100  -21.1950 C.ar  123  47X123      0.1516
      7  OAG       15.4870  -37.3290  -21.4600 O.2   123  47X123     -0.4501
      8  CAH       15.7960  -37.7410  -22.7210 C.ar  123  47X123      0.1826
      9  CAI       15.7020  -36.8580  -23.7920 C.ar  123  47X123      0.0767
     10  CAJ       15.3220  -35.5400  -23.5500 C.ar  123  47X123      0.2015
     11  CAK       15.9960  -37.2990  -25.0780 C.ar  123  47X123      0.0095
     12  CAL       17.1970  -36.9350  -25.6820 C.ar  123  47X123      0.0456
     13  CAM       17.5020  -37.3890  -26.9620 C.ar  123  47X123      0.2343
     14  CAN       16.6050  -38.2100  -27.6400 C.ar  123  47X123      0.2343
     15  CAO       15.4040  -38.5750  -27.0390 C.ar  123  47X123      0.0454
     16  CAP       15.1000  -38.1200  -25.7590 C.ar  123  47X123      0.0037
     17  OAQ       16.9040  -38.6570  -28.8900 O.3   123  47X123     -0.2831
     18  OAR       18.6760  -37.0300  -27.5480 O.3   123  47X123     -0.2831
     19  OAS       14.7890  -33.8260  -18.3150 O.3   123  47X123     -0.2865
     20  OAT       15.2080  -34.7500  -24.4860 O.2   123  47X123     -0.2864
@<TRIPOS>BOND
     1    17    14    1
     2    14    15   ar
     3    14    13   ar
     4    18    13    1
     5    15    16   ar
     6    13    12   ar
     7    16    11   ar
     8    12    11   ar
     9    11     9    1
    10    20    10    2
    11     9    10   ar
    12     9     8   ar
    13    10     5   ar
    14     8     7   ar
    15     5     4   ar
    16     5     6   ar
    17     4     1   ar
    18     7     6   ar
    19     6     3   ar
    20     1     2   ar
    21     3     2   ar
    22     2    19    1
