@<TRIPOS>MOLECULE
3l5s_88X_A_1.pdb
 20 22 0 0 0
SMALL
GASTEIGER

@<TRIPOS>ATOM
      1  CAA       16.3650  -42.9740  -23.4300 C.1   123  88X123      0.2173
      2  CAB       17.4410  -43.2370  -24.2720 C.2   123  88X123      0.1184
      3  CAC       17.9670  -42.2300  -25.0730 C.2   123  88X123      0.0530
      4  NAD       15.8030  -41.6930  -23.3820 N.2   123  88X123     -0.2524
      5  CAE       16.3250  -40.6720  -24.1870 C.1   123  88X123      0.2172
      6  NAF       17.4080  -40.9410  -25.0340 N.pl3 123  88X123     -0.2083
      7  CAG       17.6720  -39.8110  -25.6830 C.3   123  88X123      0.1710
      8  CAH       16.8020  -38.8930  -25.2680 C.2   123  88X123      0.1822
      9  NAI       15.9780  -39.4000  -24.3560 N.2   123  88X123     -0.3267
     10  OAJ       15.9010  -43.8700  -22.7250 O.2   123  88X123     -0.2085
     11  CAK       16.6920  -37.4640  -25.8080 C.2   123  88X123      0.2234
     12  CAL       17.8300  -36.8270  -26.6110 C.ar  123  88X123      0.0413
     13  OAM       15.6680  -36.8190  -25.5890 O.2   123  88X123     -0.2841
     14  CAN       19.1680  -42.5720  -25.9610 C.3   123  88X123      0.0430
     15  CAO       19.4380  -41.5330  -27.0510 C.3   123  88X123      0.0064
     16  CAP       19.1500  -37.2260  -26.4250 C.ar  123  88X123      0.0033
     17  CAQ       20.1780  -36.6010  -27.1260 C.ar  123  88X123      0.0001
     18  CAR       19.8870  -35.5730  -28.0180 C.ar  123  88X123      0.0000
     19  CAS       18.5670  -35.1720  -28.2070 C.ar  123  88X123      0.0001
     20  CAT       17.5420  -35.7970  -27.5050 C.ar  123  88X123      0.0033
@<TRIPOS>BOND
     1    19    18   ar
     2    19    20   ar
     3    18    17   ar
     4    20    12   ar
     5    17    16   ar
     6    15    14    1
     7    12    16   ar
     8    12    11    1
     9    14     3    1
    10    11    13    2
    11    11     8    1
    12     7     8    1
    13     7     6    1
    14     8     9    2
    15     3     6    1
    16     3     2    2
    17     6     5    1
    18     9     5    2
    19     2     1    1
    20     5     4    2
    21     1     4    2
    22     1    10    2
