@<TRIPOS>MOLECULE
3l5t_956_A_1.pdb
 27 30 0 0 0
SMALL
GASTEIGER

@<TRIPOS>ATOM
      1  CAA        8.1130   -0.9370    0.9140 C.ar  123  956123      0.0001
      2  CAB        7.0500   -0.1420    1.3320 C.ar  123  956123      0.0015
      3  CAC        7.2390    0.7860    2.3510 C.ar  123  956123      0.0173
      4  CAD        9.3600   -0.8050    1.5160 C.ar  123  956123      0.0027
      5  CAE        9.5510    0.1230    2.5360 C.ar  123  956123      0.0300
      6  CAF        8.4870    0.9200    2.9530 C.ar  123  956123      0.0637
      7  NAG        8.6890    1.8550    3.9780 N.ar  123  956123     -0.2929
      8  CAH        9.9480    1.9830    4.5790 C.ar  123  956123      0.2718
      9  CAI       11.0040    1.1820    4.1550 C.ar  123  956123      0.1377
     10  CAJ       10.8040    0.2570    3.1320 C.ar  123  956123      0.0637
     11  OAK       10.1170    2.8050    5.4800 O.2   123  956123     -0.2662
     12  CAL        7.5840    2.7280    4.4340 C.3   123  956123      0.1336
     13  NAM       11.8880   -0.5010    2.6570 N.pl3 123  956123     -0.3034
     14  CAN       12.2060   -0.5040    1.2090 C.3   123  956123      0.1124
     15  CAO       13.7000   -0.2380    1.0060 C.3   123  956123      0.1151
     16  NAP       14.5010   -1.0640    1.9420 N.am  123  956123     -0.2722
     17  CAQ       14.1650   -1.0890    3.3860 C.3   123  956123      0.1151
     18  CAR       12.6690   -1.3600    3.5790 C.3   123  956123      0.1124
     19  CAS       15.5290   -1.7800    1.4850 C.2   123  956123      0.2551
     20  OAT       16.2790   -2.3480    2.2780 O.2   123  956123     -0.2694
     21  CAU       15.7850   -1.9140   -0.0160 C.ar  123  956123      0.0830
     22  SAV       17.3070   -1.6920   -0.7610 S.2   123  956123     -0.0819
     23  CAW       16.7170   -2.0460   -2.3220 C.ar  123  956123      0.0356
     24  CAX       15.4160   -2.3080   -2.1930 C.ar  123  956123      0.0076
     25  CAY       14.9040   -2.2410   -0.9590 C.ar  123  956123      0.0116
     26  CAZ       12.2890    1.3160    4.7780 C.1   123  956123      0.1065
     27  NBA       13.3070    1.4270    5.2750 N.1   123  956123     -0.1906
@<TRIPOS>BOND
     1    23    24   ar
     2    23    22   ar
     3    24    25   ar
     4    25    21   ar
     5    22    21   ar
     6    21    19    1
     7     1     2   ar
     8     1     4   ar
     9    15    14    1
    10    15    16    1
    11    14    13    1
    12     2     3   ar
    13    19    16   am
    14    19    20    2
    15     4     5   ar
    16    16    17    1
    17     3     6   ar
    18     5     6   ar
    19     5    10   ar
    20    13    10    1
    21    13    18    1
    22     6     7   ar
    23    10     9   ar
    24    17    18    1
    25     7    12    1
    26     7     8   ar
    27     9     8   ar
    28     9    26    1
    29     8    11    2
    30    26    27    3
