@<TRIPOS>MOLECULE
3l5u_ZEC_A_1.pdb
 14 15 0 0 0
SMALL
GASTEIGER

@<TRIPOS>ATOM
      1  O1        29.8160  -13.0410   -7.0070 O.2   123  ZEC123     -0.2869
      2  C2        31.1490  -12.8240   -7.1690 C.2   123  ZEC123      0.1925
      3  C7        32.0160  -13.8950   -7.3600 C.2   123  ZEC123      0.0505
      4  C6        33.3800  -13.6640   -7.5130 C.2   123  ZEC123      0.0620
      5  S8        34.6960  -14.7300   -7.7800 S.3   123  ZEC123     -0.0329
      6  C9        35.8440  -13.4630   -7.8410 C.2   123  ZEC123      0.2852
      7  S11       37.5470  -13.6530   -8.1890 S.O2  123  ZEC123      0.1273
      8  N14       38.4300  -12.9230   -7.0320 N.3   123  ZEC123      0.0423
      9  O13       37.8470  -13.0310   -9.5210 O.2   123  ZEC123     -0.1473
     10  O12       37.8690  -15.1170   -8.2340 O.2   123  ZEC123     -0.1473
     11  N10       35.2220  -12.3010   -7.6540 N.2   123  ZEC123     -0.3796
     12  C5        33.9000  -12.3680   -7.4770 C.2   123  ZEC123      0.1219
     13  C4        33.0170  -11.3080   -7.2860 C.3   123  ZEC123      0.0888
     14  C3        31.6520  -11.5270   -7.1330 C.2   123  ZEC123      0.0234
@<TRIPOS>BOND
     1     9     7    2
     2    10     7    2
     3     7     6    1
     4     7     8    1
     5     6     5    1
     6     6    11    2
     7     5     4    1
     8    11    12    2
     9     4    12    1
    10     4     3    2
    11    12    13    1
    12     3     2    1
    13    13    14    1
    14     2    14    2
    15     2     1    1
