@<TRIPOS>MOLECULE
3l61_HEM_A_1.pdb
 43 50 0 0 0
SMALL
GASTEIGER

@<TRIPOS>ATOM
      1  CHA        0.5650   20.5850   21.4620 C.2   420  HEM420      0.0000
      2  CHB        2.7600   22.2820   17.4980 C.2   420  HEM420      0.0000
      3  CHC       -1.5430   23.6680   15.7600 C.2   420  HEM420      0.0000
      4  CHD       -3.6990   22.4520   19.9160 C.2   420  HEM420      0.0000
      5  C1A        1.5220   20.8760   20.5270 C.ar  420  HEM420      0.0000
      6  C2A        2.9170   20.4820   20.6110 C.ar  420  HEM420      0.0000
      7  C3A        3.5310   20.9520   19.5070 C.ar  420  HEM420      0.0000
      8  C4A        2.5480   21.6510   18.7140 C.ar  420  HEM420      0.0000
      9  CMA        5.0200   20.8140   19.1170 C.3   420  HEM420      0.0000
     10  CAA        3.5330   19.6520   21.7710 C.3   420  HEM420      0.0000
     11  CBA        4.1330   20.5870   22.8140 C.3   420  HEM420      0.0000
     12  CGA        4.9440   19.8610   23.8640 C.2   420  HEM420      0.0000
     13  O1A        5.5150   20.5740   24.7350 O.co2 420  HEM420      0.0000
     14  O2A        5.0490   18.6080   23.8260 O.co2 420  HEM420      0.0000
     15  C1B        1.7910   22.8120   16.6920 C.2   420  HEM420      0.0000
     16  C2B        1.9720   23.3260   15.3680 C.2   420  HEM420      0.0000
     17  C3B        0.7860   23.7250   14.8840 C.2   420  HEM420      0.0000
     18  C4B       -0.1960   23.4390   15.8990 C.2   420  HEM420      0.0000
     19  CMB        3.3470   23.4160   14.6940 C.3   420  HEM420      0.0000
     20  CAB        0.4490   24.3740   13.5310 C.2   420  HEM420      0.0000
     21  CBB        1.2660   24.4270   12.4710 C.2   420  HEM420      0.0000
     22  C1C       -2.5130   23.4130   16.7130 C.ar  420  HEM420      0.0000
     23  C2C       -3.9350   23.6500   16.5620 C.ar  420  HEM420      0.0000
     24  C3C       -4.5220   23.3390   17.7310 C.ar  420  HEM420      0.0000
     25  C4C       -3.5080   22.8840   18.6330 C.ar  420  HEM420      0.0000
     26  CMC       -4.6130   24.1670   15.2820 C.3   420  HEM420      0.0000
     27  CAC       -6.0100   23.3950   18.1440 C.2   420  HEM420      0.0000
     28  CBC       -7.0080   23.2870   17.2810 C.2   420  HEM420      0.0000
     29  C1D       -2.7550   21.8570   20.7040 C.2   420  HEM420      0.0000
     30  C2D       -2.9690   21.3970   22.0420 C.2   420  HEM420      0.0000
     31  C3D       -1.6590   20.8120   22.5290 C.2   420  HEM420      0.0000
     32  C4D       -0.7460   20.9960   21.4320 C.2   420  HEM420      0.0000
     33  CMD       -4.2910   21.4620   22.8240 C.3   420  HEM420      0.0000
     34  CAD       -1.3380   20.1900   23.9060 C.3   420  HEM420      0.0000
     35  CBD       -1.4220   18.6770   23.7970 C.3   420  HEM420      0.0000
     36  CGD       -1.0660   18.0380   25.1210 C.2   420  HEM420      0.0000
     37  O1D       -1.4960   16.8770   25.3230 O.co2 420  HEM420      0.0000
     38  O2D       -0.3560   18.6640   25.9440 O.co2 420  HEM420      0.0000
     39  NA         1.3250   21.5680   19.3560 N.ar  420  HEM420      0.0000
     40  NB         0.4440   22.8990   17.0060 N.2   420  HEM420      0.0000
     41  NC        -2.2870   22.9510   17.9870 N.ar  420  HEM420      0.0000
     42  ND        -1.4160   21.6170   20.3760 N.2   420  HEM420      0.0000
     43 FE         -0.4800   22.1970   18.6410 Fe    420  HEM420      0.0000
@<TRIPOS>BOND
     1    21    20    2
     2    20    17    1
     3    19    16    1
     4    17    16    2
     5    17    18    1
     6    26    23    1
     7    16    15    1
     8     3    18    2
     9     3    22    1
    10    18    40    1
    11    23    22   ar
    12    23    24   ar
    13    15    40    2
    14    15     2    1
    15    22    41   ar
    16    40    43    1
    17    28    27    2
    18     2     8    2
    19    24    27    1
    20    24    25   ar
    21    41    25   ar
    22    41    43    1
    23    25     4    1
    24    43    39    1
    25    43    42    1
    26     8    39   ar
    27     8     7   ar
    28     9     7    1
    29    39     5   ar
    30     7     6   ar
    31     4    29    2
    32    42    29    1
    33    42    32    2
    34     5     6   ar
    35     5     1    2
    36     6    10    1
    37    29    30    1
    38    32     1    1
    39    32    31    1
    40    10    11    1
    41    30    31    2
    42    30    33    1
    43    31    34    1
    44    11    12    1
    45    35    34    1
    46    35    36    1
    47    14    12   ar
    48    12    13   ar
    49    36    37   ar
    50    36    38   ar
