@<TRIPOS>MOLECULE
3l62_HEM_A_1.pdb
 43 50 0 0 0
SMALL
GASTEIGER

@<TRIPOS>ATOM
      1  CHA       -0.4040   20.5510  -21.4300 C.2   420  HEM420      0.0000
      2  CHB       -2.5890   22.2260  -17.4340 C.2   420  HEM420      0.0000
      3  CHC        1.6910   23.6310  -15.6440 C.2   420  HEM420      0.0000
      4  CHD        3.7940   22.4980  -19.8450 C.2   420  HEM420      0.0000
      5  C1A       -1.3450   20.8450  -20.4770 C.2   420  HEM420      0.0000
      6  C2A       -2.7340   20.4890  -20.5620 C.2   420  HEM420      0.0000
      7  C3A       -3.3170   20.9500  -19.4620 C.2   420  HEM420      0.0000
      8  C4A       -2.3400   21.6230  -18.6460 C.2   420  HEM420      0.0000
      9  CMA       -4.7950   20.8260  -19.1190 C.3   420  HEM420      0.0000
     10  CAA       -3.4030   19.6980  -21.7260 C.3   420  HEM420      0.0000
     11  CBA       -4.0230   20.6490  -22.7490 C.3   420  HEM420      0.0000
     12  CGA       -4.8140   19.8760  -23.7940 C.2   420  HEM420      0.0000
     13  O1A       -5.2790   20.5390  -24.7610 O.co2 420  HEM420      0.0000
     14  O2A       -5.0090   18.6360  -23.6950 O.co2 420  HEM420      0.0000
     15  C1B       -1.6320   22.7610  -16.6020 C.ar  420  HEM420      0.0000
     16  C2B       -1.8610   23.3220  -15.2970 C.ar  420  HEM420      0.0000
     17  C3B       -0.6870   23.7290  -14.7990 C.ar  420  HEM420      0.0000
     18  C4B        0.3360   23.4080  -15.7890 C.ar  420  HEM420      0.0000
     19  CMB       -3.2530   23.4220  -14.6360 C.3   420  HEM420      0.0000
     20  CAB       -0.3830   24.4060  -13.4380 C.2   420  HEM420      0.0000
     21  CBB       -1.1750   24.3180  -12.3540 C.2   420  HEM420      0.0000
     22  C1C        2.6330   23.3800  -16.6090 C.2   420  HEM420      0.0000
     23  C2C        4.0730   23.5770  -16.4540 C.2   420  HEM420      0.0000
     24  C3C        4.6700   23.2970  -17.6280 C.2   420  HEM420      0.0000
     25  C4C        3.6320   22.8800  -18.5370 C.2   420  HEM420      0.0000
     26  CMC        4.6830   24.0430  -15.1170 C.3   420  HEM420      0.0000
     27  CAC        6.1750   23.3630  -18.0360 C.2   420  HEM420      0.0000
     28  CBC        7.1720   23.4360  -17.1700 C.2   420  HEM420      0.0000
     29  C1D        2.8610   21.8610  -20.6250 C.ar  420  HEM420      0.0000
     30  C2D        3.1320   21.3490  -21.9470 C.ar  420  HEM420      0.0000
     31  C3D        1.8330   20.7160  -22.4430 C.ar  420  HEM420      0.0000
     32  C4D        0.8940   20.9460  -21.3730 C.ar  420  HEM420      0.0000
     33  CMD        4.4970   21.3950  -22.6660 C.3   420  HEM420      0.0000
     34  CAD        1.5130   20.0250  -23.7950 C.3   420  HEM420      0.0000
     35  CBD        1.5930   18.5080  -23.6600 C.3   420  HEM420      0.0000
     36  CGD        1.2360   17.8860  -25.0010 C.2   420  HEM420      0.0000
     37  O1D        1.6130   16.7050  -25.1810 O.co2 420  HEM420      0.0000
     38  O2D        0.5850   18.5320  -25.8520 O.co2 420  HEM420      0.0000
     39  NA        -1.1350   21.5330  -19.3030 N.2   420  HEM420      0.0000
     40  NB        -0.2850   22.8630  -16.8810 N.ar  420  HEM420      0.0000
     41  NC         2.4050   22.9550  -17.9010 N.2   420  HEM420      0.0000
     42  ND         1.5290   21.6140  -20.3160 N.ar  420  HEM420      0.0000
     43 FE          0.6410   22.1700  -18.5560 Fe    420  HEM420      0.0000
@<TRIPOS>BOND
     1    38    36   ar
     2    37    36   ar
     3    36    35    1
     4    13    12   ar
     5    34    35    1
     6    34    31    1
     7    12    14   ar
     8    12    11    1
     9    11    10    1
    10    33    30    1
    11    31    30   ar
    12    31    32   ar
    13    30    29   ar
    14    10     6    1
    15     1    32    2
    16     1     5    1
    17    32    42   ar
    18    29    42   ar
    19    29     4    2
    20     6     5    1
    21     6     7    2
    22     5    39    2
    23    42    43    1
    24     4    25    1
    25     7     9    1
    26     7     8    1
    27    39     8    1
    28    39    43    1
    29     8     2    2
    30    43    41    1
    31    43    40    1
    32    25    41    2
    33    25    24    1
    34    27    24    1
    35    27    28    2
    36    41    22    1
    37    24    23    2
    38     2    15    1
    39    40    15   ar
    40    40    18   ar
    41    22    23    1
    42    22     3    2
    43    15    16   ar
    44    23    26    1
    45    18     3    1
    46    18    17   ar
    47    16    17   ar
    48    16    19    1
    49    17    20    1
    50    20    21    2
