@<TRIPOS>MOLECULE
3l63_HEM_A_1.pdb
 43 50 0 0 0
SMALL
GASTEIGER

@<TRIPOS>ATOM
      1  CHA       -8.5790   -1.9830   17.4470 C.2   420  HEM420      0.0000
      2  CHB       -7.4770   -0.0290   21.7470 C.2   420  HEM420      0.0000
      3  CHC       -7.5930   -4.4600   23.7590 C.2   420  HEM420      0.0000
      4  CHD       -7.9610   -6.4700   19.3640 C.2   420  HEM420      0.0000
      5  C1A       -8.2880   -1.0700   18.4300 C.2   420  HEM420      0.0000
      6  C2A       -8.2310    0.3710   18.2470 C.2   420  HEM420      0.0000
      7  C3A       -7.9230    0.8960   19.4450 C.2   420  HEM420      0.0000
      8  C4A       -7.7900   -0.1720   20.4110 C.2   420  HEM420      0.0000
      9  CMA       -7.7420    2.3870   19.7970 C.3   420  HEM420      0.0000
     10  CAA       -8.4720    1.1050   16.8990 C.3   420  HEM420      0.0000
     11  CBA       -7.1370    1.3150   16.1630 C.3   420  HEM420      0.0000
     12  CGA       -7.3240    2.0600   14.8590 C.2   420  HEM420      0.0000
     13  O1A       -8.4250    2.6150   14.5990 O.co2 420  HEM420      0.0000
     14  O2A       -6.3660    2.1010   14.0450 O.co2 420  HEM420      0.0000
     15  C1B       -7.4330   -1.0480   22.6800 C.ar  420  HEM420      0.0000
     16  C2B       -7.2660   -0.8900   24.1040 C.ar  420  HEM420      0.0000
     17  C3B       -7.2900   -2.1170   24.6600 C.ar  420  HEM420      0.0000
     18  C4B       -7.4930   -3.0870   23.6050 C.ar  420  HEM420      0.0000
     19  CMB       -7.0630    0.4820   24.7930 C.3   420  HEM420      0.0000
     20  CAB       -7.1500   -2.5050   26.1450 C.2   420  HEM420      0.0000
     21  CBB       -7.0310   -1.6100   27.1330 C.2   420  HEM420      0.0000
     22  C1C       -7.6530   -5.4010   22.7430 C.2   420  HEM420      0.0000
     23  C2C       -7.5300   -6.8380   22.9030 C.2   420  HEM420      0.0000
     24  C3C       -7.6100   -7.4170   21.6850 C.2   420  HEM420      0.0000
     25  C4C       -7.8020   -6.3440   20.7270 C.2   420  HEM420      0.0000
     26  CMC       -7.3520   -7.5370   24.2690 C.3   420  HEM420      0.0000
     27  CAC       -7.5670   -8.9160   21.2770 C.2   420  HEM420      0.0000
     28  CBC       -7.4130   -9.9680   22.1010 C.2   420  HEM420      0.0000
     29  C1D       -8.1720   -5.4510   18.4630 C.ar  420  HEM420      0.0000
     30  C2D       -8.3500   -5.6450   17.0430 C.ar  420  HEM420      0.0000
     31  C3D       -8.5400   -4.2680   16.4490 C.ar  420  HEM420      0.0000
     32  C4D       -8.4700   -3.3470   17.5540 C.ar  420  HEM420      0.0000
     33  CMD       -8.3250   -6.9800   16.2690 C.3   420  HEM420      0.0000
     34  CAD       -8.7430   -3.9470   14.9640 C.3   420  HEM420      0.0000
     35  CBD      -10.1950   -3.6320   14.6210 C.3   420  HEM420      0.0000
     36  CGD      -10.2740   -3.1610   13.1920 C.2   420  HEM420      0.0000
     37  O1D      -11.3590   -3.3270   12.5910 O.co2 420  HEM420      0.0000
     38  O2D       -9.2620   -2.6310   12.6520 O.co2 420  HEM420      0.0000
     39  NA        -8.0290   -1.3630   19.7660 N.2   420  HEM420      0.0000
     40  NB        -7.5790   -2.3980   22.4110 N.ar  420  HEM420      0.0000
     41  NC        -7.8180   -5.1280   21.3980 N.2   420  HEM420      0.0000
     42  ND        -8.2490   -4.0850   18.7250 N.ar  420  HEM420      0.0000
     43 FE         -8.1870   -3.2230   20.6520 Fe    420  HEM420      0.0000
@<TRIPOS>BOND
     1    37    36   ar
     2    38    36   ar
     3    36    35    1
     4    14    12   ar
     5    13    12   ar
     6    35    34    1
     7    12    11    1
     8    34    31    1
     9    11    10    1
    10    33    30    1
    11    31    30   ar
    12    31    32   ar
    13    10     6    1
    14    30    29   ar
    15     1    32    2
    16     1     5    1
    17    32    42   ar
    18     6     5    1
    19     6     7    2
    20     5    39    2
    21    29    42   ar
    22    29     4    2
    23    42    43    1
    24     4    25    1
    25     7     9    1
    26     7     8    1
    27    39     8    1
    28    39    43    1
    29     8     2    2
    30    43    41    1
    31    43    40    1
    32    25    41    2
    33    25    24    1
    34    27    24    1
    35    27    28    2
    36    41    22    1
    37    24    23    2
    38     2    15    1
    39    40    15   ar
    40    40    18   ar
    41    15    16   ar
    42    22    23    1
    43    22     3    2
    44    23    26    1
    45    18     3    1
    46    18    17   ar
    47    16    17   ar
    48    16    19    1
    49    17    20    1
    50    20    21    2
