@<TRIPOS>MOLECULE
3l63_CAM_A_1.pdb
 11 12 0 0 0
SMALL
GASTEIGER

@<TRIPOS>ATOM
      1  C1        -2.7780   -2.1920   17.8270 C.3   440  CAM440      0.0282
      2  C2        -3.0500   -2.1960   16.3420 C.3   440  CAM440      0.1519
      3  O         -2.0850   -2.3840   15.3720 O.3   440  CAM440     -0.2232
      4  C3        -4.5090   -1.9370   16.0640 C.3   440  CAM440      0.0329
      5  C4        -4.9840   -1.8590   17.5160 C.3   440  CAM440      0.0026
      6  C5        -4.8690   -3.2860   18.0460 C.3   440  CAM440      0.0002
      7  C6        -3.3800   -3.5250   18.2880 C.3   440  CAM440      0.0024
      8  C7        -3.8290   -1.1660   18.2290 C.3   440  CAM440      0.0024
      9  C8        -3.5990    0.2360   17.6850 C.3   440  CAM440      0.0001
     10  C9        -4.0530   -1.0980   19.7360 C.3   440  CAM440      0.0001
     11  C10       -1.3090   -1.9340   18.1890 C.3   440  CAM440      0.0025
@<TRIPOS>BOND
     1     3     2    1
     2     4     2    1
     3     4     5    1
     4     2     1    1
     5     5     6    1
     6     5     8    1
     7     9     8    1
     8     1    11    1
     9     1     8    1
    10     1     7    1
    11     6     7    1
    12     8    10    1
