@<TRIPOS>MOLECULE
3l65_BU3_A_1.pdb
 16 15 0 0 0
SMALL
GASTEIGER

@<TRIPOS>ATOM
      1  O6        20.6910   21.1880   65.4450 O.3   1508  BU31508    -0.3895
      2  C3        19.5390   21.5810   66.1390 C.3   1508  BU31508     0.0780
      3  C4        19.4260   21.0960   67.5590 C.3   1508  BU31508    -0.0365
      4  C2        18.3070   21.9730   65.3670 C.3   1508  BU31508     0.0780
      5  O5        17.1080   21.2170   65.6330 O.3   1508  BU31508    -0.3895
      6  C1        18.4100   23.0340   64.1950 C.3   1508  BU31508    -0.0365
      7  HO6       20.5650   21.3030   64.5700 H     1508  BU31508     0.2099
      8  H3        19.8520   22.6180   66.2990 H     1508  BU31508     0.0616
      9  H41       18.8100   21.6760   68.0570 H     1508  BU31508     0.0255
     10  H42       19.0890   20.1840   67.5630 H     1508  BU31508     0.0255
     11  H43       20.3100   21.1210   67.9860 H     1508  BU31508     0.0255
     12  H2        18.0620   22.7300   66.1000 H     1508  BU31508     0.0616
     13  HO5       16.9380   20.6740   64.9480 H     1508  BU31508     0.2099
     14  H11       19.2920   22.9690   63.7670 H     1508  BU31508     0.0255
     15  H12       17.7260   22.8670   63.5360 H     1508  BU31508     0.0255
     16  H13       18.2910   23.9260   64.5600 H     1508  BU31508     0.0255
@<TRIPOS>BOND
     1    15     6    1
     2    14     6    1
     3     6    16    1
     4     6     4    1
     5     7     1    1
     6    13     5    1
     7     4     5    1
     8     4    12    1
     9     4     2    1
    10     1     2    1
    11     2     8    1
    12     2     3    1
    13     3    10    1
    14     3    11    1
    15     3     9    1
