@<TRIPOS>MOLECULE
3l65_FMN_A_1.pdb
 50 52 0 0 0
SMALL
GASTEIGER

@<TRIPOS>ATOM
      1  N1        19.2790   23.9530   59.5820 N.2   1401  FMN1401    -0.3029
      2  C2        19.5410   23.2480   58.4590 C.1   1401  FMN1401     0.2727
      3  O2        19.8730   22.0460   58.5020 O.2   1401  FMN1401    -0.1927
      4  N3        19.3670   23.8860   57.2280 N.am  1401  FMN1401    -0.1956
      5  C4        18.9740   25.1670   57.0820 C.2   1401  FMN1401     0.2929
      6  O4        18.9870   25.7240   55.9420 O.2   1401  FMN1401    -0.2661
      7  C4A       18.5870   25.7870   58.2440 C.2   1401  FMN1401     0.2291
      8  N5        18.0410   27.0840   58.1630 N.2   1401  FMN1401    -0.4002
      9  C5A       18.0220   27.8600   59.3770 C.2   1401  FMN1401     0.1045
     10  C6        17.7530   29.2320   59.2640 C.3   1401  FMN1401     0.0308
     11  C7        17.8510   30.0570   60.3950 C.3   1401  FMN1401     0.0080
     12  C7M       17.8190   31.5760   60.1630 C.3   1401  FMN1401    -0.0544
     13  C8        18.1530   29.4530   61.6180 C.2   1401  FMN1401    -0.0666
     14  C8M       18.2810   30.4000   62.8410 C.3   1401  FMN1401    -0.0431
     15  C9        18.3700   28.1370   61.7260 C.2   1401  FMN1401    -0.0518
     16  C9A       18.3630   27.3140   60.5910 C.3   1401  FMN1401     0.1366
     17  N10       18.7200   25.9220   60.6490 N.pl3 1401  FMN1401    -0.2815
     18  C10       18.8470   25.1990   59.4760 C.2   1401  FMN1401     0.2319
     19  C1'       19.2420   25.3730   61.9880 C.3   1401  FMN1401     0.0444
     20  C2'       20.6030   25.8970   62.2820 C.3   1401  FMN1401     0.0992
     21  O2'       21.5700   25.3050   61.3570 O.3   1401  FMN1401    -0.3876
     22  C3'       21.0720   25.5240   63.7120 C.3   1401  FMN1401     0.1104
     23  O3'       21.0840   24.1030   63.9210 O.3   1401  FMN1401    -0.3865
     24  C4'       20.1860   26.1580   64.8380 C.3   1401  FMN1401     0.1073
     25  O4'       19.9880   27.5640   64.5400 O.3   1401  FMN1401    -0.3868
     26  C5'       20.7450   25.9050   66.2390 C.3   1401  FMN1401     0.0876
     27  O5'       22.0070   26.5890   66.4400 O.3   1401  FMN1401    -0.2809
     28  P         22.1070   28.0220   67.1970 P.3   1401  FMN1401     0.5320
     29  O1P       21.3130   28.9850   66.3780 O.2   1401  FMN1401    -0.2224
     30  O2P       21.5050   27.8670   68.5910 O.3   1401  FMN1401    -0.1145
     31  O3P       23.5320   28.2800   67.2230 O.3   1401  FMN1401    -0.1145
     32  HN3       19.5540   23.3350   56.3660 H     1401  FMN1401     0.1693
     33  H6        17.3670   29.6350   58.3280 H     1401  FMN1401     0.0387
     34 HM71       16.8240   31.8720   59.8320 H     1401  FMN1401     0.0239
     35 HM72       18.5510   31.8420   59.4010 H     1401  FMN1401     0.0239
     36 HM73       18.0600   32.0900   61.0940 H     1401  FMN1401     0.0239
     37 HM81       17.3270   30.8970   63.0170 H     1401  FMN1401     0.0275
     38 HM82       19.0500   31.1470   62.6440 H     1401  FMN1401     0.0275
     39 HM83       18.5560   29.8190   63.7220 H     1401  FMN1401     0.0275
     40  H9        18.5150   27.6940   62.7110 H     1401  FMN1401     0.0598
     41 H1'1       19.2730   24.2840   61.9480 H     1401  FMN1401     0.0491
     42 H1'2       18.5610   25.6600   62.7900 H     1401  FMN1401     0.0491
     43  H2'       20.5980   26.9830   62.1790 H     1401  FMN1401     0.0636
     44 HO2'       22.2600   24.8290   61.8650 H     1401  FMN1401     0.2100
     45  H3'       22.0860   25.9050   63.8360 H     1401  FMN1401     0.0646
     46 HO3'       20.5420   23.8840   64.7070 H     1401  FMN1401     0.2100
     47  H4'       19.2150   25.6640   64.7930 H     1401  FMN1401     0.0643
     48 HO4'       20.2570   28.1030   65.3130 H     1401  FMN1401     0.2100
     49 H5'1       20.8880   24.8340   66.3830 H     1401  FMN1401     0.0592
     50 H5'2       20.0260   26.2480   66.9820 H     1401  FMN1401     0.0592
@<TRIPOS>BOND
     1     6     5    2
     2    32     4    1
     3     5     4   am
     4     5     7    1
     5     4     2   am
     6     8     7    2
     7     8     9    2
     8     7    18    1
     9    33    10    1
    10     2     3    2
    11     2     1    2
    12    10     9    1
    13    10    11    1
    14     9    16    1
    15    35    12    1
    16    18     1    2
    17    18    17    1
    18    34    12    1
    19    12    11    1
    20    12    36    1
    21    11    13    1
    22    16    17    1
    23    16    15    1
    24    17    19    1
    25    21    44    1
    26    21    20    1
    27    13    15    2
    28    13    14    1
    29    15    40    1
    30    41    19    1
    31    19    20    1
    32    19    42    1
    33    43    20    1
    34    20    22    1
    35    38    14    1
    36    14    37    1
    37    14    39    1
    38    22    45    1
    39    22    23    1
    40    22    24    1
    41    23    46    1
    42    25    24    1
    43    25    48    1
    44    47    24    1
    45    24    26    1
    46    26    49    1
    47    26    27    1
    48    26    50    1
    49    29    28    2
    50    27    28    1
    51    28    31    1
    52    28    30    1
