@<TRIPOS>MOLECULE
3l66_BU3_A_1.pdb
 16 15 0 0 0
SMALL
GASTEIGER

@<TRIPOS>ATOM
      1  O6        10.5640    3.4220   64.6170 O.3   1509  BU31509    -0.3895
      2  C3        11.8700    3.7940   64.2340 C.3   1509  BU31509     0.0780
      3  C4        13.0790    3.1610   64.8940 C.3   1509  BU31509    -0.0365
      4  C2        12.0450    5.1300   63.5350 C.3   1509  BU31509     0.0780
      5  O5        10.8290    5.7550   63.0800 O.3   1509  BU31509    -0.3895
      6  C1        13.5010    5.7010   63.2490 C.3   1509  BU31509    -0.0365
      7  HO6        9.9830    4.0300   64.3210 H     1509  BU31509     0.2099
      8  H3        11.8600    3.2420   63.2880 H     1509  BU31509     0.0616
      9  H41       12.9000    2.2120   65.0670 H     1509  BU31509     0.0255
     10  H42       13.8490    3.2440   64.3060 H     1509  BU31509     0.0255
     11  H43       13.2640    3.6160   65.7450 H     1509  BU31509     0.0255
     12  H2        11.9880    5.6400   64.4870 H     1509  BU31509     0.0616
     13  HO5       10.8200    6.6090   63.3330 H     1509  BU31509     0.2099
     14  H11       13.4750    6.2950   62.4670 H     1509  BU31509     0.0255
     15  H12       13.8170    6.1970   64.0120 H     1509  BU31509     0.0255
     16  H13       14.1050    4.9610   63.0760 H     1509  BU31509     0.0255
@<TRIPOS>BOND
     1    14     6    1
     2    16     6    1
     3     5    13    1
     4     5     4    1
     5     6     4    1
     6     6    15    1
     7     8     2    1
     8     4     2    1
     9     4    12    1
    10     2     1    1
    11     2     3    1
    12    10     3    1
    13     7     1    1
    14     3     9    1
    15     3    11    1
