@<TRIPOS>MOLECULE
3l66_COU_A_1.pdb
 17 18 0 0 0
SMALL
GASTEIGER

@<TRIPOS>ATOM
      1  C1        15.9060   23.9210   58.3300 C.ar  801  COU801      0.3372
      2  C2        15.5340   24.9120   57.4010 C.ar  801  COU801      0.0236
      3  C3        15.0930   26.1640   57.8430 C.ar  801  COU801     -0.0443
      4  C4        15.0100   26.3890   59.2300 C.ar  801  COU801      0.0176
      5  C5        14.6000   27.6150   59.7760 C.ar  801  COU801     -0.0511
      6  C6        14.5430   27.7660   61.1450 C.ar  801  COU801     -0.0610
      7  C7        14.9180   26.7310   61.9960 C.ar  801  COU801     -0.0582
      8  C8        15.3250   25.5210   61.4810 C.ar  801  COU801     -0.0186
      9  C9        15.3820   25.3680   60.1090 C.ar  801  COU801      0.1390
     10  O1        16.3710   22.8220   58.0200 O.2   801  COU801     -0.2452
     11  O2        15.8070   24.1540   59.6740 O.2   801  COU801     -0.4222
     12  H2        15.6220   24.7150   56.3400 H     801  COU801      0.0689
     13  H3        14.8160   26.9380   57.1370 H     801  COU801      0.0627
     14  H5        14.2820   28.4210   59.1260 H     801  COU801      0.0625
     15  H6        14.1880   28.6990   61.5640 H     801  COU801      0.0618
     16  H7        14.8590   26.8680   63.0680 H     801  COU801      0.0619
     17  H8        15.6370   24.7190   62.1380 H     801  COU801      0.0654
@<TRIPOS>BOND
     1    12     2    1
     2    13     3    1
     3     2     3   ar
     4     2     1   ar
     5     3     4   ar
     6    10     1    2
     7     1    11   ar
     8    14     5    1
     9     4     5   ar
    10     4     9   ar
    11    11     9   ar
    12     5     6   ar
    13     9     8   ar
    14     6    15    1
    15     6     7   ar
    16     8     7   ar
    17     8    17    1
    18     7    16    1
