@<TRIPOS>MOLECULE
3l66_FMN_A_1.pdb
 50 52 0 0 0
SMALL
GASTEIGER

@<TRIPOS>ATOM
      1  N1        19.0920   24.0330   59.4150 N.2   1401  FMN1401    -0.3025
      2  C2        19.3250   23.2980   58.3160 C.1   1401  FMN1401     0.2727
      3  O2        19.7010   22.1420   58.3030 O.2   1401  FMN1401    -0.1927
      4  N3        19.1910   23.9910   57.0850 N.am  1401  FMN1401    -0.1956
      5  C4        18.8110   25.2620   56.9540 C.2   1401  FMN1401     0.2930
      6  O4        18.8300   25.8280   55.7960 O.2   1401  FMN1401    -0.2661
      7  C4A       18.3960   25.9140   58.1300 C.2   1401  FMN1401     0.2298
      8  N5        18.0010   27.2370   58.0230 N.2   1401  FMN1401    -0.3963
      9  C5A       17.9100   27.9260   59.2300 C.2   1401  FMN1401     0.1216
     10  C6        17.5630   29.2830   59.1120 C.3   1401  FMN1401     0.0486
     11  C7        17.6320   30.1530   60.2310 C.2   1401  FMN1401    -0.0588
     12  C7M       17.4980   31.6570   60.1150 C.3   1401  FMN1401    -0.0426
     13  C8        17.9170   29.5740   61.4770 C.2   1401  FMN1401    -0.0489
     14  C8M       17.9890   30.4280   62.7220 C.3   1401  FMN1401    -0.0397
     15  C9        18.1700   28.1900   61.5910 C.2   1401  FMN1401    -0.0346
     16  C9A       18.1950   27.3640   60.4150 C.2   1401  FMN1401     0.0704
     17  N10       18.5700   26.0300   60.5020 N.pl3 1401  FMN1401    -0.2669
     18  C10       18.6910   25.3210   59.3440 C.2   1401  FMN1401     0.2351
     19  C1'       19.1150   25.4460   61.7930 C.3   1401  FMN1401     0.0482
     20  C2'       20.4480   25.9790   62.1070 C.3   1401  FMN1401     0.0996
     21  O2'       21.4300   25.4130   61.1910 O.3   1401  FMN1401    -0.3876
     22  C3'       20.9280   25.6090   63.5170 C.3   1401  FMN1401     0.1104
     23  O3'       20.8700   24.2050   63.7180 O.3   1401  FMN1401    -0.3865
     24  C4'       20.0730   26.2670   64.6130 C.3   1401  FMN1401     0.1073
     25  O4'       19.9110   27.6790   64.3380 O.3   1401  FMN1401    -0.3868
     26  C5'       20.6290   26.0120   65.9730 C.3   1401  FMN1401     0.0876
     27  O5'       21.9180   26.5970   66.2040 O.3   1401  FMN1401    -0.2809
     28  P         22.0150   28.0430   67.0050 P.3   1401  FMN1401     0.5320
     29  O1P       21.1880   29.0400   66.2230 O.2   1401  FMN1401    -0.2224
     30  O2P       21.3950   27.8660   68.3920 O.3   1401  FMN1401    -0.1145
     31  O3P       23.4420   28.3000   66.9980 O.3   1401  FMN1401    -0.1145
     32  HN3       19.4080   23.4650   56.2140 H     1401  FMN1401     0.1693
     33  H6        17.2130   29.6670   58.1530 H     1401  FMN1401     0.0430
     34 HM71       16.5010   31.9060   59.7490 H     1401  FMN1401     0.0275
     35 HM72       18.2450   32.0360   59.4180 H     1401  FMN1401     0.0275
     36 HM73       17.6500   32.1130   61.0930 H     1401  FMN1401     0.0275
     37 HM81       17.0240   30.9030   62.8930 H     1401  FMN1401     0.0278
     38 HM82       18.7540   31.1940   62.5930 H     1401  FMN1401     0.0278
     39 HM83       18.2430   29.8020   63.5770 H     1401  FMN1401     0.0278
     40  H9        18.2500   27.7330   62.5770 H     1401  FMN1401     0.0640
     41 H1'1       19.1720   24.3610   61.7030 H     1401  FMN1401     0.0495
     42 H1'2       18.4320   25.6770   62.6100 H     1401  FMN1401     0.0495
     43  H2'       20.4290   27.0650   62.0110 H     1401  FMN1401     0.0636
     44 HO2'       22.1270   24.9520   61.7040 H     1401  FMN1401     0.2100
     45  H3'       21.9560   25.9510   63.6310 H     1401  FMN1401     0.0646
     46 HO3'       20.3090   24.0090   64.4970 H     1401  FMN1401     0.2100
     47  H4'       19.0890   25.7980   64.5770 H     1401  FMN1401     0.0643
     48 HO4'       20.2150   28.1990   65.1110 H     1401  FMN1401     0.2100
     49 H5'1       20.7010   24.9350   66.1260 H     1401  FMN1401     0.0592
     50 H5'2       19.9310   26.3980   66.7160 H     1401  FMN1401     0.0592
@<TRIPOS>BOND
     1     6     5    2
     2    32     4    1
     3     5     4   am
     4     5     7    1
     5     4     2   am
     6     8     7    2
     7     8     9    2
     8     7    18    1
     9    33    10    1
    10     3     2    2
    11     2     1    2
    12    10     9    1
    13    10    11    1
    14     9    16    1
    15    18     1    2
    16    18    17    1
    17    35    12    1
    18    34    12    1
    19    12    11    1
    20    12    36    1
    21    11    13    2
    22    16    17    1
    23    16    15    2
    24    17    19    1
    25    21    44    1
    26    21    20    1
    27    13    15    1
    28    13    14    1
    29    15    40    1
    30    41    19    1
    31    19    20    1
    32    19    42    1
    33    43    20    1
    34    20    22    1
    35    38    14    1
    36    14    37    1
    37    14    39    1
    38    22    45    1
    39    22    23    1
    40    22    24    1
    41    23    46    1
    42    25    24    1
    43    25    48    1
    44    47    24    1
    45    24    26    1
    46    26    49    1
    47    26    27    1
    48    26    50    1
    49    27    28    1
    50    29    28    2
    51    31    28    1
    52    28    30    1
