@<TRIPOS>MOLECULE
3l67_FMN_A_1.pdb
 31 33 0 0 0
SMALL
GASTEIGER

@<TRIPOS>ATOM
      1  N1        19.1770   24.0730   59.4070 N.2   1401  FMN1401    -0.2887
      2  C2        19.4170   23.3580   58.2520 C.1   1401  FMN1401     0.3669
      3  O2        19.7330   22.1690   58.3190 O.2   1401  FMN1401    -0.1744
      4  N3        19.2540   23.9630   57.0170 N.2   1401  FMN1401    -0.2300
      5  C4        18.7470   25.2530   56.9380 C.1   1401  FMN1401     0.2513
      6  O4        18.7040   25.8290   55.8470 O.2   1401  FMN1401    -0.2057
      7  C4A       18.5010   25.9620   58.1080 C.2   1401  FMN1401     0.2706
      8  N5        18.0560   27.2730   58.0400 N.2   1401  FMN1401    -0.3841
      9  C5A       18.0560   28.0580   59.1710 C.2   1401  FMN1401     0.1452
     10  C6        17.7030   29.3900   59.0850 C.2   1401  FMN1401     0.0252
     11  C7        17.8320   30.2150   60.1920 C.2   1401  FMN1401    -0.0375
     12  C7M       17.7870   31.7030   60.0220 C.3   1401  FMN1401     0.0268
     13  C8        18.1250   29.6620   61.4340 C.3   1401  FMN1401     0.0417
     14  C8M       18.1830   30.5430   62.6560 C.3   1401  FMN1401     0.0091
     15  C9        18.3880   28.3020   61.5420 C.2   1401  FMN1401    -0.0049
     16  C9A       18.3290   27.4890   60.4090 C.2   1401  FMN1401     0.0795
     17  N10       18.7060   26.1550   60.4900 N.pl3 1401  FMN1401    -0.2545
     18  C10       18.8430   25.4140   59.3320 C.2   1401  FMN1401     0.2449
     19  C1'       19.1610   25.5780   61.8080 C.3   1401  FMN1401     0.1336
     20  C2'       20.5900   26.0350   62.0980 C.3   1401  FMN1401     0.2048
     21  O2'       21.4790   25.4480   61.1580 O.3   1401  FMN1401    -0.2185
     22  C3'       21.0170   25.6660   63.5260 C.3   1401  FMN1401     0.2165
     23  O3'       20.9440   24.2720   63.6980 O.3   1401  FMN1401    -0.2175
     24  C4'       20.1300   26.3610   64.5680 C.3   1401  FMN1401     0.2147
     25  O4'       20.1350   27.7520   64.3400 O.3   1401  FMN1401    -0.2176
     26  C5'       20.6110   26.0740   66.0020 C.3   1401  FMN1401     0.1892
     27  O5'       21.8910   26.6510   66.2060 O.3   1401  FMN1401    -0.2674
     28  P         22.0530   28.0720   66.9800 P.3   1401  FMN1401     0.5327
     29  O1P       21.2580   29.1180   66.2450 O.2   1401  FMN1401    -0.2224
     30  O2P       21.5270   27.9440   68.3910 O.3   1401  FMN1401    -0.1145
     31  O3P       23.5100   28.4640   67.0150 O.3   1401  FMN1401    -0.1145
@<TRIPOS>BOND
     1     6     5    2
     2     5     4    2
     3     5     7    1
     4     4     2    2
     5     8     7    2
     6     8     9    2
     7     7    18    1
     8     2     3    2
     9     2     1    2
    10    10     9    1
    11    10    11    2
    12     9    16    1
    13    18     1    2
    14    18    17    1
    15    12    11    1
    16    11    13    1
    17    16    17    1
    18    16    15    2
    19    17    19    1
    20    21    20    1
    21    13    15    1
    22    13    14    1
    23    19    20    1
    24    20    22    1
    25    22    23    1
    26    22    24    1
    27    25    24    1
    28    24    26    1
    29    26    27    1
    30    27    28    1
    31    29    28    2
    32    28    31    1
    33    28    30    1
