@<TRIPOS>MOLECULE
3l68_FMN_A_1.pdb
 31 33 0 0 0
SMALL
GASTEIGER

@<TRIPOS>ATOM
      1  N1        19.3860   24.0500   59.1910 N.2   1401  FMN1401    -0.2887
      2  C2        19.5110   23.3170   58.0280 C.1   1401  FMN1401     0.3669
      3  O2        19.8230   22.1330   58.0890 O.2   1401  FMN1401    -0.1744
      4  N3        19.2850   23.9040   56.7990 N.2   1401  FMN1401    -0.2300
      5  C4        18.9330   25.2360   56.7270 C.1   1401  FMN1401     0.2513
      6  O4        18.7380   25.7780   55.6320 O.2   1401  FMN1401    -0.2057
      7  C4A       18.8120   25.9750   57.8960 C.2   1401  FMN1401     0.2706
      8  N5        18.4580   27.3030   57.8280 N.2   1401  FMN1401    -0.3841
      9  C5A       18.3490   28.0380   58.9910 C.2   1401  FMN1401     0.1452
     10  C6        17.9970   29.3750   58.9030 C.2   1401  FMN1401     0.0252
     11  C7        17.8760   30.1460   60.0490 C.2   1401  FMN1401    -0.0375
     12  C7M       17.5080   31.5950   59.9020 C.3   1401  FMN1401     0.0268
     13  C8        18.0990   29.5760   61.2980 C.3   1401  FMN1401     0.0417
     14  C8M       17.9670   30.4230   62.5400 C.3   1401  FMN1401     0.0091
     15  C9        18.4490   28.2300   61.3910 C.2   1401  FMN1401    -0.0049
     16  C9A       18.5740   27.4500   60.2330 C.2   1401  FMN1401     0.0795
     17  N10       18.9140   26.1100   60.2980 N.pl3 1401  FMN1401    -0.2545
     18  C10       19.0460   25.3810   59.1320 C.2   1401  FMN1401     0.2449
     19  C1'       19.1980   25.4540   61.6270 C.3   1401  FMN1401     0.1336
     20  C2'       20.6160   25.9150   61.9640 C.3   1401  FMN1401     0.2048
     21  O2'       21.5030   25.3980   60.9870 O.3   1401  FMN1401    -0.2185
     22  C3'       21.0770   25.5520   63.3840 C.3   1401  FMN1401     0.2165
     23  O3'       21.0120   24.1490   63.5960 O.3   1401  FMN1401    -0.2175
     24  C4'       20.2240   26.2500   64.4500 C.3   1401  FMN1401     0.2147
     25  O4'       20.1400   27.6460   64.2090 O.3   1401  FMN1401    -0.2176
     26  C5'       20.7720   26.0180   65.8580 C.3   1401  FMN1401     0.1892
     27  O5'       22.0350   26.6220   66.0330 O.3   1401  FMN1401    -0.2674
     28  P         22.1780   28.0490   66.7890 P.3   1401  FMN1401     0.5327
     29  O1P       21.4330   29.0740   65.9730 O.2   1401  FMN1401    -0.2224
     30  O2P       21.5710   28.0180   68.1630 O.3   1401  FMN1401    -0.1145
     31  O3P       23.6390   28.4110   66.8890 O.3   1401  FMN1401    -0.1145
@<TRIPOS>BOND
     1     6     5    2
     2     5     4    2
     3     5     7    1
     4     4     2    2
     5     8     7    2
     6     8     9    2
     7     7    18    1
     8     2     3    2
     9     2     1    2
    10    10     9    1
    11    10    11    2
    12     9    16    1
    13    18     1    2
    14    18    17    1
    15    12    11    1
    16    11    13    1
    17    16    17    1
    18    16    15    2
    19    17    19    1
    20    21    20    1
    21    13    15    1
    22    13    14    1
    23    19    20    1
    24    20    22    1
    25    22    23    1
    26    22    24    1
    27    25    24    1
    28    24    26    1
    29    26    27    1
    30    29    28    2
    31    27    28    1
    32    28    31    1
    33    28    30    1
