@<TRIPOS>MOLECULE
3l68_COU_A_1.pdb
 11 12 0 0 0
SMALL
GASTEIGER

@<TRIPOS>ATOM
      1  C1        16.1380   23.9360   58.1390 C.ar  801  COU801      0.3459
      2  C2        15.7690   24.8720   57.1770 C.ar  801  COU801      0.0824
      3  C3        15.2980   26.1200   57.5750 C.ar  801  COU801      0.0097
      4  C4        15.2050   26.4040   58.9430 C.ar  801  COU801      0.0349
      5  C5        14.7410   27.6440   59.3710 C.ar  801  COU801      0.0030
      6  C6        14.6520   27.9240   60.7300 C.ar  801  COU801      0.0002
      7  C7        15.0220   26.9680   61.6660 C.ar  801  COU801      0.0031
      8  C8        15.4870   25.7280   61.2430 C.ar  801  COU801      0.0376
      9  C9        15.5760   25.4520   59.8830 C.ar  801  COU801      0.1487
     10  O1        16.5620   22.8110   57.7970 O.2   801  COU801     -0.2445
     11  O2        16.0320   24.2280   59.4790 O.2   801  COU801     -0.4210
@<TRIPOS>BOND
     1     2     3   ar
     2     2     1   ar
     3     3     4   ar
     4    10     1    2
     5     1    11   ar
     6     4     5   ar
     7     4     9   ar
     8     5     6   ar
     9    11     9   ar
    10     9     8   ar
    11     6     7   ar
    12     8     7   ar
