@<TRIPOS>MOLECULE
3l6b_PLP_A_1.pdb
 15 15 0 0 0
SMALL
GASTEIGER

@<TRIPOS>ATOM
      1  N1        -2.1270   26.2760  -20.9470 N.ar  350  PLP350     -0.2452
      2  C2        -0.8100   26.4480  -21.1600 C.ar  350  PLP350      0.0978
      3  C2A       -0.2820   27.8280  -21.4670 C.3   350  PLP350      0.0555
      4  C3         0.0480   25.3610  -21.0640 C.ar  350  PLP350      0.2049
      5  O3         1.3780   25.5430  -21.2780 O.3   350  PLP350     -0.2857
      6  C4        -0.4820   24.0950  -20.7880 C.ar  350  PLP350      0.0182
      7  C4A        0.3970   22.8980  -20.6590 C.3   350  PLP350      0.0342
      8  C5        -1.8420   23.9410  -20.5880 C.ar  350  PLP350      0.0261
      9  C6        -2.6470   25.0690  -20.6720 C.ar  350  PLP350      0.0965
     10  C5A       -2.4720   22.5820  -20.3180 C.3   350  PLP350      0.1815
     11  O4P       -1.8960   21.8280  -19.2490 O.3   350  PLP350     -0.2653
     12  P         -1.9900   20.2250  -19.3210 P.3   350  PLP350      0.5329
     13  O1P       -1.2260   19.7810  -20.5580 O.2   350  PLP350     -0.2224
     14  O2P       -3.4610   19.9200  -19.4220 O.3   350  PLP350     -0.1145
     15  O3P       -1.3560   19.7630  -18.0370 O.3   350  PLP350     -0.1145
@<TRIPOS>BOND
     1     3     2    1
     2     5     4    1
     3     2     4   ar
     4     2     1   ar
     5     4     6   ar
     6     1     9   ar
     7     6     7    1
     8     6     8   ar
     9     9     8   ar
    10     8    10    1
    11    13    12    2
    12    10    11    1
    13    14    12    1
    14    12    11    1
    15    12    15    1
