@<TRIPOS>MOLECULE
3l6c_PLP_A_1.pdb
 15 15 0 0 0
SMALL
GASTEIGER

@<TRIPOS>ATOM
      1  N1        16.9570  -21.6410   -8.3620 N.ar  350  PLP350     -0.2452
      2  C2        17.4810  -22.0520   -7.1640 C.ar  350  PLP350      0.0978
      3  C2A       18.8750  -21.7030   -6.6920 C.3   350  PLP350      0.0555
      4  C3        16.6960  -22.8340   -6.3450 C.ar  350  PLP350      0.2049
      5  O3        17.1990  -23.2550   -5.1580 O.3   350  PLP350     -0.2857
      6  C4        15.4130  -23.2090   -6.7250 C.ar  350  PLP350      0.0182
      7  C4A       14.6600  -24.0450   -5.7330 C.3   350  PLP350      0.0342
      8  C5        14.8930  -22.7880   -7.9580 C.ar  350  PLP350      0.0261
      9  C6        15.6960  -22.0010   -8.7670 C.ar  350  PLP350      0.0965
     10  C5A       13.5140  -23.1670   -8.4590 C.3   350  PLP350      0.1815
     11  O4P       12.4310  -22.7450   -7.6370 O.3   350  PLP350     -0.2653
     12  P         11.0150  -23.4010   -7.7920 P.3   350  PLP350      0.5329
     13  O1P       11.1120  -24.8030   -7.3740 O.3   350  PLP350     -0.1145
     14  O2P       10.7130  -23.2370   -9.2770 O.2   350  PLP350     -0.2224
     15  O3P       10.0810  -22.6410   -6.9010 O.3   350  PLP350     -0.1145
@<TRIPOS>BOND
     1    14    12    2
     2     9     1   ar
     3     9     8   ar
     4    10     8    1
     5    10    11    1
     6     1     2   ar
     7     8     6   ar
     8    12    11    1
     9    12    13    1
    10    12    15    1
    11     2     3    1
    12     2     4   ar
    13     6     4   ar
    14     6     7    1
    15     4     5    1
