@<TRIPOS>MOLECULE
3l6j_Z90_A_1.pdb
 42 45 0 0 0
SMALL
GASTEIGER

@<TRIPOS>ATOM
      1  OAA        4.8750   24.7120   74.0210 O.co2 190  Z90190     -0.2457
      2  OAB        1.8550   20.9870   77.0700 O.co2 190  Z90190     -0.2406
      3  OAC        5.7630   26.2340   72.6830 O.co2 190  Z90190     -0.2457
      4  OAD        2.8630   19.0970   77.5410 O.co2 190  Z90190     -0.2406
      5  CAE        0.6340   12.3690   76.2750 C.ar  190  Z90190     -0.0000
      6  CAF        0.3510   11.8010   75.0380 C.ar  190  Z90190     -0.0003
      7  CAG        1.1270   13.6650   76.3380 C.ar  190  Z90190     -0.0003
      8  CAH        4.5270   21.0660   64.9730 C.ar  190  Z90190     -0.0001
      9  CAI        4.5290   19.9330   64.1700 C.ar  190  Z90190      0.0031
     10  CAJ        0.5750   12.5280   73.8730 C.ar  190  Z90190     -0.0043
     11  CAK        1.3600   14.3970   75.1760 C.ar  190  Z90190     -0.0043
     12  CAL        4.2430   20.9590   66.3360 C.ar  190  Z90190     -0.0012
     13  CAM        4.2440   18.6920   64.7430 C.ar  190  Z90190      0.0366
     14  CAN        2.0100   13.9270   68.9780 C.ar  190  Z90190     -0.0045
     15  CAO        1.5630   15.9340   70.2570 C.ar  190  Z90190     -0.0045
     16  CAP        2.2220   14.7100   67.8430 C.ar  190  Z90190     -0.0010
     17  CAQ        1.7680   16.7110   69.1210 C.ar  190  Z90190     -0.0010
     18  CAR        3.9250   18.4370   73.5530 C.ar  190  Z90190     -0.0027
     19  CAS        2.6650   20.4020   72.9280 C.ar  190  Z90190     -0.0027
     20  CAT        3.6040   18.6580   74.8900 C.ar  190  Z90190      0.0063
     21  CAU        2.3410   20.6200   74.2680 C.ar  190  Z90190      0.0063
     22  CAV        6.4440   22.9500   72.1170 C.3   190  Z90190      0.0132
     23  CAW        6.3470   21.8700   71.0450 C.3   190  Z90190      0.0179
     24  CAX        5.4790   24.0790   71.7920 C.3   190  Z90190      0.1141
     25  CAY        1.3390   14.6160   72.6680 C.3   190  Z90190      0.0310
     26  CAZ        1.4570   13.7050   71.4440 C.3   190  Z90190      0.0310
     27  CBA        3.6540   19.7130   68.4400 C.3   190  Z90190      0.0467
     28  CBB        5.7080   20.6020   71.5930 C.3   190  Z90190      0.0724
     29  CBC        4.5640   20.5920   69.3270 C.3   190  Z90190      0.0772
     30  CBD        2.3160   16.8880   66.7930 C.3   190  Z90190      0.2320
     31  CBE        3.8320   19.0340   71.1090 C.3   190  Z90190      0.0992
     32  OBF        3.6900   17.3310   66.6040 O.3   190  Z90190     -0.4710
     33  CBG        5.3660   25.0890   72.9360 C.2   190  Z90190      0.3649
     34  CBH        2.4690   19.9560   76.7310 C.2   190  Z90190      0.3878
     35  CBI        1.0840   13.8230   73.9400 C.ar  190  Z90190     -0.0218
     36  CBJ        1.6820   14.5430   70.1860 C.ar  190  Z90190     -0.0219
     37  CBK        2.0910   16.0990   67.9140 C.ar  190  Z90190      0.0211
     38  CBL        3.4670   19.3100   72.5730 C.ar  190  Z90190     -0.0061
     39  CBM        2.8010   19.7370   75.2490 C.ar  190  Z90190      0.0798
     40  CBN        3.9590   19.7270   66.9260 C.ar  190  Z90190      0.0132
     41  CBO        3.9420   18.5840   66.1020 C.ar  190  Z90190      0.1351
     42  NBP        4.9280   19.8680   70.5690 N.3   190  Z90190     -0.2686
@<TRIPOS>BOND
     1     9    13   ar
     2     9     8   ar
     3    13    41   ar
     4     8    12   ar
     5    41    32    1
     6    41    40   ar
     7    12    40   ar
     8    32    30    1
     9    30    37    1
    10    40    27    1
    11    16    37   ar
    12    16    14   ar
    13    37    17   ar
    14    27    29    1
    15    14    36   ar
    16    17    15   ar
    17    29    42    1
    18    36    15   ar
    19    36    26    1
    20    42    31    1
    21    42    28    1
    22    23    28    1
    23    23    22    1
    24    31    38    1
    25    26    25    1
    26    24    22    1
    27    24    33    1
    28    38    19   ar
    29    38    18   ar
    30    25    35    1
    31     3    33   ar
    32    19    21   ar
    33    33     1   ar
    34    18    20   ar
    35    10    35   ar
    36    10     6   ar
    37    35    11   ar
    38    21    39   ar
    39    20    39   ar
    40     6     5   ar
    41    11     7   ar
    42    39    34    1
    43     5     7   ar
    44    34     2   ar
    45    34     4   ar
