@<TRIPOS>MOLECULE
3l70_HEC_D_1.pdb
 43 50 0 0 0
SMALL
GASTEIGER

@<TRIPOS>ATOM
      1 FE          4.1910  161.0110   65.9920 Fe    501  HEC501      0.0000
      2  CHA        2.8520  158.6380   67.9980 C.2   501  HEC501      0.0000
      3  CHB        5.4500  158.5760   64.0480 C.2   501  HEC501      0.0000
      4  CHC        5.5170  163.3270   63.9280 C.2   501  HEC501      0.0000
      5  CHD        3.0180  163.3880   67.9460 C.2   501  HEC501      0.0000
      6  NA         4.1520  159.0350   66.0250 N.ar  501  HEC501      0.0000
      7  C1A        3.5080  158.1940   66.8990 C.ar  501  HEC501      0.0000
      8  C2A        3.5700  156.7850   66.4660 C.ar  501  HEC501      0.0000
      9  C3A        4.4540  156.7830   65.4340 C.ar  501  HEC501      0.0000
     10  C4A        4.7130  158.1730   65.1210 C.ar  501  HEC501      0.0000
     11  CMA        5.0690  155.5150   64.8490 C.3   501  HEC501      0.0000
     12  CAA        2.7490  155.5500   66.7840 C.3   501  HEC501      0.0000
     13  CBA        2.5130  155.2270   68.2030 C.3   501  HEC501      0.0000
     14  CGA        1.9710  153.8320   68.3690 C.2   501  HEC501      0.0000
     15  O1A        1.6740  153.4460   69.5210 O.co2 501  HEC501      0.0000
     16  O2A        1.8470  153.1080   67.3580 O.co2 501  HEC501      0.0000
     17  NB         5.2620  160.9850   64.3620 N.2   501  HEC501      0.0000
     18  C1B        5.7150  159.8830   63.6940 C.2   501  HEC501      0.0000
     19  C2B        6.4000  160.2160   62.4940 C.2   501  HEC501      0.0000
     20  C3B        6.3140  161.5640   62.3900 C.2   501  HEC501      0.0000
     21  C4B        5.6910  162.0220   63.5810 C.2   501  HEC501      0.0000
     22  CMB        7.1430  159.2940   61.5500 C.3   501  HEC501      0.0000
     23  CAB        6.9770  162.5210   61.4300 C.3   501  HEC501      0.0000
     24  CBB        6.5090  162.1930   60.0260 C.3   501  HEC501      0.0000
     25  NC         4.2240  162.9200   65.9570 N.ar  501  HEC501      0.0000
     26  C1C        4.8090  163.7370   65.0480 C.ar  501  HEC501      0.0000
     27  C2C        4.7020  165.1080   65.4570 C.ar  501  HEC501      0.0000
     28  C3C        4.2260  165.0770   66.7050 C.ar  501  HEC501      0.0000
     29  C4C        3.7260  163.7670   66.8800 C.ar  501  HEC501      0.0000
     30  CMC        5.1320  166.3640   64.7460 C.3   501  HEC501      0.0000
     31  CAC        4.0300  166.1750   67.7460 C.3   501  HEC501      0.0000
     32  CBC        2.9840  167.2300   67.3210 C.3   501  HEC501      0.0000
     33  ND         3.2130  161.0020   67.6110 N.2   501  HEC501      0.0000
     34  C1D        2.7990  162.0930   68.3130 C.2   501  HEC501      0.0000
     35  C2D        2.0470  161.7470   69.5210 C.2   501  HEC501      0.0000
     36  C3D        1.9890  160.4040   69.5550 C.2   501  HEC501      0.0000
     37  C4D        2.7240  159.9510   68.3380 C.2   501  HEC501      0.0000
     38  CMD        1.4490  162.6510   70.5460 C.3   501  HEC501      0.0000
     39  CAD        1.2280  159.6190   70.6090 C.3   501  HEC501      0.0000
     40  CBD       -0.0130  158.9980   69.9850 C.3   501  HEC501      0.0000
     41  CGD       -0.8210  158.1840   70.9790 C.2   501  HEC501      0.0000
     42  O1D       -0.2270  157.2780   71.6180 O.co2 501  HEC501      0.0000
     43  O2D       -2.0440  158.4530   71.1100 O.co2 501  HEC501      0.0000
@<TRIPOS>BOND
     1    24    23    1
     2    23    20    1
     3    22    19    1
     4    20    19    2
     5    20    21    1
     6    19    18    1
     7    21     4    2
     8    21    17    1
     9    18     3    1
    10    18    17    2
    11     4    26    1
    12     3    10    2
    13    17     1    1
    14    30    27    1
    15    11     9    1
    16    26    27   ar
    17    26    25   ar
    18    10     9   ar
    19    10     6   ar
    20     9     8   ar
    21    27    28   ar
    22    25     1    1
    23    25    29   ar
    24     1     6    1
    25     1    33    1
    26     6     7   ar
    27     8    12    1
    28     8     7   ar
    29    28    29   ar
    30    28    31    1
    31    12    13    1
    32    29     5    1
    33     7     2    2
    34    32    31    1
    35    16    14   ar
    36    33    34    1
    37    33    37    2
    38     5    34    2
    39     2    37    1
    40    13    14    1
    41    34    35    1
    42    37    36    1
    43    14    15   ar
    44    35    36    2
    45    35    38    1
    46    36    39    1
    47    40    39    1
    48    40    41    1
    49    41    43   ar
    50    41    42   ar
