@<TRIPOS>MOLECULE
3l70_UQ_C_1.pdb
 19 19 0 0 0
SMALL
GASTEIGER

@<TRIPOS>ATOM
      1  C1        28.2350  111.1690   71.2780 C.2   2002  UQ2002      0.2285
      2  C2        27.7440  109.7280   71.6620 C.2   2002  UQ2002      0.2140
      3  C3        28.1810  109.1080   72.8490 C.2   2002  UQ2002      0.2140
      4  C4        29.1650  109.8470   73.7960 C.2   2002  UQ2002      0.2282
      5  C5        29.6690  111.2750   73.4360 C.2   2002  UQ2002      0.0198
      6  C6        29.2260  111.9220   72.2280 C.2   2002  UQ2002      0.0235
      7  CM5       30.6620  111.9200   74.4580 C.3   2002  UQ2002      0.0343
      8  CM3       28.5590  106.6530   72.8130 C.3   2002  UQ2002      0.2528
      9  CM2       27.4360  108.4220   69.6170 C.3   2002  UQ2002      0.2528
     10  C7        29.6620  113.3800   71.7290 C.3   2002  UQ2002      0.0548
     11  C8        30.0010  114.5170   72.7170 C.2   2002  UQ2002     -0.0298
     12  C9        30.5900  115.7150   72.4130 C.2   2002  UQ2002     -0.0478
     13  C10       30.9560  115.9890   70.9440 C.3   2002  UQ2002      0.0260
     14  C11       30.9240  116.8290   73.4360 C.3   2002  UQ2002      0.0217
     15  C12       31.8050  118.0280   72.9440 C.3   2002  UQ2002      0.0047
     16  O2        26.8390  109.0580   70.7780 O.2   2002  UQ2002     -0.4652
     17  O3        27.7360  107.7880   73.2200 O.2   2002  UQ2002     -0.4652
     18  O4        29.5450  109.2900   74.8400 O.2   2002  UQ2002     -0.2836
     19  O1        27.8340  111.7130   70.2110 O.2   2002  UQ2002     -0.2835
@<TRIPOS>BOND
     1     9    16    1
     2    19     1    2
     3    16     2    1
     4    13    12    1
     5     1     2    1
     6     1     6    1
     7     2     3    2
     8    10     6    1
     9    10    11    1
    10     6     5    2
    11    12    11    2
    12    12    14    1
    13     8    17    1
    14     3    17    1
    15     3     4    1
    16    15    14    1
    17     5     4    1
    18     5     7    1
    19     4    18    2
