@<TRIPOS>MOLECULE
3l70_JZV_C_1.pdb
 29 30 0 0 0
SMALL
GASTEIGER

@<TRIPOS>ATOM
      1  CAA        5.8250  135.2120   79.9790 C.ar  2001  JZV2001    -0.0002
      2  CAB        6.5740  136.0240   79.1320 C.ar  2001  JZV2001     0.0000
      3  CAC        7.9560  135.8830   79.0880 C.ar  2001  JZV2001     0.0016
      4  NAD       10.7360  135.3660   80.7740 N.2   2001  JZV2001    -0.0763
      5  OAE       10.1560  136.0320   81.8070 O.2   2001  JZV2001    -0.3729
      6  CAF       11.1700  136.5570   82.6670 C.3   2001  JZV2001     0.2885
      7  CAG        6.4570  134.2680   80.7800 C.ar  2001  JZV2001    -0.0005
      8  CAH        7.8400  134.1310   80.7420 C.ar  2001  JZV2001     0.0258
      9  CAI        8.5880  134.9380   79.8890 C.ar  2001  JZV2001     0.0269
     10  CAJ        9.9700  134.8090   79.8410 C.2   2001  JZV2001     0.1943
     11  CAK       10.6140  134.0630   78.6730 C.2   2001  JZV2001     0.3625
     12  OAL       11.9350  133.7400   78.7360 O.3   2001  JZV2001    -0.4402
     13  CAM       12.3570  133.0340   77.5660 C.3   2001  JZV2001     0.2560
     14  OAN        9.9400  133.7950   77.6800 O.2   2001  JZV2001    -0.2431
     15  FAO       10.9830  129.3850   85.3850 F     2001  JZV2001    -0.1659
     16  CAP        8.4120  133.1320   81.7490 C.3   2001  JZV2001     0.2651
     17  OAQ        8.5480  131.7410   81.4480 O.2   2001  JZV2001    -0.3727
     18  NAR        7.3880  131.0330   81.4760 N.2   2001  JZV2001    -0.0871
     19  CAS        7.1270  129.8050   81.9090 C.2   2001  JZV2001     0.0974
     20  CAT        7.9070  128.8050   82.4870 C.ar  2001  JZV2001     0.0167
     21  CAU        9.0960  129.1170   83.1340 C.ar  2001  JZV2001     0.0051
     22  CAV        9.8390  128.1170   83.7580 C.ar  2001  JZV2001     0.0715
     23  CAW       11.1660  128.4570   84.4490 C.3   2001  JZV2001     0.4186
     24  FAX       11.6970  127.3810   85.0250 F     2001  JZV2001    -0.1659
     25  CAY        5.6400  129.5180   81.6960 C.3   2001  JZV2001     0.0555
     26  CAZ        7.4590  127.4890   82.4600 C.ar  2001  JZV2001     0.0013
     27  CBA        8.1930  126.4840   83.0800 C.ar  2001  JZV2001    -0.0000
     28  CBB        9.3810  126.8040   83.7280 C.ar  2001  JZV2001     0.0039
     29  FBC       12.0190  128.9190   83.5390 F     2001  JZV2001    -0.1659
@<TRIPOS>BOND
     1    13    12    1
     2    14    11    2
     3    11    12    1
     4    11    10    1
     5     3     2   ar
     6     3     9   ar
     7     2     1   ar
     8    10     9    1
     9    10     4    2
    10     9     8   ar
    11     1     7   ar
    12     8     7   ar
    13     8    16    1
    14     4     5    1
    15    17    18    1
    16    17    16    1
    17    18    19    2
    18    25    19    1
    19     5     6    1
    20    19    20    1
    21    26    20   ar
    22    26    27   ar
    23    20    21   ar
    24    27    28   ar
    25    21    22   ar
    26    29    23    1
    27    28    22   ar
    28    22    23    1
    29    23    24    1
    30    23    15    1
