@<TRIPOS>MOLECULE
3l70_HEM_C_1.pdb
 43 50 0 0 0
SMALL
GASTEIGER

@<TRIPOS>ATOM
      1  CHA       20.6950  137.3140   77.5690 C.2   501  HEM501      0.0000
      2  CHB       19.8530  132.6360   77.3650 C.2   501  HEM501      0.0000
      3  CHC       24.3370  131.8550   78.8420 C.2   501  HEM501      0.0000
      4  CHD       25.0420  136.5050   79.3240 C.2   501  HEM501      0.0000
      5  C1A       20.0690  136.0850   77.3670 C.ar  501  HEM501      0.0000
      6  C2A       18.7300  135.9390   76.8860 C.ar  501  HEM501      0.0000
      7  C3A       18.4980  134.6270   76.8780 C.ar  501  HEM501      0.0000
      8  C4A       19.6930  133.9820   77.3160 C.ar  501  HEM501      0.0000
      9  CMA       17.2160  133.9090   76.4560 C.3   501  HEM501      0.0000
     10  CAA       17.8510  137.0780   76.4200 C.3   501  HEM501      0.0000
     11  CBA       18.2280  137.4020   74.9820 C.3   501  HEM501      0.0000
     12  CGA       17.4520  138.5830   74.4040 C.2   501  HEM501      0.0000
     13  O1A       17.9430  139.7360   74.4670 O.co2 501  HEM501      0.0000
     14  O2A       16.3340  138.3430   73.8920 O.co2 501  HEM501      0.0000
     15  C1B       21.0270  132.0050   77.6490 C.2   501  HEM501      0.0000
     16  C2B       21.1900  130.5460   77.7110 C.2   501  HEM501      0.0000
     17  C3B       22.5280  130.3650   78.0590 C.2   501  HEM501      0.0000
     18  C4B       23.0750  131.6670   78.3210 C.2   501  HEM501      0.0000
     19  CMB       20.1730  129.4600   77.3410 C.3   501  HEM501      0.0000
     20  CAB       23.2870  129.2150   78.0820 C.3   501  HEM501      0.0000
     21  CBB       22.9790  128.1320   79.0460 C.3   501  HEM501      0.0000
     22  C1C       24.9150  133.0400   79.1100 C.ar  501  HEM501      0.0000
     23  C2C       26.1880  133.1670   79.7700 C.ar  501  HEM501      0.0000
     24  C3C       26.3990  134.5300   79.8630 C.ar  501  HEM501      0.0000
     25  C4C       25.2260  135.1610   79.3160 C.ar  501  HEM501      0.0000
     26  CMC       27.1540  132.0340   80.1420 C.3   501  HEM501      0.0000
     27  CAC       27.5680  135.1950   80.2440 C.3   501  HEM501      0.0000
     28  CBC       28.3720  134.8140   81.4940 C.3   501  HEM501      0.0000
     29  C1D       23.9160  137.1180   78.8990 C.2   501  HEM501      0.0000
     30  C2D       23.7880  138.5510   78.8590 C.2   501  HEM501      0.0000
     31  C3D       22.5790  138.7750   78.3150 C.2   501  HEM501      0.0000
     32  C4D       21.9690  137.4880   78.0730 C.2   501  HEM501      0.0000
     33  CMD       24.7880  139.6160   79.3150 C.3   501  HEM501      0.0000
     34  CAD       22.0440  140.1740   78.0790 C.3   501  HEM501      0.0000
     35  CBD       22.1970  140.8180   76.7010 C.3   501  HEM501      0.0000
     36  CGD       21.0850  140.4320   75.7520 C.2   501  HEM501      0.0000
     37  O1D       19.9100  140.4790   76.1650 O.co2 501  HEM501      0.0000
     38  O2D       21.3750  140.0960   74.5880 O.co2 501  HEM501      0.0000
     39  NA        20.6820  134.8630   77.5870 N.ar  501  HEM501      0.0000
     40  NB        22.1880  132.6830   78.0120 N.2   501  HEM501      0.0000
     41  NC        24.3200  134.2500   78.8390 N.ar  501  HEM501      0.0000
     42  ND        22.8190  136.4570   78.4280 N.2   501  HEM501      0.0000
     43 FE         22.5390  134.5440   78.2000 Fe    501  HEM501      0.0000
@<TRIPOS>BOND
     1    14    12   ar
     2    12    13   ar
     3    12    11    1
     4    38    36   ar
     5    11    10    1
     6    36    37   ar
     7    36    35    1
     8    10     6    1
     9     9     7    1
    10    35    34    1
    11     7     6   ar
    12     7     8   ar
    13     6     5   ar
    14     8     2    2
    15     8    39   ar
    16    19    16    1
    17     2    15    1
    18     5     1    2
    19     5    39   ar
    20     1    32    1
    21    39    43    1
    22    15    16    1
    23    15    40    2
    24    16    17    2
    25    40    43    1
    26    40    18    1
    27    17    20    1
    28    17    18    1
    29    32    31    1
    30    32    42    2
    31    34    31    1
    32    20    21    1
    33    43    42    1
    34    43    41    1
    35    31    30    2
    36    18     3    2
    37    42    29    1
    38    41    22   ar
    39    41    25   ar
    40     3    22    1
    41    30    29    1
    42    30    33    1
    43    29     4    2
    44    22    23   ar
    45    25     4    1
    46    25    24   ar
    47    23    24   ar
    48    23    26    1
    49    24    27    1
    50    27    28    1
