@<TRIPOS>MOLECULE
3l71_HEC_D_1.pdb
 43 50 0 0 0
SMALL
GASTEIGER

@<TRIPOS>ATOM
      1 FE          4.1580  160.4150   65.9760 Fe    501  HEC501      0.0000
      2  CHA        2.8750  158.0530   68.0220 C.2   501  HEC501      0.0000
      3  CHB        5.3930  157.9990   64.0140 C.2   501  HEC501      0.0000
      4  CHC        5.3410  162.6930   63.8810 C.2   501  HEC501      0.0000
      5  CHD        3.0680  162.7320   68.0070 C.2   501  HEC501      0.0000
      6  NA         4.1500  158.4570   66.0490 N.ar  501  HEC501      0.0000
      7  C1A        3.5560  157.6030   66.9520 C.ar  501  HEC501      0.0000
      8  C2A        3.6200  156.1840   66.5160 C.ar  501  HEC501      0.0000
      9  C3A        4.4810  156.1860   65.4910 C.ar  501  HEC501      0.0000
     10  C4A        4.6850  157.5900   65.1250 C.ar  501  HEC501      0.0000
     11  CMA        5.1150  154.9410   64.9030 C.3   501  HEC501      0.0000
     12  CAA        2.7550  154.9720   66.7730 C.3   501  HEC501      0.0000
     13  CBA        2.5380  154.6760   68.2010 C.3   501  HEC501      0.0000
     14  CGA        1.9600  153.3040   68.4080 C.2   501  HEC501      0.0000
     15  O1A        1.6980  152.9600   69.5840 O.co2 501  HEC501      0.0000
     16  O2A        1.7770  152.5680   67.4080 O.co2 501  HEC501      0.0000
     17  NB         5.1750  160.3720   64.3110 N.2   501  HEC501      0.0000
     18  C1B        5.6570  159.2940   63.6460 C.2   501  HEC501      0.0000
     19  C2B        6.4070  159.6300   62.4860 C.2   501  HEC501      0.0000
     20  C3B        6.3370  160.9370   62.4040 C.2   501  HEC501      0.0000
     21  C4B        5.5920  161.3900   63.5470 C.2   501  HEC501      0.0000
     22  CMB        7.0820  158.7050   61.4940 C.3   501  HEC501      0.0000
     23  CAB        6.9370  161.9440   61.4480 C.3   501  HEC501      0.0000
     24  CBB        6.4060  161.6330   60.0540 C.3   501  HEC501      0.0000
     25  NC         4.1550  162.2850   65.9560 N.ar  501  HEC501      0.0000
     26  C1C        4.6490  163.1070   65.0040 C.ar  501  HEC501      0.0000
     27  C2C        4.5400  164.5220   65.3870 C.ar  501  HEC501      0.0000
     28  C3C        4.0520  164.4890   66.6340 C.ar  501  HEC501      0.0000
     29  C4C        3.7080  163.1150   66.8990 C.ar  501  HEC501      0.0000
     30  CMC        5.1430  165.7390   64.6970 C.3   501  HEC501      0.0000
     31  CAC        3.9440  165.5290   67.7380 C.3   501  HEC501      0.0000
     32  CBC        2.9910  166.6580   67.4090 C.3   501  HEC501      0.0000
     33  ND         3.1910  160.4080   67.6160 N.2   501  HEC501      0.0000
     34  C1D        2.8000  161.4780   68.3440 C.2   501  HEC501      0.0000
     35  C2D        1.9870  161.1320   69.5280 C.2   501  HEC501      0.0000
     36  C3D        1.8990  159.8040   69.5320 C.2   501  HEC501      0.0000
     37  C4D        2.6860  159.3580   68.3340 C.2   501  HEC501      0.0000
     38  CMD        1.3380  162.0260   70.5540 C.3   501  HEC501      0.0000
     39  CAD        1.1180  159.0130   70.5450 C.3   501  HEC501      0.0000
     40  CBD       -0.0800  158.2990   69.9380 C.3   501  HEC501      0.0000
     41  CGD       -0.8770  157.5060   70.9760 C.2   501  HEC501      0.0000
     42  O1D       -0.2560  156.6630   71.6780 O.co2 501  HEC501      0.0000
     43  O2D       -2.1150  157.7210   71.0820 O.co2 501  HEC501      0.0000
@<TRIPOS>BOND
     1    24    23    1
     2    23    20    1
     3    22    19    1
     4    20    19    2
     5    20    21    1
     6    19    18    1
     7    21     4    2
     8    21    17    1
     9    18     3    1
    10    18    17    2
    11     4    26    1
    12     3    10    2
    13    17     1    1
    14    30    27    1
    15    11     9    1
    16    26    27   ar
    17    26    25   ar
    18    10     9   ar
    19    10     6   ar
    20    27    28   ar
    21     9     8   ar
    22    25     1    1
    23    25    29   ar
    24     1     6    1
    25     1    33    1
    26     6     7   ar
    27     8    12    1
    28     8     7   ar
    29    28    29   ar
    30    28    31    1
    31    12    13    1
    32    29     5    1
    33     7     2    2
    34    16    14   ar
    35    32    31    1
    36    33    37    2
    37    33    34    1
    38     5    34    2
    39     2    37    1
    40    13    14    1
    41    37    36    1
    42    34    35    1
    43    14    15   ar
    44    35    36    2
    45    35    38    1
    46    36    39    1
    47    40    39    1
    48    40    41    1
    49    41    43   ar
    50    41    42   ar
