@<TRIPOS>MOLECULE
3l71_HEM_C_1.pdb
 43 50 0 0 0
SMALL
GASTEIGER

@<TRIPOS>ATOM
      1  CHA       20.7480  136.8140   77.6140 C.2   501  HEM501      0.0000
      2  CHB       19.9340  132.1320   77.3620 C.2   501  HEM501      0.0000
      3  CHC       24.4220  131.4050   78.8680 C.2   501  HEM501      0.0000
      4  CHD       25.1250  136.0820   79.4630 C.2   501  HEM501      0.0000
      5  C1A       20.1370  135.5740   77.4010 C.ar  501  HEM501      0.0000
      6  C2A       18.8290  135.3870   76.8840 C.ar  501  HEM501      0.0000
      7  C3A       18.5970  134.0850   76.8750 C.ar  501  HEM501      0.0000
      8  C4A       19.7750  133.4820   77.3000 C.ar  501  HEM501      0.0000
      9  CMA       17.2920  133.3250   76.5460 C.3   501  HEM501      0.0000
     10  CAA       17.9490  136.5210   76.4280 C.3   501  HEM501      0.0000
     11  CBA       18.0870  136.6960   74.9310 C.3   501  HEM501      0.0000
     12  CGA       17.4740  137.9950   74.4340 C.2   501  HEM501      0.0000
     13  O1A       18.1100  139.0690   74.5860 O.co2 501  HEM501      0.0000
     14  O2A       16.3420  137.9340   73.9020 O.co2 501  HEM501      0.0000
     15  C1B       21.1220  131.5220   77.6590 C.2   501  HEM501      0.0000
     16  C2B       21.2450  130.0830   77.7480 C.2   501  HEM501      0.0000
     17  C3B       22.5760  129.8900   78.1190 C.2   501  HEM501      0.0000
     18  C4B       23.1600  131.2060   78.3530 C.2   501  HEM501      0.0000
     19  CMB       20.1230  129.0510   77.4840 C.3   501  HEM501      0.0000
     20  CAB       23.3120  128.7180   78.1780 C.3   501  HEM501      0.0000
     21  CBB       22.8630  127.5140   78.9540 C.3   501  HEM501      0.0000
     22  C1C       25.0080  132.6010   79.1590 C.ar  501  HEM501      0.0000
     23  C2C       26.2590  132.7420   79.8580 C.ar  501  HEM501      0.0000
     24  C3C       26.4960  134.1020   79.9140 C.ar  501  HEM501      0.0000
     25  C4C       25.3180  134.7330   79.4390 C.ar  501  HEM501      0.0000
     26  CMC       27.1770  131.5940   80.3230 C.3   501  HEM501      0.0000
     27  CAC       27.6910  134.7540   80.2180 C.3   501  HEM501      0.0000
     28  CBC       28.3390  134.5460   81.5600 C.3   501  HEM501      0.0000
     29  C1D       24.0160  136.6740   78.9450 C.2   501  HEM501      0.0000
     30  C2D       23.8670  138.1010   78.8580 C.2   501  HEM501      0.0000
     31  C3D       22.6060  138.3040   78.3980 C.2   501  HEM501      0.0000
     32  C4D       22.0280  137.0040   78.0830 C.2   501  HEM501      0.0000
     33  CMD       24.8980  139.1750   79.1550 C.3   501  HEM501      0.0000
     34  CAD       21.9860  139.6680   78.2780 C.3   501  HEM501      0.0000
     35  CBD       22.2360  140.3640   76.9480 C.3   501  HEM501      0.0000
     36  CGD       21.2190  139.9770   75.9180 C.2   501  HEM501      0.0000
     37  O1D       20.0130  140.1050   76.2060 O.co2 501  HEM501      0.0000
     38  O2D       21.6060  139.5490   74.8170 O.co2 501  HEM501      0.0000
     39  NA        20.7620  134.3840   77.5900 N.ar  501  HEM501      0.0000
     40  NB        22.3060  132.2110   78.0160 N.2   501  HEM501      0.0000
     41  NC        24.4070  133.8080   78.9280 N.ar  501  HEM501      0.0000
     42  ND        22.9160  135.9820   78.4020 N.2   501  HEM501      0.0000
     43 FE         22.6430  134.0920   78.2040 Fe    501  HEM501      0.0000
@<TRIPOS>BOND
     1    14    12   ar
     2    12    13   ar
     3    12    11    1
     4    38    36   ar
     5    11    10    1
     6    36    37   ar
     7    36    35    1
     8    10     6    1
     9     9     7    1
    10     7     6   ar
    11     7     8   ar
    12     6     5   ar
    13    35    34    1
    14     8     2    2
    15     8    39   ar
    16     2    15    1
    17     5    39   ar
    18     5     1    2
    19    19    16    1
    20    39    43    1
    21     1    32    1
    22    15    16    1
    23    15    40    2
    24    16    17    2
    25    40    43    1
    26    40    18    1
    27    32    31    1
    28    32    42    2
    29    17    20    1
    30    17    18    1
    31    20    21    1
    32    43    42    1
    33    43    41    1
    34    34    31    1
    35    18     3    2
    36    31    30    2
    37    42    29    1
    38    30    29    1
    39    30    33    1
    40     3    22    1
    41    41    22   ar
    42    41    25   ar
    43    29     4    2
    44    22    23   ar
    45    25     4    1
    46    25    24   ar
    47    23    24   ar
    48    23    26    1
    49    24    27    1
    50    27    28    1
