@<TRIPOS>MOLECULE
3l71_UQ_C_1.pdb
 19 19 0 0 0
SMALL
GASTEIGER

@<TRIPOS>ATOM
      1  C1        28.3100  110.7480   71.2870 C.2   2002  UQ2002      0.2285
      2  C2        27.8520  109.2850   71.6340 C.2   2002  UQ2002      0.2140
      3  C3        28.2870  108.6500   72.8140 C.2   2002  UQ2002      0.2140
      4  C4        29.2410  109.3950   73.7950 C.2   2002  UQ2002      0.2282
      5  C5        29.7130  110.8470   73.4660 C.2   2002  UQ2002      0.0198
      6  C6        29.2710  111.5060   72.2670 C.2   2002  UQ2002      0.0235
      7  CM5       30.6720  111.5000   74.5090 C.3   2002  UQ2002      0.0343
      8  CM3       28.7060  106.1990   72.7170 C.3   2002  UQ2002      0.2528
      9  CM2       27.5900  108.1110   69.5000 C.3   2002  UQ2002      0.2528
     10  C7        29.6730  112.9810   71.7950 C.3   2002  UQ2002      0.0548
     11  C8        30.0070  114.1160   72.7840 C.2   2002  UQ2002     -0.0298
     12  C9        30.6150  115.3050   72.4720 C.2   2002  UQ2002     -0.0478
     13  C10       31.0080  115.5550   71.0050 C.3   2002  UQ2002      0.0260
     14  C11       30.9470  116.4320   73.4820 C.3   2002  UQ2002      0.0217
     15  C12       31.6840  117.7080   72.9410 C.3   2002  UQ2002      0.0047
     16  O2        26.9780  108.6150   70.7220 O.2   2002  UQ2002     -0.4652
     17  O3        27.8660  107.3130   73.1450 O.2   2002  UQ2002     -0.4652
     18  O4        29.6250  108.8250   74.8400 O.2   2002  UQ2002     -0.2836
     19  O1        27.9060  111.3040   70.2190 O.2   2002  UQ2002     -0.2835
@<TRIPOS>BOND
     1     9    16    1
     2    19     1    2
     3    16     2    1
     4    13    12    1
     5     1     2    1
     6     1     6    1
     7     2     3    2
     8    10     6    1
     9    10    11    1
    10     6     5    2
    11    12    11    2
    12    12    14    1
    13     8    17    1
    14     3    17    1
    15     3     4    1
    16    15    14    1
    17     5     4    1
    18     5     7    1
    19     4    18    2
