@<TRIPOS>MOLECULE
3l71_AZO_C_1.pdb
 30 32 0 0 0
SMALL
GASTEIGER

@<TRIPOS>ATOM
      1  N1         7.5650  127.9630   86.7160 N.1   2001  AZO2001    -0.1907
      2  C1         7.7020  127.2240   85.8530 C.1   2001  AZO2001     0.1035
      3  C2         7.8380  126.3310   84.7420 C.ar  2001  AZO2001     0.1029
      4  C3         7.5440  124.9500   84.8960 C.ar  2001  AZO2001     0.0134
      5  C4         7.6880  124.0740   83.7590 C.ar  2001  AZO2001     0.0009
      6  C5         8.1220  124.5530   82.4730 C.ar  2001  AZO2001     0.0032
      7  C6         8.4290  125.9300   82.2800 C.ar  2001  AZO2001     0.0382
      8  C7         8.2980  126.8490   83.3910 C.ar  2001  AZO2001     0.1563
      9  O1         8.5900  128.1910   83.2650 O.3   2001  AZO2001    -0.4390
     10  C8         7.9680  129.0500   82.4110 C.2   2001  AZO2001     0.2125
     11  C9         8.3990  130.3790   82.4120 C.3   2001  AZO2001     0.1696
     12  C10        7.7520  131.2590   81.5380 C.2   2001  AZO2001     0.2125
     13  N3         6.7410  130.7970   80.7270 N.2   2001  AZO2001    -0.2138
     14  C11        6.3390  129.4980   80.7400 C.3   2001  AZO2001     0.2556
     15  N2         6.9550  128.6430   81.5790 N.2   2001  AZO2001    -0.2138
     16  O2         8.1590  132.5750   81.5370 O.3   2001  AZO2001    -0.4400
     17  C12        7.6130  133.5730   80.7620 C.ar  2001  AZO2001     0.1434
     18  C13        6.1900  133.8480   80.7760 C.ar  2001  AZO2001     0.0372
     19  C14        5.6540  134.8830   79.9810 C.ar  2001  AZO2001     0.0031
     20  C15        6.5080  135.6730   79.1570 C.ar  2001  AZO2001    -0.0001
     21  C16        7.9210  135.4410   79.1070 C.ar  2001  AZO2001    -0.0006
     22  C17        8.5080  134.4040   79.8900 C.ar  2001  AZO2001     0.0251
     23  C18        9.9970  134.1540   79.8370 C.3   2001  AZO2001     0.1536
     24  C19       10.5290  133.3900   78.8930 C.2   2001  AZO2001     0.3233
     25  O3         9.8160  132.8650   78.0260 O.2   2001  AZO2001    -0.2497
     26  O4        11.9720  133.1660   78.8740 O.3   2001  AZO2001    -0.4441
     27  C20       12.5590  132.3460   77.8630 C.3   2001  AZO2001     0.2556
     28  C21       10.9160  134.7720   80.8510 C.3   2001  AZO2001     0.1578
     29  O5        10.2630  135.5560   81.7840 O.3   2001  AZO2001    -0.3502
     30  C22       11.2200  136.0990   82.6480 C.3   2001  AZO2001     0.1741
@<TRIPOS>BOND
     1    27    26    1
     2    25    24    2
     3    26    24    1
     4    24    23    1
     5    21    20   ar
     6    21    22   ar
     7    20    19   ar
     8    23    22    1
     9    23    28    1
    10    22    17   ar
    11    19    18   ar
    12    13    14    1
    13    13    12    2
    14    14    15    1
    15    17    18   ar
    16    17    16    1
    17    28    29    1
    18    16    12    1
    19    12    11    1
    20    15    10    2
    21    29    30    1
    22     7     6   ar
    23     7     8   ar
    24    10    11    1
    25    10     9    1
    26     6     5   ar
    27     9     8    1
    28     8     3   ar
    29     5     4   ar
    30     3     4   ar
    31     3     2    1
    32     2     1    3
