@<TRIPOS>MOLECULE
3l72_IKR_C_1.pdb
 25 26 0 0 0
SMALL
GASTEIGER

@<TRIPOS>ATOM
      1  C1         8.9920  127.6970   82.5110 C.ar  2001  IKR2001     0.0260
      2  C2         9.8400  128.8100   82.7510 C.ar  2001  IKR2001    -0.0135
      3  C3         9.3860  130.1000   82.4280 C.ar  2001  IKR2001     0.0328
      4  C4         8.0820  130.2660   81.8520 C.ar  2001  IKR2001     0.1347
      5  C5         7.2380  129.1350   81.6060 C.ar  2001  IKR2001     0.0125
      6  C6         7.7110  127.8620   81.9420 C.ar  2001  IKR2001     0.0042
      7  C11        5.8780  129.2540   81.0090 C.3   2001  IKR2001     0.0342
      8  O15        7.6340  131.5300   81.5440 O.3   2001  IKR2001    -0.4710
      9  C16        8.6260  132.5440   81.4350 C.3   2001  IKR2001     0.2320
     10  C17        8.0500  133.6900   80.6610 C.ar  2001  IKR2001     0.0229
     11  C20        8.8760  134.5600   79.8830 C.ar  2001  IKR2001     0.0268
     12  C21        8.3090  135.6620   79.1460 C.ar  2001  IKR2001     0.0016
     13  C22        6.9060  135.8970   79.1840 C.ar  2001  IKR2001     0.0000
     14  C23        6.0890  135.0300   79.9540 C.ar  2001  IKR2001    -0.0002
     15  C24        6.6300  133.9440   80.6860 C.ar  2001  IKR2001    -0.0006
     16  C29       10.3480  134.3830   79.7940 C.2   2001  IKR2001     0.1943
     17  C30       10.8740  133.5570   78.6350 C.2   2001  IKR2001     0.3625
     18  O31       12.2000  133.3420   78.8070 O.3   2001  IKR2001    -0.4402
     19  C32       12.8320  132.5680   77.7670 C.3   2001  IKR2001     0.2560
     20  O36       10.1540  133.1770   77.7150 O.2   2001  IKR2001    -0.2431
     21  N37       11.2220  134.8750   80.6110 N.2   2001  IKR2001    -0.0763
     22  O38       10.6220  135.6220   81.6420 O.2   2001  IKR2001    -0.3729
     23  C39       11.6320  136.1450   82.4840 C.3   2001  IKR2001     0.2885
     24  C40       11.2880  128.7760   83.3690 C.3   2001  IKR2001     0.0316
     25  I1         9.6530  125.8290   82.9990 I     2001  IKR2001    -0.0429
@<TRIPOS>BOND
     1    20    17    2
     2    19    18    1
     3    17    18    1
     4    17    16    1
     5    12    13   ar
     6    12    11   ar
     7    13    14   ar
     8    16    11    1
     9    16    21    2
    10    11    10   ar
    11    14    15   ar
    12    21    22    1
    13    10    15   ar
    14    10     9    1
    15     7     5    1
    16     9     8    1
    17     8     4    1
    18     5     4   ar
    19     5     6   ar
    20    22    23    1
    21     4     3   ar
    22     6     1   ar
    23     3     2   ar
    24     1     2   ar
    25     1    25    1
    26     2    24    1
