@<TRIPOS>MOLECULE
3l72_HEM_C_1.pdb
 43 50 0 0 0
SMALL
GASTEIGER

@<TRIPOS>ATOM
      1  CHA       20.9950  136.8970   77.5500 C.2   501  HEM501      0.0000
      2  CHB       20.2010  132.1910   77.3230 C.2   501  HEM501      0.0000
      3  CHC       24.7320  131.4810   78.6450 C.2   501  HEM501      0.0000
      4  CHD       25.3500  136.1450   79.2790 C.2   501  HEM501      0.0000
      5  C1A       20.3920  135.6850   77.3750 C.ar  501  HEM501      0.0000
      6  C2A       19.0080  135.5290   76.9930 C.ar  501  HEM501      0.0000
      7  C3A       18.7800  134.2080   76.9450 C.ar  501  HEM501      0.0000
      8  C4A       20.0200  133.5660   77.2930 C.ar  501  HEM501      0.0000
      9  CMA       17.4970  133.4800   76.5700 C.3   501  HEM501      0.0000
     10  CAA       18.0870  136.6380   76.5680 C.3   501  HEM501      0.0000
     11  CBA       18.5220  136.8970   75.1320 C.3   501  HEM501      0.0000
     12  CGA       17.6210  137.8760   74.4100 C.2   501  HEM501      0.0000
     13  O1A       17.9030  139.1030   74.4520 O.co2 501  HEM501      0.0000
     14  O2A       16.6200  137.3970   73.8130 O.co2 501  HEM501      0.0000
     15  C1B       21.3940  131.5720   77.6230 C.2   501  HEM501      0.0000
     16  C2B       21.5540  130.1320   77.7350 C.2   501  HEM501      0.0000
     17  C3B       22.8620  129.9590   78.0730 C.2   501  HEM501      0.0000
     18  C4B       23.4490  131.2790   78.2260 C.2   501  HEM501      0.0000
     19  CMB       20.5070  129.0700   77.4990 C.3   501  HEM501      0.0000
     20  CAB       23.5760  128.7830   78.2020 C.3   501  HEM501      0.0000
     21  CBB       23.1690  127.7130   79.1260 C.3   501  HEM501      0.0000
     22  C1C       25.3020  132.6760   78.9470 C.ar  501  HEM501      0.0000
     23  C2C       26.6030  132.8260   79.6140 C.ar  501  HEM501      0.0000
     24  C3C       26.7920  134.1850   79.7120 C.ar  501  HEM501      0.0000
     25  C4C       25.5590  134.8000   79.2620 C.ar  501  HEM501      0.0000
     26  CMC       27.5470  131.6990   80.1010 C.3   501  HEM501      0.0000
     27  CAC       27.9690  134.8660   80.0350 C.3   501  HEM501      0.0000
     28  CBC       28.7500  134.5680   81.3040 C.3   501  HEM501      0.0000
     29  C1D       24.2090  136.7580   78.8390 C.2   501  HEM501      0.0000
     30  C2D       24.0630  138.2160   78.7330 C.2   501  HEM501      0.0000
     31  C3D       22.8130  138.4190   78.2560 C.2   501  HEM501      0.0000
     32  C4D       22.2340  137.0980   78.0200 C.2   501  HEM501      0.0000
     33  CMD       25.1240  139.2830   78.9640 C.3   501  HEM501      0.0000
     34  CAD       22.2330  139.7960   78.0330 C.3   501  HEM501      0.0000
     35  CBD       22.3180  140.2800   76.5960 C.3   501  HEM501      0.0000
     36  CGD       21.0870  139.9230   75.8020 C.2   501  HEM501      0.0000
     37  O1D       19.9770  140.2080   76.3090 O.co2 501  HEM501      0.0000
     38  O2D       21.2200  139.3700   74.6810 O.co2 501  HEM501      0.0000
     39  NA        21.0110  134.4880   77.5820 N.ar  501  HEM501      0.0000
     40  NB        22.5550  132.2660   77.9770 N.2   501  HEM501      0.0000
     41  NC        24.6540  133.8720   78.7740 N.ar  501  HEM501      0.0000
     42  ND        23.0900  136.0760   78.3520 N.2   501  HEM501      0.0000
     43 FE         22.8420  134.1600   78.1430 Fe    501  HEM501      0.0000
@<TRIPOS>BOND
     1    14    12   ar
     2    12    13   ar
     3    12    11    1
     4    38    36   ar
     5    11    10    1
     6    36    37   ar
     7    36    35    1
     8    10     6    1
     9     9     7    1
    10    35    34    1
    11     7     6   ar
    12     7     8   ar
    13     6     5   ar
    14     8     2    2
    15     8    39   ar
    16     2    15    1
    17     5     1    2
    18     5    39   ar
    19    19    16    1
    20     1    32    1
    21    39    43    1
    22    15    16    1
    23    15    40    2
    24    16    17    2
    25    40    43    1
    26    40    18    1
    27    32    31    1
    28    32    42    2
    29    34    31    1
    30    17    20    1
    31    17    18    1
    32    43    42    1
    33    43    41    1
    34    20    21    1
    35    18     3    2
    36    31    30    2
    37    42    29    1
    38     3    22    1
    39    30    29    1
    40    30    33    1
    41    41    22   ar
    42    41    25   ar
    43    29     4    2
    44    22    23   ar
    45    25     4    1
    46    25    24   ar
    47    23    24   ar
    48    23    26    1
    49    24    27    1
    50    27    28    1
