@<TRIPOS>MOLECULE
3l72_UQ_C_1.pdb
 19 19 0 0 0
SMALL
GASTEIGER

@<TRIPOS>ATOM
      1  C1        28.4980  111.0350   71.3310 C.2   2002  UQ2002      0.2285
      2  C2        28.1490  109.5550   71.7090 C.2   2002  UQ2002      0.2140
      3  C3        28.6730  108.9650   72.8820 C.2   2002  UQ2002      0.2140
      4  C4        29.6360  109.7960   73.8030 C.2   2002  UQ2002      0.2282
      5  C5        29.9940  111.2650   73.4360 C.2   2002  UQ2002      0.0198
      6  C6        29.4630  111.8680   72.2530 C.2   2002  UQ2002      0.0235
      7  CM5       30.9610  111.9810   74.4180 C.3   2002  UQ2002      0.0343
      8  CM3       29.2000  106.5190   72.7240 C.3   2002  UQ2002      0.2528
      9  CM2       27.8720  108.2890   69.6300 C.3   2002  UQ2002      0.2528
     10  C7        29.7430  113.3520   71.7430 C.3   2002  UQ2002      0.0548
     11  C8        30.2630  114.4870   72.6470 C.2   2002  UQ2002     -0.0298
     12  C9        31.0460  115.5390   72.2470 C.2   2002  UQ2002     -0.0478
     13  C10       31.4590  115.6130   70.7690 C.3   2002  UQ2002      0.0260
     14  C11       31.5620  116.6800   73.1550 C.3   2002  UQ2002      0.0217
     15  C12       31.7290  118.0960   72.5000 C.3   2002  UQ2002      0.0047
     16  O2        27.2700  108.8230   70.8440 O.2   2002  UQ2002     -0.4652
     17  O3        28.3530  107.5920   73.2480 O.2   2002  UQ2002     -0.4652
     18  O4        30.1060  109.2870   74.8360 O.2   2002  UQ2002     -0.2836
     19  O1        28.0140  111.5380   70.2770 O.2   2002  UQ2002     -0.2835
@<TRIPOS>BOND
     1     9    16    1
     2    19     1    2
     3    13    12    1
     4    16     2    1
     5     1     2    1
     6     1     6    1
     7     2     3    2
     8    10     6    1
     9    10    11    1
    10    12    11    2
    11    12    14    1
    12     6     5    2
    13    15    14    1
    14     8    17    1
    15     3    17    1
    16     3     4    1
    17     5     4    1
    18     5     7    1
    19     4    18    2
