@<TRIPOS>MOLECULE
3l72_HEC_D_1.pdb
 43 50 0 0 0
SMALL
GASTEIGER

@<TRIPOS>ATOM
      1 FE          4.1410  160.5170   65.9840 Fe    501  HEC501      0.0000
      2  CHA        2.8570  158.1050   67.9660 C.2   501  HEC501      0.0000
      3  CHB        5.3000  158.1480   63.8980 C.2   501  HEC501      0.0000
      4  CHC        5.4150  162.8760   63.8740 C.2   501  HEC501      0.0000
      5  CHD        2.9940  162.8020   67.9900 C.2   501  HEC501      0.0000
      6  NA         4.1570  158.5720   66.0010 N.ar  501  HEC501      0.0000
      7  C1A        3.5650  157.6850   66.9000 C.ar  501  HEC501      0.0000
      8  C2A        3.7330  156.2690   66.4980 C.ar  501  HEC501      0.0000
      9  C3A        4.5240  156.3190   65.4080 C.ar  501  HEC501      0.0000
     10  C4A        4.7050  157.7360   65.0540 C.ar  501  HEC501      0.0000
     11  CMA        5.0100  155.0930   64.6310 C.3   501  HEC501      0.0000
     12  CAA        3.0100  154.9910   66.8550 C.3   501  HEC501      0.0000
     13  CBA        2.6490  154.7590   68.2890 C.3   501  HEC501      0.0000
     14  CGA        1.9660  153.4190   68.4990 C.2   501  HEC501      0.0000
     15  O1A        1.6010  153.1380   69.6640 O.co2 501  HEC501      0.0000
     16  O2A        1.7980  152.6520   67.5170 O.co2 501  HEC501      0.0000
     17  NB         5.1160  160.5030   64.2420 N.2   501  HEC501      0.0000
     18  C1B        5.5090  159.4310   63.5220 C.2   501  HEC501      0.0000
     19  C2B        6.3310  159.7800   62.3940 C.2   501  HEC501      0.0000
     20  C3B        6.4010  161.0780   62.3640 C.2   501  HEC501      0.0000
     21  C4B        5.6270  161.5530   63.5120 C.2   501  HEC501      0.0000
     22  CMB        7.0340  158.8800   61.3830 C.3   501  HEC501      0.0000
     23  CAB        7.1070  162.0130   61.3770 C.3   501  HEC501      0.0000
     24  CBB        6.8140  161.7120   59.9090 C.3   501  HEC501      0.0000
     25  NC         4.0970  162.4270   65.9070 N.ar  501  HEC501      0.0000
     26  C1C        4.6840  163.2940   64.9860 C.ar  501  HEC501      0.0000
     27  C2C        4.6570  164.6800   65.5000 C.ar  501  HEC501      0.0000
     28  C3C        4.0360  164.6130   66.6670 C.ar  501  HEC501      0.0000
     29  C4C        3.6120  163.2390   66.8670 C.ar  501  HEC501      0.0000
     30  CMC        5.3420  165.9660   65.0500 C.3   501  HEC501      0.0000
     31  CAC        3.8280  165.6400   67.7540 C.3   501  HEC501      0.0000
     32  CBC        2.7520  166.5520   67.1860 C.3   501  HEC501      0.0000
     33  ND         3.1730  160.4810   67.6240 N.2   501  HEC501      0.0000
     34  C1D        2.7750  161.5290   68.3450 C.2   501  HEC501      0.0000
     35  C2D        1.9540  161.1360   69.4660 C.2   501  HEC501      0.0000
     36  C3D        1.8640  159.8120   69.4650 C.2   501  HEC501      0.0000
     37  C4D        2.6600  159.4070   68.3080 C.2   501  HEC501      0.0000
     38  CMD        1.2550  162.0260   70.4830 C.3   501  HEC501      0.0000
     39  CAD        1.0770  158.9800   70.4970 C.3   501  HEC501      0.0000
     40  CBD       -0.2650  158.4150   70.0290 C.3   501  HEC501      0.0000
     41  CGD       -0.9320  157.5640   71.0870 C.2   501  HEC501      0.0000
     42  O1D       -0.2360  156.6910   71.6530 O.co2 501  HEC501      0.0000
     43  O2D       -2.1420  157.7590   71.3490 O.co2 501  HEC501      0.0000
@<TRIPOS>BOND
     1    24    23    1
     2    23    20    1
     3    22    19    1
     4    20    19    2
     5    20    21    1
     6    19    18    1
     7    21     4    2
     8    21    17    1
     9    18     3    1
    10    18    17    2
    11     4    26    1
    12     3    10    2
    13    17     1    1
    14    11     9    1
    15    26    27   ar
    16    26    25   ar
    17    30    27    1
    18    10     9   ar
    19    10     6   ar
    20     9     8   ar
    21    27    28   ar
    22    25     1    1
    23    25    29   ar
    24     1     6    1
    25     1    33    1
    26     6     7   ar
    27     8    12    1
    28     8     7   ar
    29    28    29   ar
    30    28    31    1
    31    12    13    1
    32    29     5    1
    33     7     2    2
    34    32    31    1
    35    16    14   ar
    36    33    37    2
    37    33    34    1
    38     2    37    1
    39     5    34    2
    40    13    14    1
    41    37    36    1
    42    34    35    1
    43    14    15   ar
    44    36    35    2
    45    36    39    1
    46    35    38    1
    47    40    39    1
    48    40    41    1
    49    41    43   ar
    50    41    42   ar
