@<TRIPOS>MOLECULE
3l73_HEM_C_1.pdb
 43 50 0 0 0
SMALL
GASTEIGER

@<TRIPOS>ATOM
      1  CHA       20.8940  138.1180   77.7510 C.2   501  HEM501      0.0000
      2  CHB       20.1090  133.4390   77.3680 C.2   501  HEM501      0.0000
      3  CHC       24.5300  132.6600   78.9340 C.2   501  HEM501      0.0000
      4  CHD       25.2910  137.2750   79.4800 C.2   501  HEM501      0.0000
      5  C1A       20.3220  136.9170   77.4360 C.ar  501  HEM501      0.0000
      6  C2A       18.9890  136.7480   76.9830 C.ar  501  HEM501      0.0000
      7  C3A       18.7410  135.4410   77.0400 C.ar  501  HEM501      0.0000
      8  C4A       19.9730  134.8170   77.3280 C.ar  501  HEM501      0.0000
      9  CMA       17.4540  134.6370   76.7960 C.3   501  HEM501      0.0000
     10  CAA       18.0850  137.8080   76.3910 C.3   501  HEM501      0.0000
     11  CBA       18.6480  138.3100   75.0510 C.3   501  HEM501      0.0000
     12  CGA       17.7800  139.3820   74.4000 C.2   501  HEM501      0.0000
     13  O1A       18.1240  140.6000   74.4800 O.co2 501  HEM501      0.0000
     14  O2A       16.7420  138.9820   73.8220 O.co2 501  HEM501      0.0000
     15  C1B       21.2440  132.8060   77.7140 C.2   501  HEM501      0.0000
     16  C2B       21.3700  131.3400   77.8010 C.2   501  HEM501      0.0000
     17  C3B       22.6780  131.1310   78.2200 C.2   501  HEM501      0.0000
     18  C4B       23.2710  132.4710   78.4510 C.2   501  HEM501      0.0000
     19  CMB       20.3230  130.3070   77.4950 C.3   501  HEM501      0.0000
     20  CAB       23.4040  129.9570   78.3820 C.3   501  HEM501      0.0000
     21  CBB       22.8040  128.7150   78.9710 C.3   501  HEM501      0.0000
     22  C1C       25.1120  133.8330   79.1890 C.ar  501  HEM501      0.0000
     23  C2C       26.4110  133.9520   79.7950 C.ar  501  HEM501      0.0000
     24  C3C       26.6780  135.2980   79.8950 C.ar  501  HEM501      0.0000
     25  C4C       25.4630  135.9400   79.4620 C.ar  501  HEM501      0.0000
     26  CMC       27.3160  132.7850   80.2690 C.3   501  HEM501      0.0000
     27  CAC       27.8900  135.8960   80.2910 C.3   501  HEM501      0.0000
     28  CBC       28.5220  135.4460   81.6480 C.3   501  HEM501      0.0000
     29  C1D       24.1720  137.8940   79.0110 C.2   501  HEM501      0.0000
     30  C2D       24.0420  139.3490   78.9240 C.2   501  HEM501      0.0000
     31  C3D       22.7700  139.5830   78.5150 C.2   501  HEM501      0.0000
     32  C4D       22.1560  138.2760   78.2700 C.2   501  HEM501      0.0000
     33  CMD       25.1000  140.4140   79.1160 C.3   501  HEM501      0.0000
     34  CAD       22.2400  140.9690   78.2590 C.3   501  HEM501      0.0000
     35  CBD       22.5230  141.5130   76.8650 C.3   501  HEM501      0.0000
     36  CGD       21.3790  141.2570   75.9100 C.2   501  HEM501      0.0000
     37  O1D       20.2250  141.5860   76.2680 O.co2 501  HEM501      0.0000
     38  O2D       21.6180  140.7390   74.8000 O.co2 501  HEM501      0.0000
     39  NA        20.9560  135.7270   77.6060 N.ar  501  HEM501      0.0000
     40  NB        22.4020  133.4870   78.1300 N.2   501  HEM501      0.0000
     41  NC        24.5280  135.0320   78.9780 N.ar  501  HEM501      0.0000
     42  ND        23.0440  137.2370   78.5330 N.2   501  HEM501      0.0000
     43 FE         22.7620  135.3620   78.2780 Fe    501  HEM501      0.0000
@<TRIPOS>BOND
     1    14    12   ar
     2    12    13   ar
     3    12    11    1
     4    38    36   ar
     5    11    10    1
     6    36    37   ar
     7    36    35    1
     8    10     6    1
     9     9     7    1
    10    35    34    1
    11     6     7   ar
    12     6     5   ar
    13     7     8   ar
    14     8     2    2
    15     8    39   ar
    16     2    15    1
    17     5    39   ar
    18     5     1    2
    19    19    16    1
    20    39    43    1
    21    15    16    1
    22    15    40    2
    23     1    32    1
    24    16    17    2
    25    40    43    1
    26    40    18    1
    27    17    20    1
    28    17    18    1
    29    34    31    1
    30    32    31    1
    31    32    42    2
    32    43    42    1
    33    43    41    1
    34    20    21    1
    35    18     3    2
    36    31    30    2
    37    42    29    1
    38    30    29    1
    39    30    33    1
    40     3    22    1
    41    41    22   ar
    42    41    25   ar
    43    29     4    2
    44    22    23   ar
    45    25     4    1
    46    25    24   ar
    47    23    24   ar
    48    23    26    1
    49    24    27    1
    50    27    28    1
