@<TRIPOS>MOLECULE
3l73_JZZ_C_1.pdb
 25 27 0 0 0
SMALL
GASTEIGER

@<TRIPOS>ATOM
      1  N2         9.6490  135.5640   79.7280 N.ar  2001  JZZ2001    -0.2124
      2  C3        10.5800  135.9120   80.6040 C.ar  2001  JZZ2001     0.3250
      3  O3        10.3650  136.6660   81.7170 O.3   2001  JZZ2001    -0.4425
      4  N4        11.7390  135.3730   80.2360 N.ar  2001  JZZ2001    -0.1106
      5  N5        11.5400  134.7250   79.1980 N.ar  2001  JZZ2001    -0.1957
      6  C6        10.2660  134.8050   78.8370 C.ar  2001  JZZ2001     0.3546
      7  O6         9.7430  134.2480   77.8690 O.2   2001  JZZ2001    -0.2443
      8  C7        12.5780  133.9660   78.4670 C.3   2001  JZZ2001     0.1588
      9  C27       11.5560  137.3830   82.0490 C.3   2001  JZZ2001     0.2559
     10  CAA        9.9100  129.7580   83.5240 C.3   2001  JZZ2001     0.0130
     11  CAB        5.6280  133.1430   81.2740 C.ar  2001  JZZ2001     0.0082
     12  CAC        5.1710  134.3170   80.6910 C.ar  2001  JZZ2001     0.0007
     13  CAD        6.0790  135.2460   80.1890 C.ar  2001  JZZ2001     0.0014
     14  CAE        5.6320  136.4090   79.5820 C.ar  2001  JZZ2001     0.0001
     15  CAF        6.5440  137.3220   79.0600 C.ar  2001  JZZ2001     0.0015
     16  CAG        8.5840  128.3640   81.9190 C.3   2001  JZZ2001     0.0130
     17  CAH        8.5070  129.4360   83.0060 C.3   2001  JZZ2001     0.0544
     18  CAI        7.9400  130.6550   82.4200 C.1   2001  JZZ2001    -0.0884
     19  CAJ        7.4890  131.6820   81.9320 C.1   2001  JZZ2001    -0.0644
     20  CAK        6.9960  132.8940   81.3600 C.ar  2001  JZZ2001     0.0417
     21  CAL        7.9070  133.8190   80.8620 C.ar  2001  JZZ2001     0.0097
     22  CAM        7.4430  134.9890   80.2750 C.ar  2001  JZZ2001     0.0170
     23  CAN        8.3580  135.8910   79.7430 C.ar  2001  JZZ2001     0.0725
     24  CAO        7.9070  137.0600   79.1430 C.ar  2001  JZZ2001     0.0178
     25  CAP        7.5980  128.9710   84.1460 C.3   2001  JZZ2001     0.0130
@<TRIPOS>BOND
     1     7     6    2
     2     8     5    1
     3     6     5   ar
     4     6     1   ar
     5    15    24   ar
     6    15    14   ar
     7    24    23   ar
     8     5     4   ar
     9    14    13   ar
    10     1    23    1
    11     1     2   ar
    12    23    22   ar
    13    13    22   ar
    14    13    12   ar
    15     4     2   ar
    16    22    21   ar
    17     2     3    1
    18    12    11   ar
    19    21    20   ar
    20    11    20   ar
    21    20    19    1
    22     3     9    1
    23    16    17    1
    24    19    18    3
    25    18    17    1
    26    17    10    1
    27    17    25    1
