@<TRIPOS>MOLECULE
3l73_UQ_C_1.pdb
 19 19 0 0 0
SMALL
GASTEIGER

@<TRIPOS>ATOM
      1  C1        28.2480  111.8930   71.4300 C.2   2002  UQ2002      0.2285
      2  C2        27.7950  110.4240   71.7550 C.2   2002  UQ2002      0.2140
      3  C3        28.2380  109.7670   72.9250 C.2   2002  UQ2002      0.2140
      4  C4        29.1860  110.5010   73.9170 C.2   2002  UQ2002      0.2282
      5  C5        29.6510  111.9640   73.6120 C.2   2002  UQ2002      0.0198
      6  C6        29.2020  112.6430   72.4210 C.2   2002  UQ2002      0.0235
      7  CM5       30.6090  112.6020   74.6710 C.3   2002  UQ2002      0.0343
      8  CM3       28.7330  107.3220   72.9170 C.3   2002  UQ2002      0.2528
      9  CM2       27.5650  109.0890   69.7160 C.3   2002  UQ2002      0.2528
     10  C7        29.5960  114.1320   71.9720 C.3   2002  UQ2002      0.0548
     11  C8        30.0430  115.2140   72.9800 C.2   2002  UQ2002     -0.0298
     12  C9        30.6750  116.3980   72.6960 C.2   2002  UQ2002     -0.0478
     13  C10       30.9850  116.7240   71.2260 C.3   2002  UQ2002      0.0260
     14  C11       31.1100  117.4490   73.7460 C.3   2002  UQ2002      0.0217
     15  C12       31.8630  118.7260   73.2330 C.3   2002  UQ2002      0.0047
     16  O2        26.9220  109.7640   70.8290 O.2   2002  UQ2002     -0.4652
     17  O3        27.8230  108.4180   73.2340 O.2   2002  UQ2002     -0.4652
     18  O4        29.5750  109.9140   74.9530 O.2   2002  UQ2002     -0.2836
     19  O1        27.8430  112.4610   70.3770 O.2   2002  UQ2002     -0.2835
@<TRIPOS>BOND
     1     9    16    1
     2    19     1    2
     3    16     2    1
     4    13    12    1
     5     1     2    1
     6     1     6    1
     7     2     3    2
     8    10     6    1
     9    10    11    1
    10     6     5    2
    11    12    11    2
    12    12    14    1
    13     8    17    1
    14     3    17    1
    15     3     4    1
    16    15    14    1
    17     5     4    1
    18     5     7    1
    19     4    18    2
