@<TRIPOS>MOLECULE
3l73_HEC_D_1.pdb
 43 50 0 0 0
SMALL
GASTEIGER

@<TRIPOS>ATOM
      1 FE          4.2840  161.7530   65.9700 Fe    501  HEC501      0.0000
      2  CHA        2.9910  159.4280   67.9890 C.2   501  HEC501      0.0000
      3  CHB        5.4670  159.3670   63.9770 C.2   501  HEC501      0.0000
      4  CHC        5.4920  164.0470   63.8340 C.2   501  HEC501      0.0000
      5  CHD        3.2900  164.1200   67.9870 C.2   501  HEC501      0.0000
      6  NA         4.2970  159.8310   66.0410 N.ar  501  HEC501      0.0000
      7  C1A        3.6680  158.9700   66.9320 C.ar  501  HEC501      0.0000
      8  C2A        3.7120  157.5530   66.4810 C.ar  501  HEC501      0.0000
      9  C3A        4.6330  157.5250   65.4940 C.ar  501  HEC501      0.0000
     10  C4A        4.8630  158.9610   65.1300 C.ar  501  HEC501      0.0000
     11  CMA        5.1370  156.2640   64.7970 C.3   501  HEC501      0.0000
     12  CAA        2.8340  156.3560   66.7400 C.3   501  HEC501      0.0000
     13  CBA        2.5950  156.0990   68.1900 C.3   501  HEC501      0.0000
     14  CGA        2.0390  154.7240   68.4110 C.2   501  HEC501      0.0000
     15  O1A        1.6990  154.4060   69.5780 O.co2 501  HEC501      0.0000
     16  O2A        1.9510  153.9650   67.4160 O.co2 501  HEC501      0.0000
     17  NB         5.2180  161.7210   64.2550 N.2   501  HEC501      0.0000
     18  C1B        5.6620  160.6420   63.5770 C.2   501  HEC501      0.0000
     19  C2B        6.5070  160.9850   62.4700 C.2   501  HEC501      0.0000
     20  C3B        6.5380  162.2860   62.4170 C.2   501  HEC501      0.0000
     21  C4B        5.7010  162.7450   63.5020 C.2   501  HEC501      0.0000
     22  CMB        7.2500  160.0820   61.5200 C.3   501  HEC501      0.0000
     23  CAB        7.2100  163.2560   61.4540 C.3   501  HEC501      0.0000
     24  CBB        6.7000  162.9690   60.0440 C.3   501  HEC501      0.0000
     25  NC         4.2850  163.6580   65.9330 N.ar  501  HEC501      0.0000
     26  C1C        4.8200  164.4910   64.9640 C.ar  501  HEC501      0.0000
     27  C2C        4.8260  165.8650   65.4260 C.ar  501  HEC501      0.0000
     28  C3C        4.2600  165.8670   66.6030 C.ar  501  HEC501      0.0000
     29  C4C        3.8900  164.5180   66.8900 C.ar  501  HEC501      0.0000
     30  CMC        5.6000  167.0260   64.8860 C.3   501  HEC501      0.0000
     31  CAC        4.0800  166.9530   67.6320 C.3   501  HEC501      0.0000
     32  CBC        3.0870  167.9780   67.1260 C.3   501  HEC501      0.0000
     33  ND         3.3580  161.8000   67.5860 N.2   501  HEC501      0.0000
     34  C1D        2.9930  162.8670   68.3070 C.2   501  HEC501      0.0000
     35  C2D        2.1020  162.5260   69.4330 C.2   501  HEC501      0.0000
     36  C3D        2.0080  161.1860   69.4450 C.2   501  HEC501      0.0000
     37  C4D        2.8180  160.7480   68.2900 C.2   501  HEC501      0.0000
     38  CMD        1.4140  163.4410   70.4410 C.3   501  HEC501      0.0000
     39  CAD        1.2830  160.3500   70.4900 C.3   501  HEC501      0.0000
     40  CBD       -0.0240  159.8010   69.9660 C.3   501  HEC501      0.0000
     41  CGD       -0.7010  158.8990   70.9720 C.2   501  HEC501      0.0000
     42  O1D       -0.0080  157.9900   71.4930 O.co2 501  HEC501      0.0000
     43  O2D       -1.9150  159.0920   71.2410 O.co2 501  HEC501      0.0000
@<TRIPOS>BOND
     1    24    23    1
     2    23    20    1
     3    22    19    1
     4    20    19    2
     5    20    21    1
     6    19    18    1
     7    21     4    2
     8    21    17    1
     9    18     3    1
    10    18    17    2
    11     4    26    1
    12     3    10    2
    13    17     1    1
    14    11     9    1
    15    30    27    1
    16    26    27   ar
    17    26    25   ar
    18    10     9   ar
    19    10     6   ar
    20    27    28   ar
    21     9     8   ar
    22    25     1    1
    23    25    29   ar
    24     1     6    1
    25     1    33    1
    26     6     7   ar
    27     8    12    1
    28     8     7   ar
    29    28    29   ar
    30    28    31    1
    31    12    13    1
    32    29     5    1
    33     7     2    2
    34    32    31    1
    35    16    14   ar
    36    33    37    2
    37    33    34    1
    38     5    34    2
    39     2    37    1
    40    13    14    1
    41    37    36    1
    42    34    35    1
    43    14    15   ar
    44    35    36    2
    45    35    38    1
    46    36    39    1
    47    40    39    1
    48    40    41    1
    49    41    43   ar
    50    41    42   ar
