@<TRIPOS>MOLECULE
3l74_HEC_D_1.pdb
 43 50 0 0 0
SMALL
GASTEIGER

@<TRIPOS>ATOM
      1 FE          4.4560  160.4750   65.6670 Fe    501  HEC501      0.0000
      2  CHA        3.1680  158.1250   67.7160 C.2   501  HEC501      0.0000
      3  CHB        5.6960  158.0440   63.6690 C.2   501  HEC501      0.0000
      4  CHC        5.6340  162.8480   63.5150 C.2   501  HEC501      0.0000
      5  CHD        3.3130  162.8830   67.6620 C.2   501  HEC501      0.0000
      6  NA         4.3840  158.5310   65.6690 N.ar  501  HEC501      0.0000
      7  C1A        3.7910  157.6840   66.5920 C.ar  501  HEC501      0.0000
      8  C2A        3.9700  156.2920   66.2160 C.ar  501  HEC501      0.0000
      9  C3A        4.7920  156.2980   65.1530 C.ar  501  HEC501      0.0000
     10  C4A        4.9890  157.6730   64.7830 C.ar  501  HEC501      0.0000
     11  CMA        5.3440  155.0640   64.4390 C.3   501  HEC501      0.0000
     12  CAA        3.2360  155.0460   66.5420 C.3   501  HEC501      0.0000
     13  CBA        2.8470  154.8140   67.9640 C.3   501  HEC501      0.0000
     14  CGA        2.2580  153.4340   68.1860 C.2   501  HEC501      0.0000
     15  O1A        2.0150  153.1140   69.3630 O.co2 501  HEC501      0.0000
     16  O2A        2.0390  152.6670   67.2150 O.co2 501  HEC501      0.0000
     17  NB         5.3620  160.4690   63.9390 N.2   501  HEC501      0.0000
     18  C1B        5.8560  159.3610   63.2610 C.2   501  HEC501      0.0000
     19  C2B        6.5880  159.7420   62.1000 C.2   501  HEC501      0.0000
     20  C3B        6.4560  161.0640   61.9760 C.2   501  HEC501      0.0000
     21  C4B        5.7800  161.5290   63.1600 C.2   501  HEC501      0.0000
     22  CMB        7.4110  158.8560   61.1740 C.3   501  HEC501      0.0000
     23  CAB        7.0070  162.0580   60.9780 C.3   501  HEC501      0.0000
     24  CBB        6.5360  161.6810   59.5830 C.3   501  HEC501      0.0000
     25  NC         4.4720  162.4280   65.5900 N.ar  501  HEC501      0.0000
     26  C1C        5.0160  163.2640   64.6520 C.ar  501  HEC501      0.0000
     27  C2C        4.8520  164.6880   65.0250 C.ar  501  HEC501      0.0000
     28  C3C        4.3360  164.6850   66.2800 C.ar  501  HEC501      0.0000
     29  C4C        3.9400  163.3040   66.5270 C.ar  501  HEC501      0.0000
     30  CMC        5.2550  165.9480   64.2770 C.3   501  HEC501      0.0000
     31  CAC        4.1640  165.8000   67.3160 C.3   501  HEC501      0.0000
     32  CBC        3.2950  166.9880   66.8370 C.3   501  HEC501      0.0000
     33  ND         3.5580  160.5090   67.3630 N.2   501  HEC501      0.0000
     34  C1D        3.1730  161.6060   68.0770 C.2   501  HEC501      0.0000
     35  C2D        2.4760  161.2600   69.3090 C.2   501  HEC501      0.0000
     36  C3D        2.3360  159.9150   69.3280 C.2   501  HEC501      0.0000
     37  C4D        3.0590  159.4390   68.0960 C.2   501  HEC501      0.0000
     38  CMD        1.9120  162.1970   70.3390 C.3   501  HEC501      0.0000
     39  CAD        1.4940  159.1800   70.3340 C.3   501  HEC501      0.0000
     40  CBD        0.3030  158.3900   69.7950 C.3   501  HEC501      0.0000
     41  CGD       -0.4590  157.6410   70.8870 C.2   501  HEC501      0.0000
     42  O1D        0.1330  156.7470   71.5560 O.co2 501  HEC501      0.0000
     43  O2D       -1.6570  157.9480   71.0840 O.co2 501  HEC501      0.0000
@<TRIPOS>BOND
     1    24    23    1
     2    23    20    1
     3    22    19    1
     4    20    19    2
     5    20    21    1
     6    19    18    1
     7    21     4    2
     8    21    17    1
     9    18     3    1
    10    18    17    2
    11     4    26    1
    12     3    10    2
    13    17     1    1
    14    30    27    1
    15    11     9    1
    16    26    27   ar
    17    26    25   ar
    18    10     9   ar
    19    10     6   ar
    20    27    28   ar
    21     9     8   ar
    22    25     1    1
    23    25    29   ar
    24     1     6    1
    25     1    33    1
    26     6     7   ar
    27     8    12    1
    28     8     7   ar
    29    28    29   ar
    30    28    31    1
    31    29     5    1
    32    12    13    1
    33     7     2    2
    34    32    31    1
    35    16    14   ar
    36    33    34    1
    37    33    37    2
    38     5    34    2
    39     2    37    1
    40    13    14    1
    41    34    35    1
    42    37    36    1
    43    14    15   ar
    44    35    36    2
    45    35    38    1
    46    36    39    1
    47    40    39    1
    48    40    41    1
    49    41    43   ar
    50    41    42   ar
