@<TRIPOS>MOLECULE
3l74_FMX_C_1.pdb
 28 31 0 0 0
SMALL
GASTEIGER

@<TRIPOS>ATOM
      1  O6         9.8020  132.7440   77.5570 O.2   2001  FMX2001    -0.2686
      2  C6        10.4930  133.2560   78.3830 C.2   2001  FMX2001     0.2918
      3  N2        10.2230  134.3970   79.0360 N.am  2001  FMX2001    -0.0974
      4  N1         9.0540  135.1780   78.8320 N.pl3 2001  FMX2001    -0.1354
      5  C21        7.8380  134.9390   79.4790 C.ar  2001  FMX2001     0.0880
      6  C22        6.6930  135.6470   79.0550 C.ar  2001  FMX2001     0.0180
      7  C23        5.4500  135.4290   79.6780 C.ar  2001  FMX2001     0.0014
      8  C24        5.3450  134.5050   80.7280 C.ar  2001  FMX2001     0.0001
      9  C25        6.4900  133.7930   81.1600 C.ar  2001  FMX2001     0.0014
     10  C26        7.7320  134.0050   80.5390 C.ar  2001  FMX2001     0.0180
     11  C3        11.2130  134.7050   79.9060 C.2   2001  FMX2001     0.4293
     12  O4        12.2010  133.7920   79.8840 O.3   2001  FMX2001    -0.4273
     13  O3        11.2220  135.6940   80.6290 O.2   2001  FMX2001    -0.2240
     14  C5        11.8440  132.7650   78.9070 C.3   2001  FMX2001     0.2258
     15  C7        12.8710  132.7430   77.7740 C.3   2001  FMX2001     0.0581
     16  C8        11.7730  131.4280   79.6740 C.ar  2001  FMX2001     0.0223
     17  C9        10.6980  131.1820   80.5130 C.ar  2001  FMX2001     0.0027
     18  C10       10.6140  130.0110   81.2460 C.ar  2001  FMX2001     0.0373
     19  C11       11.6120  129.0420   81.1640 C.ar  2001  FMX2001     0.1453
     20  C12       12.6940  129.2720   80.3170 C.ar  2001  FMX2001     0.0373
     21  C13       12.7750  130.4720   79.5720 C.ar  2001  FMX2001     0.0027
     22  O14       11.5440  127.8930   81.8950 O.3   2001  FMX2001    -0.4535
     23  C15       11.5920  128.1110   83.2470 C.ar  2001  FMX2001     0.1453
     24  C16       12.7550  128.5520   83.8820 C.ar  2001  FMX2001     0.0375
     25  C17       12.7840  128.7630   85.2520 C.ar  2001  FMX2001     0.0031
     26  C18       11.6500  128.5360   86.0130 C.ar  2001  FMX2001     0.0002
     27  C19       10.4880  128.0950   85.3980 C.ar  2001  FMX2001     0.0031
     28  C20       10.4610  127.8840   84.0290 C.ar  2001  FMX2001     0.0375
@<TRIPOS>BOND
     1     1     2    2
     2    15    14    1
     3     2    14    1
     4     2     3   am
     5     4     3    1
     6     4     5    1
     7    14    16    1
     8    14    12    1
     9     3    11   am
    10     6     5   ar
    11     6     7   ar
    12     5    10   ar
    13    21    16   ar
    14    21    20   ar
    15    16    17   ar
    16     7     8   ar
    17    12    11    1
    18    11    13    2
    19    20    19   ar
    20    17    18   ar
    21    10     9   ar
    22     8     9   ar
    23    19    18   ar
    24    19    22    1
    25    22    23    1
    26    23    24   ar
    27    23    28   ar
    28    24    25   ar
    29    28    27   ar
    30    25    26   ar
    31    27    26   ar
