@<TRIPOS>MOLECULE
3l74_HEM_C_1.pdb
 43 50 0 0 0
SMALL
GASTEIGER

@<TRIPOS>ATOM
      1  CHA       21.5310  137.0080   76.8450 C.2   501  HEM501      0.0000
      2  CHB       20.6610  132.2950   76.4330 C.2   501  HEM501      0.0000
      3  CHC       25.2160  131.4270   77.8320 C.2   501  HEM501      0.0000
      4  CHD       25.9800  136.0940   78.2840 C.2   501  HEM501      0.0000
      5  C1A       20.9340  135.7910   76.6000 C.ar  501  HEM501      0.0000
      6  C2A       19.6020  135.6580   76.0620 C.ar  501  HEM501      0.0000
      7  C3A       19.2720  134.3450   76.1250 C.ar  501  HEM501      0.0000
      8  C4A       20.5010  133.6620   76.4740 C.ar  501  HEM501      0.0000
      9  CMA       17.9020  133.7320   75.8740 C.3   501  HEM501      0.0000
     10  CAA       18.7750  136.8230   75.5910 C.3   501  HEM501      0.0000
     11  CBA       18.9870  137.1170   74.1170 C.3   501  HEM501      0.0000
     12  CGA       18.2890  138.3960   73.6830 C.2   501  HEM501      0.0000
     13  O1A       18.8990  139.4830   73.8300 O.co2 501  HEM501      0.0000
     14  O2A       17.1230  138.3160   73.2120 O.co2 501  HEM501      0.0000
     15  C1B       21.8380  131.6320   76.7160 C.2   501  HEM501      0.0000
     16  C2B       21.9520  130.1750   76.7990 C.2   501  HEM501      0.0000
     17  C3B       23.2850  129.9630   77.0810 C.2   501  HEM501      0.0000
     18  C4B       23.8990  131.2440   77.3500 C.2   501  HEM501      0.0000
     19  CMB       20.8360  129.1400   76.6070 C.3   501  HEM501      0.0000
     20  CAB       23.9960  128.8030   77.0820 C.3   501  HEM501      0.0000
     21  CBB       23.5300  127.6040   77.8140 C.3   501  HEM501      0.0000
     22  C1C       25.8420  132.6310   78.1140 C.ar  501  HEM501      0.0000
     23  C2C       27.1600  132.7980   78.6720 C.ar  501  HEM501      0.0000
     24  C3C       27.3290  134.1230   78.8400 C.ar  501  HEM501      0.0000
     25  C4C       26.1580  134.7290   78.3300 C.ar  501  HEM501      0.0000
     26  CMC       28.1790  131.7020   78.9630 C.3   501  HEM501      0.0000
     27  CAC       28.4130  134.8710   79.3060 C.3   501  HEM501      0.0000
     28  CBC       29.7860  134.4390   79.7990 C.3   501  HEM501      0.0000
     29  C1D       24.8450  136.7310   77.8450 C.2   501  HEM501      0.0000
     30  C2D       24.7150  138.1730   77.8620 C.2   501  HEM501      0.0000
     31  C3D       23.4740  138.4490   77.4080 C.2   501  HEM501      0.0000
     32  C4D       22.8090  137.1470   77.2300 C.2   501  HEM501      0.0000
     33  CMD       25.7430  139.1910   78.2830 C.3   501  HEM501      0.0000
     34  CAD       23.0390  139.8790   77.1940 C.3   501  HEM501      0.0000
     35  CBD       23.1440  140.5210   75.8210 C.3   501  HEM501      0.0000
     36  CGD       21.9650  140.1570   74.9450 C.2   501  HEM501      0.0000
     37  O1D       20.8190  140.1310   75.4550 O.co2 501  HEM501      0.0000
     38  O2D       22.1630  139.9060   73.7420 O.co2 501  HEM501      0.0000
     39  NA        21.5320  134.5570   76.7690 N.ar  501  HEM501      0.0000
     40  NB        23.0200  132.2770   77.0990 N.2   501  HEM501      0.0000
     41  NC        25.2350  133.8210   77.8960 N.ar  501  HEM501      0.0000
     42  ND        23.6780  136.0860   77.4460 N.2   501  HEM501      0.0000
     43 FE         23.4050  134.1460   77.2560 Fe    501  HEM501      0.0000
@<TRIPOS>BOND
     1    14    12   ar
     2    12    13   ar
     3    12    11    1
     4    38    36   ar
     5    11    10    1
     6    36    37   ar
     7    36    35    1
     8    10     6    1
     9    35    34    1
    10     9     7    1
    11     6     7   ar
    12     6     5   ar
    13     7     8   ar
    14     2     8    2
    15     2    15    1
    16     8    39   ar
    17     5    39   ar
    18     5     1    2
    19    19    16    1
    20    15    16    1
    21    15    40    2
    22    39    43    1
    23    16    17    2
    24     1    32    1
    25    17    20    1
    26    17    18    1
    27    20    21    1
    28    40    43    1
    29    40    18    1
    30    34    31    1
    31    32    31    1
    32    32    42    2
    33    43    42    1
    34    43    41    1
    35    18     3    2
    36    31    30    2
    37    42    29    1
    38     3    22    1
    39    29    30    1
    40    29     4    2
    41    30    33    1
    42    41    22   ar
    43    41    25   ar
    44    22    23   ar
    45     4    25    1
    46    25    24   ar
    47    23    24   ar
    48    23    26    1
    49    24    27    1
    50    27    28    1
