@<TRIPOS>MOLECULE
3l74_UQ_C_1.pdb
 19 19 0 0 0
SMALL
GASTEIGER

@<TRIPOS>ATOM
      1  C1        28.5760  110.8880   70.3510 C.2   2002  UQ2002      0.2285
      2  C2        28.0730  109.4500   70.7210 C.2   2002  UQ2002      0.2140
      3  C3        28.4960  108.8110   71.9140 C.2   2002  UQ2002      0.2140
      4  C4        29.4750  109.5340   72.8770 C.2   2002  UQ2002      0.2282
      5  C5        29.9930  110.9590   72.5270 C.2   2002  UQ2002      0.0198
      6  C6        29.5670  111.6190   71.3220 C.2   2002  UQ2002      0.0235
      7  CM5       30.9860  111.5960   73.5570 C.3   2002  UQ2002      0.0343
      8  CM3       28.9510  106.3710   72.0240 C.3   2002  UQ2002      0.2528
      9  CM2       27.8030  107.9860   68.7800 C.3   2002  UQ2002      0.2528
     10  C7        30.0420  113.0700   70.8690 C.3   2002  UQ2002      0.0548
     11  C8        30.0860  114.2030   71.9020 C.2   2002  UQ2002     -0.0298
     12  C9        30.7600  115.3850   71.8200 C.2   2002  UQ2002     -0.0478
     13  C10       31.5880  115.6960   70.5750 C.3   2002  UQ2002      0.0260
     14  C11       30.7630  116.4630   72.9000 C.3   2002  UQ2002      0.0217
     15  C12       31.8440  116.3320   74.0110 C.3   2002  UQ2002      0.0047
     16  O2        27.1760  108.8010   69.8140 O.2   2002  UQ2002     -0.4652
     17  O3        28.0380  107.4900   72.2680 O.2   2002  UQ2002     -0.4652
     18  O4        29.8450  108.9660   73.9230 O.2   2002  UQ2002     -0.2836
     19  O1        28.1840  111.4420   69.2790 O.2   2002  UQ2002     -0.2835
@<TRIPOS>BOND
     1     9    16    1
     2    19     1    2
     3    16     2    1
     4     1     2    1
     5     1     6    1
     6    13    12    1
     7     2     3    2
     8    10     6    1
     9    10    11    1
    10     6     5    2
    11    12    11    2
    12    12    14    1
    13     3    17    1
    14     3     4    1
    15     8    17    1
    16     5     4    1
    17     5     7    1
    18     4    18    2
    19    14    15    1
