@<TRIPOS>MOLECULE
3l75_UQ_C_1.pdb
 19 19 0 0 0
SMALL
GASTEIGER

@<TRIPOS>ATOM
      1  C1        28.6130  111.0680   70.2810 C.2   2002  UQ2002      0.2285
      2  C2        28.1430  109.6100   70.6050 C.2   2002  UQ2002      0.2140
      3  C3        28.5400  108.9660   71.8000 C.2   2002  UQ2002      0.2140
      4  C4        29.4540  109.7010   72.8150 C.2   2002  UQ2002      0.2282
      5  C5        29.9390  111.1530   72.5100 C.2   2002  UQ2002      0.0198
      6  C6        29.5410  111.8200   71.2990 C.2   2002  UQ2002      0.0235
      7  CM5       30.8650  111.8020   73.5910 C.3   2002  UQ2002      0.0343
      8  CM3       29.0520  106.5360   71.8380 C.3   2002  UQ2002      0.2528
      9  CM2       27.9920  108.2830   68.5500 C.3   2002  UQ2002      0.2528
     10  C7        29.9840  113.2990   70.8720 C.3   2002  UQ2002      0.0548
     11  C8        30.0820  114.4180   71.9210 C.2   2002  UQ2002     -0.0298
     12  C9        30.7600  115.6010   71.8280 C.2   2002  UQ2002     -0.0478
     13  C10       31.5310  115.9260   70.5530 C.3   2002  UQ2002      0.0260
     14  C11       30.8150  116.6730   72.9240 C.3   2002  UQ2002      0.0217
     15  C12       31.7410  116.3900   74.1410 C.3   2002  UQ2002      0.0047
     16  O2        27.3020  108.9490   69.6500 O.2   2002  UQ2002     -0.4652
     17  O3        28.1160  107.6270   72.1140 O.2   2002  UQ2002     -0.4652
     18  O4        29.7990  109.1210   73.8660 O.2   2002  UQ2002     -0.2836
     19  O1        28.2420  111.6200   69.2030 O.2   2002  UQ2002     -0.2835
@<TRIPOS>BOND
     1     9    16    1
     2    19     1    2
     3    16     2    1
     4     1     2    1
     5     1     6    1
     6    13    12    1
     7     2     3    2
     8    10     6    1
     9    10    11    1
    10     6     5    2
    11     3    17    1
    12     3     4    1
    13    12    11    2
    14    12    14    1
    15     8    17    1
    16     5     4    1
    17     5     7    1
    18     4    18    2
    19    14    15    1
