@<TRIPOS>MOLECULE
3l75_HEC_D_1.pdb
 43 50 0 0 0
SMALL
GASTEIGER

@<TRIPOS>ATOM
      1 FE          4.5540  160.9120   65.7850 Fe    501  HEC501      0.0000
      2  CHA        3.2910  158.5730   67.8370 C.2   501  HEC501      0.0000
      3  CHB        5.7690  158.5010   63.7530 C.2   501  HEC501      0.0000
      4  CHC        5.6670  163.2860   63.5750 C.2   501  HEC501      0.0000
      5  CHD        3.4840  163.3150   67.7950 C.2   501  HEC501      0.0000
      6  NA         4.5290  158.9720   65.7880 N.ar  501  HEC501      0.0000
      7  C1A        3.9270  158.1260   66.7020 C.ar  501  HEC501      0.0000
      8  C2A        4.1320  156.7190   66.3350 C.ar  501  HEC501      0.0000
      9  C3A        4.9670  156.7450   65.2690 C.ar  501  HEC501      0.0000
     10  C4A        5.1490  158.1170   64.9080 C.ar  501  HEC501      0.0000
     11  CMA        5.4250  155.5410   64.4620 C.3   501  HEC501      0.0000
     12  CAA        3.4180  155.4480   66.7460 C.3   501  HEC501      0.0000
     13  CBA        2.8210  155.2790   68.1180 C.3   501  HEC501      0.0000
     14  CGA        2.2200  153.9010   68.3330 C.2   501  HEC501      0.0000
     15  O1A        1.9900  153.5540   69.5070 O.co2 501  HEC501      0.0000
     16  O2A        1.9720  153.1600   67.3530 O.co2 501  HEC501      0.0000
     17  NB         5.4310  160.9050   64.0350 N.2   501  HEC501      0.0000
     18  C1B        5.8880  159.8020   63.3430 C.2   501  HEC501      0.0000
     19  C2B        6.7010  160.1820   62.2220 C.2   501  HEC501      0.0000
     20  C3B        6.5120  161.5150   62.0570 C.2   501  HEC501      0.0000
     21  C4B        5.8330  161.9720   63.2410 C.2   501  HEC501      0.0000
     22  CMB        7.6530  159.3000   61.3820 C.3   501  HEC501      0.0000
     23  CAB        7.0620  162.4940   61.0250 C.3   501  HEC501      0.0000
     24  CBB        6.6900  162.0680   59.6100 C.3   501  HEC501      0.0000
     25  NC         4.5610  162.8660   65.7240 N.ar  501  HEC501      0.0000
     26  C1C        5.0680  163.7150   64.7360 C.ar  501  HEC501      0.0000
     27  C2C        4.9370  165.1360   65.1330 C.ar  501  HEC501      0.0000
     28  C3C        4.4070  165.1290   66.3790 C.ar  501  HEC501      0.0000
     29  C4C        4.0780  163.7360   66.6740 C.ar  501  HEC501      0.0000
     30  CMC        5.3950  166.3850   64.4030 C.3   501  HEC501      0.0000
     31  CAC        4.2720  166.2300   67.4200 C.3   501  HEC501      0.0000
     32  CBC        3.4680  167.4430   66.9390 C.3   501  HEC501      0.0000
     33  ND         3.6590  160.9420   67.4720 N.2   501  HEC501      0.0000
     34  C1D        3.2920  162.0330   68.1890 C.2   501  HEC501      0.0000
     35  C2D        2.5760  161.6900   69.4490 C.2   501  HEC501      0.0000
     36  C3D        2.4570  160.3450   69.4870 C.2   501  HEC501      0.0000
     37  C4D        3.1840  159.8770   68.2270 C.2   501  HEC501      0.0000
     38  CMD        2.0380  162.6050   70.5130 C.3   501  HEC501      0.0000
     39  CAD        1.6040  159.6290   70.5320 C.3   501  HEC501      0.0000
     40  CBD        0.3710  158.9280   69.9910 C.3   501  HEC501      0.0000
     41  CGD       -0.3890  158.1440   71.0600 C.2   501  HEC501      0.0000
     42  O1D        0.2270  157.2710   71.7380 O.co2 501  HEC501      0.0000
     43  O2D       -1.6130  158.3920   71.2210 O.co2 501  HEC501      0.0000
@<TRIPOS>BOND
     1    24    23    1
     2    23    20    1
     3    22    19    1
     4    20    19    2
     5    20    21    1
     6    19    18    1
     7    21     4    2
     8    21    17    1
     9    18     3    1
    10    18    17    2
    11     4    26    1
    12     3    10    2
    13    17     1    1
    14    30    27    1
    15    11     9    1
    16    26    27   ar
    17    26    25   ar
    18    10     9   ar
    19    10     6   ar
    20    27    28   ar
    21     9     8   ar
    22    25     1    1
    23    25    29   ar
    24     1     6    1
    25     1    33    1
    26     6     7   ar
    27     8     7   ar
    28     8    12    1
    29    28    29   ar
    30    28    31    1
    31    29     5    1
    32     7     2    2
    33    12    13    1
    34    32    31    1
    35    16    14   ar
    36    33    34    1
    37    33    37    2
    38     5    34    2
    39     2    37    1
    40    13    14    1
    41    34    35    1
    42    37    36    1
    43    14    15   ar
    44    35    36    2
    45    35    38    1
    46    36    39    1
    47    40    39    1
    48    40    41    1
    49    41    43   ar
    50    41    42   ar
