@<TRIPOS>MOLECULE
3l75_HEM_C_1.pdb
 43 50 0 0 0
SMALL
GASTEIGER

@<TRIPOS>ATOM
      1  CHA       21.6640  137.3480   76.8210 C.2   501  HEM501      0.0000
      2  CHB       20.8260  132.6630   76.4210 C.2   501  HEM501      0.0000
      3  CHC       25.3340  131.8170   77.8470 C.2   501  HEM501      0.0000
      4  CHD       26.0870  136.4700   78.3130 C.2   501  HEM501      0.0000
      5  C1A       21.0770  136.1430   76.5720 C.ar  501  HEM501      0.0000
      6  C2A       19.7450  136.0090   76.0440 C.ar  501  HEM501      0.0000
      7  C3A       19.4130  134.7090   76.1290 C.ar  501  HEM501      0.0000
      8  C4A       20.6620  134.0310   76.4510 C.ar  501  HEM501      0.0000
      9  CMA       18.0460  134.0650   75.9400 C.3   501  HEM501      0.0000
     10  CAA       18.9200  137.1780   75.5730 C.3   501  HEM501      0.0000
     11  CBA       19.1150  137.5290   74.1100 C.3   501  HEM501      0.0000
     12  CGA       18.3440  138.7860   73.7110 C.2   501  HEM501      0.0000
     13  O1A       18.8490  139.9120   73.9420 O.co2 501  HEM501      0.0000
     14  O2A       17.2150  138.6440   73.1830 O.co2 501  HEM501      0.0000
     15  C1B       21.9860  131.9910   76.6920 C.2   501  HEM501      0.0000
     16  C2B       22.1020  130.5240   76.7870 C.2   501  HEM501      0.0000
     17  C3B       23.4280  130.3240   77.1100 C.2   501  HEM501      0.0000
     18  C4B       24.0410  131.6180   77.3420 C.2   501  HEM501      0.0000
     19  CMB       20.9940  129.4790   76.6590 C.3   501  HEM501      0.0000
     20  CAB       24.1350  129.1590   77.2250 C.3   501  HEM501      0.0000
     21  CBB       23.5360  127.8950   77.7630 C.3   501  HEM501      0.0000
     22  C1C       25.9380  133.0220   78.1300 C.ar  501  HEM501      0.0000
     23  C2C       27.2840  133.1800   78.6350 C.ar  501  HEM501      0.0000
     24  C3C       27.4730  134.5260   78.7790 C.ar  501  HEM501      0.0000
     25  C4C       26.2460  135.1260   78.3510 C.ar  501  HEM501      0.0000
     26  CMC       28.2930  132.0860   78.9600 C.3   501  HEM501      0.0000
     27  CAC       28.6160  135.2550   79.1400 C.3   501  HEM501      0.0000
     28  CBC       29.8240  134.7430   79.8390 C.3   501  HEM501      0.0000
     29  C1D       24.9800  137.1000   77.8420 C.2   501  HEM501      0.0000
     30  C2D       24.8840  138.5280   77.8210 C.2   501  HEM501      0.0000
     31  C3D       23.6120  138.7910   77.4020 C.2   501  HEM501      0.0000
     32  C4D       22.9490  137.4980   77.1920 C.2   501  HEM501      0.0000
     33  CMD       25.9750  139.5090   78.2250 C.3   501  HEM501      0.0000
     34  CAD       23.0620  140.1920   77.3160 C.3   501  HEM501      0.0000
     35  CBD       23.1890  140.9480   76.0070 C.3   501  HEM501      0.0000
     36  CGD       22.1000  140.5830   75.0220 C.2   501  HEM501      0.0000
     37  O1D       20.9400  140.3820   75.4580 O.co2 501  HEM501      0.0000
     38  O2D       22.3890  140.5180   73.8100 O.co2 501  HEM501      0.0000
     39  NA        21.6850  134.9210   76.7230 N.ar  501  HEM501      0.0000
     40  NB        23.1640  132.6460   77.0720 N.2   501  HEM501      0.0000
     41  NC        25.3190  134.2170   77.9280 N.ar  501  HEM501      0.0000
     42  ND        23.8180  136.4490   77.4020 N.2   501  HEM501      0.0000
     43 FE         23.5280  134.5200   77.2340 Fe    501  HEM501      0.0000
@<TRIPOS>BOND
     1    14    12   ar
     2    12    13   ar
     3    12    11    1
     4    38    36   ar
     5    11    10    1
     6    36    37   ar
     7    36    35    1
     8    10     6    1
     9     9     7    1
    10    35    34    1
    11     6     7   ar
    12     6     5   ar
    13     7     8   ar
    14     2     8    2
    15     2    15    1
    16     8    39   ar
    17     5    39   ar
    18     5     1    2
    19    19    16    1
    20    15    16    1
    21    15    40    2
    22    39    43    1
    23    16    17    2
    24     1    32    1
    25    40    43    1
    26    40    18    1
    27    17    20    1
    28    17    18    1
    29    32    42    2
    30    32    31    1
    31    20    21    1
    32    43    42    1
    33    43    41    1
    34    34    31    1
    35    18     3    2
    36    42    29    1
    37    31    30    2
    38    30    29    1
    39    30    33    1
    40    29     4    2
    41     3    22    1
    42    41    22   ar
    43    41    25   ar
    44    22    23   ar
    45     4    25    1
    46    25    24   ar
    47    23    24   ar
    48    23    26    1
    49    24    27    1
    50    27    28    1
