@<TRIPOS>MOLECULE
3l75_FNM_C_1.pdb
 22 24 0 0 0
SMALL
GASTEIGER

@<TRIPOS>ATOM
      1  N1         9.3410  135.6440   78.7990 N.pl3 2001  FNM2001    -0.1388
      2  N2        10.4910  134.8830   79.0850 N.am  2001  FNM2001    -0.1431
      3  C3        11.4260  135.2580   79.9560 C.2   2001  FNM2001     0.1790
      4  S3        11.3180  136.7450   80.8340 S.3   2001  FNM2001    -0.0776
      5  N4        12.4270  134.3780   80.0640 N.2   2001  FNM2001    -0.2401
      6  C5        12.1350  133.2700   79.1400 C.3   2001  FNM2001     0.1751
      7  C6        10.7890  133.6970   78.5220 C.2   2001  FNM2001     0.2722
      8  O6        10.1220  133.1150   77.6980 O.2   2001  FNM2001    -0.2705
      9  C7        13.2190  133.2260   78.0500 C.3   2001  FNM2001     0.0385
     10  C8        12.0240  131.9450   79.9010 C.ar  2001  FNM2001     0.0061
     11  C9        10.9890  131.7540   80.8030 C.ar  2001  FNM2001    -0.0020
     12  C10       10.8610  130.5610   81.5000 C.ar  2001  FNM2001    -0.0003
     13  C11       11.7790  129.5390   81.2960 C.ar  2001  FNM2001    -0.0000
     14  C12       12.8240  129.7140   80.3950 C.ar  2001  FNM2001    -0.0003
     15  C13       12.9460  130.9280   79.6940 C.ar  2001  FNM2001    -0.0020
     16  C21        8.1090  135.4470   79.4400 C.ar  2001  FNM2001     0.0879
     17  C22        6.9990  136.2240   79.0360 C.ar  2001  FNM2001     0.0180
     18  C23        5.7490  136.0390   79.6490 C.ar  2001  FNM2001     0.0014
     19  C24        5.5920  135.0850   80.6680 C.ar  2001  FNM2001     0.0001
     20  C25        6.6930  134.3090   81.0800 C.ar  2001  FNM2001     0.0014
     21  C26        7.9500  134.4840   80.4710 C.ar  2001  FNM2001     0.0180
     22  C27       12.7520  136.9770   81.8510 C.3   2001  FNM2001     0.0770
@<TRIPOS>BOND
     1     8     7    2
     2     9     6    1
     3     7     2   am
     4     7     6    1
     5     1     2    1
     6     1    16    1
     7    17    16   ar
     8    17    18   ar
     9     2     3    1
    10     6    10    1
    11     6     5    1
    12    16    21   ar
    13    18    19   ar
    14    15    10   ar
    15    15    14   ar
    16    10    11   ar
    17     3     5    2
    18     3     4    1
    19    14    13   ar
    20    21    20   ar
    21    19    20   ar
    22    11    12   ar
    23     4    22    1
    24    13    12   ar
