@<TRIPOS>MOLECULE
3l76_LYS_A_1.pdb
 10 9 0 0 0
SMALL
GASTEIGER

@<TRIPOS>ATOM
      1  N         28.0040  108.1270   49.2500 N.3   603  LYS603     -0.1208
      2  CA        26.9630  108.1590   50.2680 C.3   603  LYS603      0.1943
      3  C         26.7290  109.6030   50.7320 C.2   603  LYS603      0.3819
      4  O         27.4290  110.5340   50.3030 O.co2 603  LYS603     -0.2441
      5  CB        27.3130  107.2430   51.4490 C.3   603  LYS603      0.0307
      6  CG        28.6780  107.5230   52.1160 C.3   603  LYS603      0.0036
      7  CD        28.9340  106.5530   53.2880 C.3   603  LYS603      0.0206
      8  CE        29.3410  105.1640   52.8000 C.3   603  LYS603      0.1093
      9  NZ        30.5200  105.2520   51.8670 N.3   603  LYS603     -0.1314
     10  OXT       25.8220  109.8750   51.5230 O.co2 603  LYS603     -0.2441
@<TRIPOS>BOND
     1     1     2    1
     2     2     3    1
     3     2     5    1
     4     4     3   ar
     5     3    10   ar
     6     5     6    1
     7     9     8    1
     8     6     7    1
     9     8     7    1
