@<TRIPOS>MOLECULE
3l77_NJP_A_1.pdb
 49 53 0 0 0
SMALL
GASTEIGER

@<TRIPOS>ATOM
      1  O3       -37.4840  -17.5510  -16.5100 O.3   501  NJP501     -0.2703
      2  PA       -37.8560  -18.8860  -17.3300 P.3   501  NJP501      0.2189
      3  PN       -36.6420  -16.2580  -16.9700 P.3   501  NJP501      0.2189
      4  N1A      -29.8680  -25.7050  -14.7870 N.2   501  NJP501      0.0021
      5  O1A      -38.4560  -19.8050  -16.2900 O.3   501  NJP501     -0.4371
      6  C1B      -33.1270  -22.3850  -16.8420 C.3   501  NJP501      0.3158
      7  C1D      -34.5100  -13.7800  -13.5230 C.3   501  NJP501      0.2264
      8  N1N      -35.6140  -12.8020  -13.4480 N.pl3 501  NJP501     -0.2761
      9  O1N      -36.0980  -16.3960  -18.3810 O.2   501  NJP501     -0.5170
     10  O1X      -34.3230  -26.0130  -19.7930 O.2   501  NJP501     -0.2224
     11  C2A      -29.7960  -25.0770  -15.9660 C.3   501  NJP501      0.5254
     12  O2A      -38.6150  -18.5790  -18.5990 O.2   501  NJP501     -0.5170
     13  C2B      -34.3270  -22.9120  -17.6310 C.3   501  NJP501      0.2314
     14  O2B      -33.9710  -23.9460  -18.5520 O.3   501  NJP501     -0.2630
     15  P2B      -34.2530  -25.5310  -18.3640 P.3   501  NJP501      0.5328
     16  C2D      -34.7190  -15.2000  -13.0340 C.3   501  NJP501      0.2309
     17  O2D      -34.5120  -15.2980  -11.6250 O.3   501  NJP501     -0.2158
     18  C2N      -36.8740  -13.1520  -13.9800 C.3   501  NJP501      0.1246
     19  O2N      -37.4820  -15.0590  -16.6180 O.3   501  NJP501     -0.4371
     20  O2X      -35.5580  -25.6960  -17.6080 O.3   501  NJP501     -0.1145
     21  N3A      -30.7570  -24.2190  -16.3360 N.2   501  NJP501     -0.0055
     22  C3B      -34.7570  -21.6740  -18.3920 C.3   501  NJP501      0.2157
     23  O3B      -34.0270  -21.5950  -19.6260 O.3   501  NJP501     -0.2175
     24  C3D      -33.6410  -15.9400  -13.8160 C.3   501  NJP501      0.2158
     25  O3D      -32.3660  -15.8000  -13.1680 O.3   501  NJP501     -0.2175
     26  C3N      -37.9830  -12.3700  -13.6890 C.2   501  NJP501      0.0575
     27  O3X      -33.0440  -26.0420  -17.6160 O.3   501  NJP501     -0.1145
     28  C4A      -31.8160  -23.9910  -15.5160 C.2   501  NJP501      0.3518
     29  C4B      -34.3340  -20.5180  -17.5010 C.3   501  NJP501      0.1820
     30  O4B      -33.4210  -21.0340  -16.5230 O.3   501  NJP501     -0.3136
     31  C4D      -33.5430  -15.1700  -15.1280 C.3   501  NJP501      0.1799
     32  O4D      -34.2730  -13.9580  -14.9180 O.3   501  NJP501     -0.3327
     33  C4N      -37.8860  -11.3090  -12.7970 C.2   501  NJP501      0.0454
     34  C5A      -31.9120  -24.6350  -14.2950 C.2   501  NJP501      0.2526
     35  C5B      -35.5260  -19.9400  -16.7720 C.3   501  NJP501      0.1813
     36  O5B      -36.4310  -19.4750  -17.7690 O.3   501  NJP501     -0.3112
     37  C5D      -34.1150  -15.9160  -16.3280 C.3   501  NJP501      0.1813
     38  O5D      -35.4030  -16.3830  -15.9520 O.3   501  NJP501     -0.3112
     39  C5N      -36.6740  -10.9940  -12.2160 C.2   501  NJP501      0.2101
     40  C6A      -30.9050  -25.5200  -13.9410 C.2   501  NJP501      0.4393
     41  N6A      -30.9500  -26.1870  -12.7560 N.pl3 501  NJP501      0.2180
     42  C6N      -35.5510  -11.7740  -12.4790 C.2   501  NJP501      0.1059
     43  N7A      -33.0640  -24.2200  -13.7000 N.2   501  NJP501     -0.2095
     44  C7N      -39.3130  -12.6400  -14.3220 C.2   501  NJP501      0.2819
     45  N7N      -39.3840  -13.4510  -15.3810 N.am  501  NJP501     -0.0839
     46  O7N      -40.2840  -12.0520  -13.8750 O.2   501  NJP501     -0.2670
     47  C8A      -33.6590  -23.3380  -14.5440 C.3   501  NJP501      0.3377
     48  O8N      -36.6210   -9.9520  -11.3440 O.2   501  NJP501     -0.2852
     49  N9A      -32.8870  -23.2100  -15.6440 N.pl3 501  NJP501     -0.1439
@<TRIPOS>BOND
     1    10    15    2
     2    23    22    1
     3    12     2    2
     4    14    15    1
     5    14    13    1
     6    22    13    1
     7    22    29    1
     8     9     3    2
     9    15    27    1
    10    15    20    1
    11    36     2    1
    12    36    35    1
    13    13     6    1
    14    29    35    1
    15    29    30    1
    16     2     1    1
    17     2     5    1
    18     3    19    1
    19     3     1    1
    20     3    38    1
    21     6    30    1
    22     6    49    1
    23    21    11    1
    24    21    28    2
    25    37    38    1
    26    37    31    1
    27    11     4    1
    28    49    28    1
    29    49    47    1
    30    28    34    1
    31    45    44   am
    32    31    32    1
    33    31    24    1
    34    32     7    1
    35     4    40    2
    36    47    43    1
    37    44    46    2
    38    44    26    1
    39    34    40    1
    40    34    43    2
    41    18    26    1
    42    18     8    1
    43    40    41    1
    44    24    25    1
    45    24    16    1
    46    26    33    2
    47     7     8    1
    48     7    16    1
    49     8    42    1
    50    16    17    1
    51    33    39    1
    52    42    39    2
    53    39    48    1
