@<TRIPOS>MOLECULE
3l79_DKX_A_1.pdb
 19 20 0 0 0
SMALL
GASTEIGER

@<TRIPOS>ATOM
      1  C1        33.3790   22.8650   27.7770 C.3   843  DKX843      0.2403
      2  N1        34.2690   23.5770   28.7220 N.am  843  DKX843     -0.1766
      3  C2        33.7620   23.0570   26.2970 C.3   843  DKX843      0.2342
      4  N2        34.4670   24.8990   30.7290 N.2   843  DKX843     -0.2452
      5  O2        33.8460   24.4570   25.9890 O.3   843  DKX843     -0.2155
      6  C3        32.7410   22.3520   25.3860 C.3   843  DKX843      0.2279
      7  F3        33.2030   22.3390   24.0830 F     843  DKX843     -0.2316
      8  C4        32.4510   20.9180   25.8740 C.3   843  DKX843      0.2165
      9  O4        31.2630   20.4540   25.2380 O.3   843  DKX843     -0.2174
     10  C5        32.2910   20.8210   27.4180 C.3   843  DKX843      0.1830
     11  O5        33.3950   21.4610   28.0930 O.3   843  DKX843     -0.3318
     12  C6        32.2670   19.3730   27.9320 C.3   843  DKX843      0.2142
     13  O6        33.3510   18.6570   27.3190 O.3   843  DKX843     -0.2176
     14  C7        35.6730   23.6180   28.5520 C.2   843  DKX843      0.0929
     15  C8        36.4730   24.2970   29.4740 C.2   843  DKX843      0.1242
     16  C9        35.8580   24.9460   30.5550 C.1   843  DKX843      0.2182
     17  O9        36.5290   25.5650   31.3790 O.2   843  DKX843     -0.2085
     18  C10       33.6660   24.2100   29.8140 C.1   843  DKX843      0.2845
     19  O10       32.4430   24.1690   29.9560 O.2   843  DKX843     -0.1918
@<TRIPOS>BOND
     1     7     6    1
     2     9     8    1
     3     6     8    1
     4     6     3    1
     5     8    10    1
     6     5     3    1
     7     3     1    1
     8    13    12    1
     9    10    12    1
    10    10    11    1
    11     1    11    1
    12     1     2    1
    13    14     2    1
    14    14    15    2
    15     2    18   am
    16    15    16    1
    17    18    19    2
    18    18     4    2
    19    16     4    2
    20    16    17    2
