@<TRIPOS>MOLECULE
3l7a_DKY_A_1.pdb
 27 29 0 0 0
SMALL
GASTEIGER

@<TRIPOS>ATOM
      1  C1        33.5050   23.0120   27.8130 C.3   843  DKY843      0.2402
      2  N1        34.3980   23.6190   28.8290 N.am  843  DKY843     -0.1778
      3  C2        33.9080   23.1720   26.3340 C.3   843  DKY843      0.2342
      4  N2        34.5880   24.6950   30.9500 N.2   843  DKY843     -0.3036
      5  O2        34.0050   24.5640   25.9920 O.3   843  DKY843     -0.2155
      6  C3        32.9000   22.4480   25.4120 C.3   843  DKY843      0.2279
      7  F3        33.3890   22.3890   24.1180 F     843  DKY843     -0.2316
      8  N3        36.6040   25.3240   31.8530 N.am  843  DKY843     -0.1445
      9  C4        32.5580   21.0270   25.9220 C.3   843  DKY843      0.2165
     10  O4        31.3810   20.5430   25.2730 O.3   843  DKY843     -0.2174
     11  C5        32.3660   20.9550   27.4620 C.3   843  DKY843      0.1830
     12  O5        33.4620   21.5930   28.1440 O.3   843  DKY843     -0.3318
     13  C6        32.3180   19.5000   27.9330 C.3   843  DKY843      0.2142
     14  O6        33.4380   18.8020   27.3630 O.3   843  DKY843     -0.2176
     15  C7        35.7990   23.6640   28.6800 C.2   843  DKY843      0.0835
     16  C8        36.5680   24.2390   29.6950 C.2   843  DKY843      0.0675
     17  C9        35.9280   24.7690   30.8310 C.2   843  DKY843      0.2215
     18  C10       33.8120   24.1430   29.9980 C.1   843  DKY843      0.2756
     19  O10       32.5890   24.1130   30.1510 O.2   843  DKY843     -0.1925
     20  C11       37.8590   25.7970   31.7850 C.2   843  DKY843      0.2711
     21  O11       38.5480   25.8010   30.7620 O.2   843  DKY843     -0.2679
     22  C12       38.4210   26.3660   33.1040 C.ar  843  DKY843      0.0555
     23  C13       39.7850   26.6670   33.2040 C.ar  843  DKY843      0.0046
     24  C14       40.3190   27.1730   34.3920 C.ar  843  DKY843      0.0001
     25  C15       39.4770   27.3780   35.4880 C.ar  843  DKY843      0.0000
     26  C16       38.1190   27.0760   35.3970 C.ar  843  DKY843      0.0001
     27  C17       37.5930   26.5700   34.2070 C.ar  843  DKY843      0.0046
@<TRIPOS>BOND
     1     7     6    1
     2    10     9    1
     3     6     9    1
     4     6     3    1
     5     9    11    1
     6     5     3    1
     7     3     1    1
     8    14    13    1
     9    11    13    1
    10    11    12    1
    11     1    12    1
    12     1     2    1
    13    15     2    1
    14    15    16    2
    15     2    18   am
    16    16    17    1
    17    18    19    2
    18    18     4    2
    19    21    20    2
    20    17     4    2
    21    17     8    1
    22    20     8   am
    23    20    22    1
    24    22    23   ar
    25    22    27   ar
    26    23    24   ar
    27    27    26   ar
    28    24    25   ar
    29    26    25   ar
