@<TRIPOS>MOLECULE
3l7b_DKZ_A_1.pdb
 19 20 0 0 0
SMALL
GASTEIGER

@<TRIPOS>ATOM
      1  C1        33.5240   23.0750   27.9440 C.3   843  DKZ843      0.2402
      2  N1        34.4430   23.6190   28.9700 N.am  843  DKZ843     -0.1778
      3  C2        33.9200   23.2540   26.4660 C.3   843  DKZ843      0.2342
      4  N2        34.6850   24.6950   31.0670 N.2   843  DKZ843     -0.3024
      5  O2        34.0220   24.6580   26.1230 O.3   843  DKZ843     -0.2155
      6  C3        32.9030   22.5180   25.5640 C.3   843  DKZ843      0.2279
      7  F3        33.3660   22.4660   24.2700 F     843  DKZ843     -0.2316
      8  N3        36.7690   25.1020   31.9630 N.pl3 843  DKZ843     -0.0921
      9  C4        32.6270   21.0760   26.0550 C.3   843  DKZ843      0.2165
     10  O4        31.4530   20.5980   25.4070 O.3   843  DKZ843     -0.2174
     11  C5        32.4370   20.9640   27.5870 C.3   843  DKZ843      0.1830
     12  O5        33.5080   21.6490   28.2840 O.3   843  DKZ843     -0.3318
     13  C6        32.4400   19.4970   28.0600 C.3   843  DKZ843      0.2142
     14  O6        33.5580   18.8170   27.4710 O.3   843  DKZ843     -0.2176
     15  C7        35.8480   23.5100   28.8480 C.2   843  DKZ843      0.0836
     16  C8        36.6580   24.0250   29.8600 C.2   843  DKZ843      0.0687
     17  C9        36.0320   24.6140   30.9690 C.2   843  DKZ843      0.2346
     18  C10       33.8780   24.2030   30.1050 C.1   843  DKZ843      0.2756
     19  O10       32.6450   24.2800   30.2020 O.2   843  DKZ843     -0.1925
@<TRIPOS>BOND
     1     7     6    1
     2    10     9    1
     3     6     9    1
     4     6     3    1
     5     9    11    1
     6     5     3    1
     7     3     1    1
     8    14    13    1
     9    11    13    1
    10    11    12    1
    11     1    12    1
    12     1     2    1
    13    15     2    1
    14    15    16    2
    15     2    18   am
    16    16    17    1
    17    18    19    2
    18    18     4    2
    19    17     4    2
    20    17     8    1
