@<TRIPOS>MOLECULE
3l7c_DK4_A_1.pdb
 20 21 0 0 0
SMALL
GASTEIGER

@<TRIPOS>ATOM
      1  C1        33.3430   22.9030   27.7890 C.3   843  DK4843      0.2403
      2  N1        34.1780   23.5970   28.7930 N.am  843  DK4843     -0.1743
      3  C2        33.7820   23.1050   26.3240 C.3   843  DK4843      0.2342
      4  N2        34.3500   24.9300   30.8100 N.2   843  DK4843     -0.2430
      5  O2        33.8490   24.5030   26.0120 O.3   843  DK4843     -0.2155
      6  C3        32.8160   22.3780   25.3640 C.3   843  DK4843      0.2279
      7  F3        33.3240   22.3630   24.0780 F     843  DK4843     -0.2316
      8  C4        32.4890   20.9500   25.8580 C.3   843  DK4843      0.2165
      9  O4        31.2910   20.4920   25.2390 O.3   843  DK4843     -0.2174
     10  C5        32.3120   20.8650   27.3990 C.3   843  DK4843      0.1830
     11  O5        33.4040   21.5030   28.0840 O.3   843  DK4843     -0.3318
     12  C6        32.2650   19.4230   27.8750 C.3   843  DK4843      0.2142
     13  O6        33.3550   18.7210   27.2680 O.3   843  DK4843     -0.2176
     14  C7        35.5820   23.5700   28.6990 C.2   843  DK4843      0.1222
     15  C8        36.3570   24.2230   29.6550 C.2   843  DK4843      0.2499
     16  F8        37.6930   24.1890   29.5400 F     843  DK4843     -0.1891
     17  C9        35.7440   24.9090   30.7110 C.1   843  DK4843      0.2454
     18  O9        36.4070   25.4970   31.5670 O.2   843  DK4843     -0.2062
     19  C10       33.5580   24.2730   29.8580 C.1   843  DK4843      0.2846
     20  O10       32.3330   24.3060   29.9580 O.2   843  DK4843     -0.1918
@<TRIPOS>BOND
     1     7     6    1
     2     9     8    1
     3     6     8    1
     4     6     3    1
     5     8    10    1
     6     5     3    1
     7     3     1    1
     8    13    12    1
     9    10    12    1
    10    10    11    1
    11     1    11    1
    12     1     2    1
    13    14     2    1
    14    14    15    2
    15     2    19   am
    16    16    15    1
    17    15    17    1
    18    19    20    2
    19    19     4    2
    20    17     4    2
    21    17    18    2
