@<TRIPOS>MOLECULE
3l7d_DK5_A_1.pdb
 26 28 0 0 0
SMALL
GASTEIGER

@<TRIPOS>ATOM
      1  C1        33.5220   23.1290   27.9090 C.3   843  DK5843      0.2092
      2  N1        34.4410   23.7540   28.8990 N.am  843  DK5843     -0.1802
      3  C2        33.7940   23.4130   26.4090 C.3   843  DK5843      0.0899
      4  N2        34.6430   24.8070   31.0200 N.2   843  DK5843     -0.3036
      5  C3        32.8590   22.5810   25.5040 C.3   843  DK5843      0.1979
      6  F3        33.3790   22.4900   24.2340 F     843  DK5843     -0.2343
      7  N3        36.6350   25.5080   31.8950 N.am  843  DK5843     -0.1445
      8  C4        32.6010   21.1530   26.0200 C.3   843  DK5843      0.2139
      9  O4        31.4590   20.6440   25.3200 O.3   843  DK5843     -0.2175
     10  C5        32.3620   21.0750   27.5480 C.3   843  DK5843      0.1828
     11  O5        33.4750   21.7000   28.2340 O.3   843  DK5843     -0.3337
     12  C6        32.2950   19.6070   28.0180 C.3   843  DK5843      0.2142
     13  O6        33.4630   18.9110   27.5450 O.3   843  DK5843     -0.2176
     14  C7        35.8420   23.8310   28.7150 C.2   843  DK5843      0.0835
     15  C8        36.6220   24.4290   29.7170 C.2   843  DK5843      0.0675
     16  C9        35.9780   24.9220   30.8750 C.2   843  DK5843      0.2215
     17  C10       33.8640   24.2450   30.0790 C.1   843  DK5843      0.2755
     18  O10       32.6380   24.1700   30.2400 O.2   843  DK5843     -0.1925
     19  C11       37.9040   25.9590   31.8300 C.2   843  DK5843      0.2711
     20  O11       38.6270   25.8850   30.8320 O.2   843  DK5843     -0.2679
     21  C12       38.4370   26.6060   33.1230 C.ar  843  DK5843      0.0555
     22  C13       39.3810   27.6400   33.0380 C.ar  843  DK5843      0.0046
     23  C14       39.8790   28.2370   34.2010 C.ar  843  DK5843      0.0001
     24  C15       39.4280   27.8100   35.4520 C.ar  843  DK5843      0.0000
     25  C16       38.4810   26.7880   35.5340 C.ar  843  DK5843      0.0001
     26  C17       37.9890   26.1830   34.3730 C.ar  843  DK5843      0.0046
@<TRIPOS>BOND
     1     6     5    1
     2     9     8    1
     3     5     8    1
     4     5     3    1
     5     8    10    1
     6     3     1    1
     7    13    12    1
     8    10    12    1
     9    10    11    1
    10     1    11    1
    11     1     2    1
    12    14     2    1
    13    14    15    2
    14     2    17   am
    15    15    16    1
    16    17    18    2
    17    17     4    2
    18    20    19    2
    19    16     4    2
    20    16     7    1
    21    19     7   am
    22    19    21    1
    23    22    21   ar
    24    22    23   ar
    25    21    26   ar
    26    23    24   ar
    27    26    25   ar
    28    24    25   ar
