@<TRIPOS>MOLECULE
3l7g_M44_A_1.pdb
 11 10 0 0 0
SMALL
GASTEIGER

@<TRIPOS>ATOM
      1  P         17.2560   32.4750    7.6090 P.3   518  M44518      0.4037
      2  C1        15.1320   33.1470    6.2340 C.3   518  M44518      0.0832
      3  N1        16.0490   32.0450    6.5060 N.3   518  M44518     -0.1317
      4  O1        17.0300   31.7010    8.8590 O.3   518  M44518     -0.1351
      5  C2        13.9430   32.9730    7.1620 C.3   518  M44518      0.0194
      6  N2        18.7990   32.1350    6.9920 N.3   518  M44518     -0.1317
      7  O2        17.1850   33.9430    7.9070 O.2   518  M44518     -0.2492
      8  C3        14.6670   33.0990    4.7910 C.3   518  M44518      0.0194
      9  C4        19.1280   32.9400    5.8200 C.3   518  M44518      0.0832
     10  C5        18.9160   32.1040    4.5630 C.3   518  M44518      0.0194
     11  C6        20.5830   33.3700    5.9050 C.3   518  M44518      0.0194
@<TRIPOS>BOND
     1    10     9    1
     2     8     2    1
     3     9    11    1
     4     9     6    1
     5     2     3    1
     6     2     5    1
     7     3     1    1
     8     6     1    1
     9     1     7    2
    10     1     4    1
