@<TRIPOS>MOLECULE
3l7k_C2G_D_1.pdb
 30 31 0 0 0
SMALL
GASTEIGER

@<TRIPOS>ATOM
      1  N1       -71.3970   81.1810    7.8430 N.am  730  C2G730     -0.1778
      2  C2       -71.4970   82.0640    9.0910 C.1   730  C2G730      0.2756
      3  N3       -70.4220   82.0130   10.1260 N.2   730  C2G730     -0.3024
      4  C4       -69.2570   81.1110    9.9590 C.2   730  C2G730      0.2346
      5  C5       -69.1530   80.2370    8.7380 C.2   730  C2G730      0.0687
      6  C6       -70.2430   80.2870    7.7020 C.2   730  C2G730      0.0836
      7  O2       -72.5910   82.9150    9.2740 O.2   730  C2G730     -0.1925
      8  N4       -68.2040   81.0270   10.9530 N.pl3 730  C2G730     -0.0921
      9  C1'      -72.4250   81.1540    6.7900 C.3   730  C2G730      0.2400
     10  C2'      -71.8700   81.6540    5.4450 C.3   730  C2G730      0.2319
     11  O2'      -72.8550   82.3470    4.7190 O.3   730  C2G730     -0.2157
     12  C3'      -71.4380   80.4070    4.7040 C.3   730  C2G730      0.2158
     13  C4'      -72.4020   79.3310    5.2340 C.3   730  C2G730      0.1799
     14  O4'      -72.8230   79.7530    6.5760 O.3   730  C2G730     -0.3320
     15  O3'      -71.5170   80.5690    3.3020 O.3   730  C2G730     -0.2175
     16  C5'      -71.7700   77.9210    5.2980 C.3   730  C2G730      0.1813
     17  O5'      -70.3750   77.9490    5.5180 O.3   730  C2G730     -0.3112
     18  PA       -69.6430   76.5980    6.1570 P.3   730  C2G730      0.2189
     19  O1A      -68.5410   76.9730    7.3370 O.3   730  C2G730     -0.4371
     20  O2A      -68.9680   75.8310    5.1090 O.2   730  C2G730     -0.5170
     21  O3A      -70.8590   75.6930    6.8240 O.3   730  C2G730     -0.2703
     22  PB       -71.3090   74.1940    6.2700 P.3   730  C2G730      0.2189
     23  O1B      -72.7930   73.8940    6.9370 O.3   730  C2G730     -0.4371
     24  O2B      -70.3010   73.2050    6.7010 O.2   730  C2G730     -0.5170
     25  O3B      -71.5090   74.1400    4.6210 O.3   730  C2G730     -0.3111
     26  O1G      -71.8080   73.7800    0.4530 O.3   730  C2G730     -0.2175
     27  C1G      -70.7770   73.4840    1.3470 C.3   730  C2G730      0.2174
     28  C2G      -71.3790   72.8360    2.6050 C.3   730  C2G730      0.2146
     29  O2G      -72.7450   73.1600    2.6970 O.3   730  C2G730     -0.2176
     30  C3G      -70.6190   73.4080    3.8160 C.3   730  C2G730      0.1846
@<TRIPOS>BOND
     1    26    27    1
     2    27    28    1
     3    28    29    1
     4    28    30    1
     5    15    12    1
     6    30    25    1
     7    25    22    1
     8    12    13    1
     9    12    10    1
    10    11    10    1
    11    20    18    2
    12    13    16    1
    13    13    14    1
    14    16    17    1
    15    10     9    1
    16    17    18    1
    17    18    21    1
    18    18    19    1
    19    22    24    2
    20    22    21    1
    21    22    23    1
    22    14     9    1
    23     9     1    1
    24     6     1    1
    25     6     5    2
    26     1     2   am
    27     5     4    1
    28     2     7    2
    29     2     3    2
    30     4     3    2
    31     4     8    1
