@<TRIPOS>MOLECULE
3l7k_EDT_A_1.pdb
 20 19 0 0 0
SMALL
GASTEIGER

@<TRIPOS>ATOM
      1  O20     -117.2660   58.6120   16.4300 O.co2 739  EDT739     -0.2441
      2  C5      -117.1620   58.7140   15.0310 C.2   739  EDT739      0.3809
      3  O19     -117.1200   59.7830   14.5150 O.co2 739  EDT739     -0.2441
      4  C4      -117.3020   57.4580   14.1620 C.3   739  EDT739      0.1882
      5  N3      -118.7230   57.1750   13.9400 N.3   739  EDT739     -0.2524
      6  C2      -119.0100   57.0310   12.5090 C.3   739  EDT739      0.1882
      7  C1      -120.2560   56.1500   12.3370 C.2   739  EDT739      0.3809
      8  O18     -121.0360   56.4150   11.4800 O.co2 739  EDT739     -0.2441
      9  O17     -120.6500   55.3100   13.3930 O.co2 739  EDT739     -0.2441
     10  C6      -119.5500   58.2150   14.5770 C.3   739  EDT739      0.0905
     11  C7      -120.6320   58.8120   13.6500 C.3   739  EDT739      0.0905
     12  N8      -120.7130   60.2800   13.7950 N.3   739  EDT739     -0.2524
     13  C9      -120.5810   60.6960   15.1960 C.3   739  EDT739      0.1882
     14  C10     -121.5710   59.9420   16.0900 C.2   739  EDT739      0.3809
     15  O16     -121.0780   59.2570   17.2140 O.co2 739  EDT739     -0.2441
     16  O15     -122.7400   60.1270   15.9650 O.co2 739  EDT739     -0.2441
     17  C11     -121.9390   60.8280   13.1890 C.3   739  EDT739      0.1882
     18  C12     -122.2680   62.2080   13.7770 C.2   739  EDT739      0.3809
     19  O13     -121.5060   63.1100   13.6450 O.co2 739  EDT739     -0.2441
     20  O14     -123.5810   62.4690   14.1970 O.co2 739  EDT739     -0.2441
@<TRIPOS>BOND
     1     8     7   ar
     2     7     6    1
     3     7     9   ar
     4     6     5    1
     5    17    18    1
     6    17    12    1
     7    19    18   ar
     8    11    12    1
     9    11    10    1
    10    18    20   ar
    11    12    13    1
    12     5     4    1
    13     5    10    1
    14     4     2    1
    15     3     2   ar
    16     2     1   ar
    17    13    14    1
    18    16    14   ar
    19    14    15   ar
