@<TRIPOS>MOLECULE
3l7l_C2G_D_1.pdb
 30 31 0 0 0
SMALL
GASTEIGER

@<TRIPOS>ATOM
      1  N1       -71.8140   81.3670    7.8020 N.am  730  C2G730     -0.1778
      2  C2       -71.8220   82.4630    8.8870 C.1   730  C2G730      0.2756
      3  N3       -70.7730   82.4700    9.9530 N.2   730  C2G730     -0.3024
      4  C4       -69.7140   81.4300    9.9900 C.2   730  C2G730      0.2346
      5  C5       -69.6990   80.3540    8.9350 C.2   730  C2G730      0.0687
      6  C6       -70.7590   80.3440    7.8620 C.2   730  C2G730      0.0836
      7  O2       -72.8020   83.4610    8.9120 O.2   730  C2G730     -0.1925
      8  N4       -68.6940   81.4080   11.0210 N.pl3 730  C2G730     -0.0921
      9  C1'      -72.8040   81.2650    6.7040 C.3   730  C2G730      0.2400
     10  C2'      -72.1830   81.6750    5.3520 C.3   730  C2G730      0.2319
     11  O2'      -73.0460   82.4780    4.5720 O.3   730  C2G730     -0.2157
     12  C3'      -71.8120   80.3780    4.6590 C.3   730  C2G730      0.2158
     13  C4'      -72.7710   79.3360    5.2530 C.3   730  C2G730      0.1799
     14  O4'      -73.2210   79.8550    6.5520 O.3   730  C2G730     -0.3320
     15  O3'      -71.8800   80.4520    3.2480 O.3   730  C2G730     -0.2175
     16  C5'      -72.0830   77.9640    5.4410 C.3   730  C2G730      0.1813
     17  O5'      -70.6920   78.0560    5.6890 O.3   730  C2G730     -0.3112
     18  PA       -69.9240   76.8380    6.5360 P.3   730  C2G730      0.2189
     19  O1A      -69.0190   77.4320    7.7870 O.3   730  C2G730     -0.4371
     20  O2A      -69.0660   76.0070    5.6780 O.2   730  C2G730     -0.5170
     21  O3A      -71.1360   75.9140    7.1770 O.3   730  C2G730     -0.2703
     22  PB       -71.8080   74.6420    6.3580 P.3   730  C2G730      0.2189
     23  O1B      -73.4090   74.5930    6.7790 O.3   730  C2G730     -0.4371
     24  O2B      -71.0980   73.4150    6.7420 O.2   730  C2G730     -0.5170
     25  O3B      -71.7110   74.8340    4.7110 O.3   730  C2G730     -0.3111
     26  O1G      -72.1020   73.6310    0.5890 O.3   730  C2G730     -0.2175
     27  C1G      -71.0650   73.9270    1.4740 C.3   730  C2G730      0.2174
     28  C2G      -71.4970   73.3670    2.8330 C.3   730  C2G730      0.2146
     29  O2G      -72.8830   73.5520    2.9380 O.3   730  C2G730     -0.2176
     30  C3G      -70.7620   74.1330    3.9470 C.3   730  C2G730      0.1846
@<TRIPOS>BOND
     1    26    27    1
     2    27    28    1
     3    28    29    1
     4    28    30    1
     5    15    12    1
     6    30    25    1
     7    11    10    1
     8    12    13    1
     9    12    10    1
    10    25    22    1
    11    13    16    1
    12    13    14    1
    13    10     9    1
    14    16    17    1
    15    20    18    2
    16    17    18    1
    17    22    24    2
    18    22    23    1
    19    22    21    1
    20    18    21    1
    21    18    19    1
    22    14     9    1
    23     9     1    1
    24     1     6    1
    25     1     2   am
    26     6     5    2
    27     2     7    2
    28     2     3    2
    29     5     4    1
    30     3     4    2
    31     4     8    1
