@<TRIPOS>MOLECULE
3l7m_EDT_A_1.pdb
 20 19 0 0 0
SMALL
GASTEIGER

@<TRIPOS>ATOM
      1  O20     -117.9670   58.2200   15.8910 O.co2 738  EDT738     -0.2441
      2  C5      -118.1380   58.7040   14.5870 C.2   738  EDT738      0.3809
      3  O19     -118.2400   59.8780   14.4170 O.co2 738  EDT738     -0.2441
      4  C4      -118.5110   57.7160   13.4700 C.3   738  EDT738      0.1882
      5  N3      -119.9320   57.3450   13.5850 N.3   738  EDT738     -0.2524
      6  C2      -120.6160   57.3420   12.2840 C.3   738  EDT738      0.1882
      7  C1      -121.9720   56.6240   12.4060 C.2   738  EDT738      0.3809
      8  O18     -122.8790   56.9790   11.7300 O.co2 738  EDT738     -0.2441
      9  O17     -122.2290   55.8120   13.5210 O.co2 738  EDT738     -0.2441
     10  C6      -120.6120   58.2270   14.5450 C.3   738  EDT738      0.0905
     11  C7      -121.7760   59.0290   13.9250 C.3   738  EDT738      0.0905
     12  N8      -121.7190   60.4480   14.3270 N.3   738  EDT738     -0.2524
     13  C9      -121.5550   60.6260   15.7790 C.3   738  EDT738      0.1882
     14  C10     -122.1180   59.4680   16.6160 C.2   738  EDT738      0.3809
     15  O16     -121.3290   58.9330   17.6510 O.co2 738  EDT738     -0.2441
     16  O15     -123.1820   59.0040   16.3690 O.co2 738  EDT738     -0.2441
     17  C11     -122.8790   61.2130   13.8200 C.3   738  EDT738      0.1882
     18  C12     -122.7650   62.7200   14.1380 C.2   738  EDT738      0.3809
     19  O13     -122.3180   63.4820   13.3340 O.co2 738  EDT738     -0.2441
     20  O14     -123.5300   63.2400   15.1930 O.co2 738  EDT738     -0.2441
@<TRIPOS>BOND
     1     8     7   ar
     2     6     7    1
     3     6     5    1
     4     7     9   ar
     5    19    18   ar
     6     4     5    1
     7     4     2    1
     8     5    10    1
     9    17    18    1
    10    17    12    1
    11    11    12    1
    12    11    10    1
    13    18    20   ar
    14    12    13    1
    15     3     2   ar
    16     2     1   ar
    17    13    14    1
    18    16    14   ar
    19    14    15   ar
