@<TRIPOS>MOLECULE
3l85_8OG_A_1.pdb
 24 26 0 0 0
SMALL
GASTEIGER

@<TRIPOS>ATOM
      1  OP3      -24.6080   17.9710   71.8360 O.3     1  8OG1       -0.1145
      2  P        -23.9240   19.2060   71.0140 P.3     1  8OG1        0.5327
      3  OP1      -24.9590   20.2490   70.8080 O.3     1  8OG1       -0.1145
      4  OP2      -23.2080   18.6800   69.8150 O.2     1  8OG1       -0.2224
      5  O5'      -22.8870   19.6880   72.1260 O.3     1  8OG1       -0.2675
      6  C5'      -23.3500   20.3280   73.3340 C.3     1  8OG1        0.1858
      7  C4'      -22.9380   19.4730   74.5170 C.3     1  8OG1        0.1774
      8  O4'      -21.6780   19.9280   75.0650 O.3     1  8OG1       -0.3338
      9  C3'      -23.8930   19.5190   75.6960 C.3     1  8OG1        0.1857
     10  O3'      -24.9410   18.5860   75.4640 O.3     1  8OG1       -0.2203
     11  C2'      -22.9860   19.0110   76.8050 C.3     1  8OG1        0.0875
     12  C1'      -21.6690   19.6920   76.4720 C.3     1  8OG1        0.2114
     13  N9       -21.4250   20.9660   77.1850 N.am    1  8OG1       -0.1521
     14  C8       -22.3210   21.8370   77.7740 C.1     1  8OG1        0.2771
     15  N7       -21.7240   22.8640   78.3190 N.2     1  8OG1       -0.3037
     16  C5       -20.3720   22.6650   78.0840 C.2     1  8OG1        0.2850
     17  C6       -19.2560   23.4540   78.4460 C.1     1  8OG1        0.2509
     18  O6       -19.2500   24.5250   79.0700 O.2     1  8OG1       -0.2058
     19  N1       -18.0580   22.8860   78.0100 N.2     1  8OG1       -0.2475
     20  C2       -17.9580   21.7030   77.3130 C.1     1  8OG1        0.2532
     21  N2       -16.7200   21.3100   76.9740 N.pl3   1  8OG1       -0.0226
     22  N3       -19.0000   20.9560   76.9700 N.2     1  8OG1       -0.3052
     23  C4       -20.1710   21.4990   77.3870 C.2     1  8OG1        0.2558
     24  O8       -23.5450   21.7160   77.8110 O.2     1  8OG1       -0.1925
@<TRIPOS>BOND
     1     4     2    2
     2     3     2    1
     3     2     1    1
     4     2     5    1
     5     5     6    1
     6     6     7    1
     7     7     8    1
     8     7     9    1
     9     8    12    1
    10    10     9    1
    11     9    11    1
    12    12    11    1
    13    12    13    1
    14    22    20    2
    15    22    23    2
    16    21    20    1
    17    13    23    1
    18    13    14   am
    19    20    19    2
    20    23    16    1
    21    14    24    2
    22    14    15    2
    23    19    17    2
    24    16    15    2
    25    16    17    1
    26    17    18    2
