@<TRIPOS>MOLECULE
3l86_ADP_A_1.pdb
 27 29 0 0 0
SMALL
GASTEIGER

@<TRIPOS>ATOM
      1  PB        32.9600    6.7200   30.7350 P.3   246  ADP246      0.5373
      2  O1B       34.1360    7.4520   30.1550 O.2   246  ADP246     -0.2221
      3  O2B       32.9430    6.6270   32.2670 O.3   246  ADP246     -0.1143
      4  O3B       31.6760    7.2740   30.2260 O.3   246  ADP246     -0.1143
      5  PA        33.6530    4.5080   28.8600 P.3   246  ADP246      0.2231
      6  O1A       32.6950    3.4880   28.2580 O.3   246  ADP246     -0.4370
      7  O2A       34.2080    5.5510   27.9320 O.2   246  ADP246     -0.5169
      8  O3A       32.9950    5.1800   30.2190 O.3   246  ADP246     -0.2261
      9  O5'       34.8380    3.6090   29.4920 O.3   246  ADP246     -0.3111
     10  C5'       34.5030    2.6090   30.4870 C.3   246  ADP246      0.1813
     11  C4'       34.3480    1.2300   29.7800 C.3   246  ADP246      0.1821
     12  O4'       35.5850    0.6850   29.2750 O.3   246  ADP246     -0.3135
     13  C3'       33.7960    0.1160   30.6830 C.3   246  ADP246      0.2184
     14  O3'       32.3830    0.2720   30.7620 O.3   246  ADP246     -0.2174
     15  C2'       34.1350   -1.1530   29.9110 C.3   246  ADP246      0.2570
     16  O2'       33.0390   -1.4030   29.0390 O.3   246  ADP246     -0.2130
     17  C1'       35.2860   -0.7290   29.0010 C.3   246  ADP246      0.3186
     18  N9        36.5100   -1.5260   29.2820 N.pl3 246  ADP246     -0.1439
     19  C8        37.3150   -2.0280   28.3020 C.3   246  ADP246      0.3377
     20  N7        38.3720   -2.6720   28.8650 N.2   246  ADP246     -0.2095
     21  C5        38.2140   -2.6030   30.2100 C.2   246  ADP246      0.2526
     22  C6        38.9260   -3.1010   31.3830 C.2   246  ADP246      0.4393
     23  N6        40.1050   -3.7650   31.2480 N.pl3 246  ADP246      0.2180
     24  N1        38.4490   -2.7980   32.6220 N.2   246  ADP246      0.0021
     25  C2        37.3260   -2.1180   32.7900 C.3   246  ADP246      0.5254
     26  N3        36.6160   -1.6380   31.7690 N.2   246  ADP246     -0.0055
     27  C4        36.9900   -1.8570   30.4730 C.2   246  ADP246      0.3518
@<TRIPOS>BOND
     1     7     5    2
     2     6     5    1
     3    19    20    1
     4    19    18    1
     5     5     9    1
     6     5     8    1
     7    20    21    2
     8    17    12    1
     9    17    18    1
    10    17    15    1
    11    16    15    1
    12    12    11    1
    13    18    27    1
    14     9    10    1
    15    11    10    1
    16    11    13    1
    17    15    13    1
    18     2     1    2
    19    21    27    1
    20    21    22    1
    21     8     1    1
    22     4     1    1
    23    27    26    2
    24    13    14    1
    25     1     3    1
    26    23    22    1
    27    22    24    2
    28    26    25    1
    29    24    25    1
