@<TRIPOS>MOLECULE
3l86_NLG_A_1.pdb
 13 12 0 0 0
SMALL
GASTEIGER

@<TRIPOS>ATOM
      1  CA        34.1590   12.4840   23.4990 C.3   247  NLG247      0.1983
      2  C         35.1040   12.3620   22.4450 C.2   247  NLG247      0.3842
      3  OXT       35.3380   11.3280   21.8100 O.co2 247  NLG247     -0.2437
      4  O         35.9310   13.0610   21.9880 O.co2 247  NLG247     -0.2437
      5  CB        33.5110   13.4550   24.5020 C.3   247  NLG247      0.0451
      6  CG        32.5560   12.9380   25.6560 C.3   247  NLG247      0.1164
      7  CD        32.9920   11.9020   26.7770 C.2   247  NLG247      0.3649
      8  OE1       34.1650   11.7070   26.9140 O.co2 247  NLG247     -0.2457
      9  OE2       32.2040   11.2600   27.4910 O.co2 247  NLG247     -0.2457
     10  C7        32.2200   11.2980   22.9140 C.2   247  NLG247      0.2423
     11  C8        31.5290   10.3720   23.2660 C.3   247  NLG247      0.0964
     12  O7        32.0450   12.0360   21.9750 O.2   247  NLG247     -0.2733
     13  N2        33.2910   11.5930   23.5450 N.am  247  NLG247     -0.1956
@<TRIPOS>BOND
     1     3     2   ar
     2    12    10    2
     3     4     2   ar
     4     2     1    1
     5    10    11    1
     6    10    13   am
     7     1    13    1
     8     1     5    1
     9     5     6    1
    10     6     7    1
    11     7     8   ar
    12     7     9   ar
