@<TRIPOS>MOLECULE
3l8a_PLP_A_1.pdb
 15 15 0 0 0
SMALL
GASTEIGER

@<TRIPOS>ATOM
      1  N1         7.8640    1.9780   17.2130 N.2   388  PLP388     -0.2505
      2  C2         8.4750    2.0730   15.9850 C.2   388  PLP388      0.0675
      3  C2A        9.2350    0.8950   15.4570 C.3   388  PLP388      0.0499
      4  C3         8.3800    3.2400   15.2410 C.3   388  PLP388      0.1913
      5  O3         8.9910    3.3320   14.0190 O.3   388  PLP388     -0.2167
      6  C4         7.6550    4.3100   15.7520 C.3   388  PLP388      0.0581
      7  C4A        6.8940    5.1710   14.8060 C.3   388  PLP388      0.0075
      8  C5         7.0670    4.2010   17.0030 C.2   388  PLP388      0.0073
      9  C6         7.1560    3.0340   17.7310 C.2   388  PLP388      0.0921
     10  C5A        6.3100    5.3680   17.5810 C.3   388  PLP388      0.1776
     11  O4P        5.0110    5.4360   17.0890 O.3   388  PLP388     -0.2656
     12  P          4.0040    6.3650   17.9200 P.3   388  PLP388      0.5329
     13  O1P        3.8030    7.6050   17.0870 O.2   388  PLP388     -0.2224
     14  O2P        4.5830    6.6730   19.2790 O.3   388  PLP388     -0.1145
     15  O3P        2.7410    5.5840   18.1260 O.3   388  PLP388     -0.1145
@<TRIPOS>BOND
     1     5     4    1
     2     7     6    1
     3     4     6    1
     4     4     2    1
     5     3     2    1
     6     6     8    1
     7     2     1    2
     8     8    10    1
     9     8     9    2
    10    13    12    2
    11    11    10    1
    12    11    12    1
    13     1     9    1
    14    12    15    1
    15    12    14    1
