@<TRIPOS>MOLECULE
3l8g_GMB_A_1.pdb
 22 22 0 0 0
SMALL
GASTEIGER

@<TRIPOS>ATOM
      1  C1       -12.9650    1.0410  -24.3400 C.3   3523  GMB3523     0.2781
      2  O1       -11.8770    0.2340  -24.6540 O.3   3523  GMB3523    -0.2416
      3  P1       -10.4510    0.5650  -24.3170 P.3   3523  GMB3523     0.5346
      4  C2       -14.3340    0.3630  -24.5080 C.3   3523  GMB3523     0.2410
      5  O2       -14.5730   -0.8440  -23.7800 O.3   3523  GMB3523    -0.2149
      6  P2       -13.0220    5.8720  -19.5000 P.3   3523  GMB3523     0.5327
      7  C3       -15.4760    1.3740  -24.4790 C.3   3523  GMB3523     0.2198
      8  O3       -16.7760    0.8560  -24.7370 O.3   3523  GMB3523    -0.2174
      9  C4       -15.3350    1.8840  -23.0610 C.3   3523  GMB3523     0.2144
     10  O4       -16.4220    2.6390  -22.5640 O.3   3523  GMB3523    -0.2176
     11  C5       -13.9940    2.5930  -23.0160 C.3   3523  GMB3523     0.1834
     12  O5       -12.9570    1.6130  -23.0300 O.3   3523  GMB3523    -0.3253
     13  C6       -14.0140    3.4380  -21.7610 C.3   3523  GMB3523     0.2116
     14  O6       -14.2370    2.6510  -20.5850 O.3   3523  GMB3523    -0.2177
     15  C7       -12.9500    4.5120  -21.6380 C.3   3523  GMB3523     0.1891
     16  O7       -13.3200    5.7150  -20.9580 O.3   3523  GMB3523    -0.2674
     17  OP1      -10.1310    2.0110  -24.5180 O.3   3523  GMB3523    -0.1145
     18  OP2      -10.2540    0.1900  -22.8830 O.3   3523  GMB3523    -0.1145
     19  OP3       -9.5530   -0.2560  -25.1740 O.2   3523  GMB3523    -0.2223
     20  OP4      -13.4800    4.6390  -18.8140 O.3   3523  GMB3523    -0.1145
     21  OP5      -11.5610    6.0590  -19.2720 O.2   3523  GMB3523    -0.2224
     22  OP6      -13.8050    7.0400  -18.9720 O.3   3523  GMB3523    -0.1145
@<TRIPOS>BOND
     1    19     3    2
     2     8     7    1
     3     2     1    1
     4     2     3    1
     5    17     3    1
     6     4     7    1
     7     4     1    1
     8     4     5    1
     9     7     9    1
    10     1    12    1
    11     3    18    1
    12     9    11    1
    13     9    10    1
    14    12    11    1
    15    11    13    1
    16    13    15    1
    17    13    14    1
    18    15    16    1
    19    16     6    1
    20     6    21    2
    21     6    22    1
    22     6    20    1
