@<TRIPOS>MOLECULE
3l8h_FX1_C_1.pdb
 12 12 0 0 0
SMALL
GASTEIGER

@<TRIPOS>ATOM
      1  C1         9.1200  -31.5700  -13.5960 C.3   2006  FX12006     0.2438
      2  O1        10.1370  -31.6870  -12.5970 O.3   2006  FX12006    -0.2147
      3  C2         9.0510  -32.2820  -14.9510 C.3   2006  FX12006     0.2854
      4  O2         8.5860  -31.3870  -15.9740 O.3   2006  FX12006    -0.1892
      5  C3         8.0760  -33.4340  -14.8400 C.3   2006  FX12006     0.2673
      6  O3         6.7850  -33.0560  -15.3370 O.3   2006  FX12006    -0.2095
      7  C4         8.7610  -34.5100  -15.6230 C.2   2006  FX12006     0.2154
      8  O4         8.1690  -35.1010  -16.5030 O.2   2006  FX12006    -0.2906
      9  C5        10.2080  -34.1890  -15.7960 C.3   2006  FX12006     0.2102
     10  O5        10.3180  -32.8130  -15.3990 O.3   2006  FX12006    -0.3201
     11  C6        10.6360  -34.3850  -17.2550 C.3   2006  FX12006     0.2192
     12  O6         9.6230  -34.0100  -18.2100 O.3   2006  FX12006    -0.2172
@<TRIPOS>BOND
     1    12    11    1
     2    11     9    1
     3     8     7    2
     4     4     3    1
     5     9     7    1
     6     9    10    1
     7     7     5    1
     8    10     3    1
     9     6     5    1
    10     3     5    1
    11     3     1    1
    12     1     2    1
