@<TRIPOS>MOLECULE
3l8k_ADP_A_1.pdb
 27 29 0 0 0
SMALL
GASTEIGER

@<TRIPOS>ATOM
      1  PB        -0.6500   57.2570   19.1880 P.3   465  ADP465      0.5373
      2  O1B       -1.5240   56.4170   20.1040 O.3   465  ADP465     -0.1143
      3  O2B       -0.7020   58.7350   19.3420 O.3   465  ADP465     -0.1143
      4  O3B        0.7780   56.7350   19.0490 O.2   465  ADP465     -0.2221
      5  PA        -1.7060   55.9300   16.8240 P.3   465  ADP465      0.2231
      6  O1A       -0.8010   54.7630   17.1520 O.3   465  ADP465     -0.4370
      7  O2A       -1.7990   56.4820   15.4070 O.2   465  ADP465     -0.5169
      8  O3A       -1.3360   57.2260   17.7350 O.3   465  ADP465     -0.2261
      9  O5'       -3.2040   55.5120   17.2410 O.3   465  ADP465     -0.3111
     10  C5'       -4.2830   56.4290   17.2150 C.3   465  ADP465      0.1813
     11  C4'       -5.5990   55.6740   17.1690 C.3   465  ADP465      0.1821
     12  O4'       -6.6730   56.6180   17.1960 O.3   465  ADP465     -0.3135
     13  C3'       -5.7500   54.8690   15.8850 C.3   465  ADP465      0.2184
     14  O3'       -5.8570   53.4960   16.2590 O.3   465  ADP465     -0.2174
     15  C2'       -7.0010   55.4280   15.1820 C.3   465  ADP465      0.2570
     16  O2'       -7.8760   54.4320   14.6310 O.3   465  ADP465     -0.2130
     17  C1'       -7.6980   56.1530   16.3170 C.3   465  ADP465      0.3186
     18  N9        -8.5790   57.2810   15.9490 N.pl3 465  ADP465     -0.1439
     19  C8        -8.3670   58.2780   15.0460 C.3   465  ADP465      0.3377
     20  N7        -9.4270   59.1250   15.0370 N.2   465  ADP465     -0.2095
     21  C5       -10.3340   58.6610   15.9510 C.2   465  ADP465      0.2526
     22  C6       -11.6940   59.0280   16.4550 C.2   465  ADP465      0.4393
     23  N6       -12.3550   60.1140   16.0180 N.pl3 465  ADP465      0.2180
     24  N1       -12.2660   58.2380   17.3950 N.2   465  ADP465      0.0021
     25  C2       -11.6650   57.1450   17.8970 C.3   465  ADP465      0.5254
     26  N3       -10.4480   56.7530   17.4690 N.2   465  ADP465     -0.0055
     27  C4        -9.7650   57.4430   16.5320 C.2   465  ADP465      0.3518
@<TRIPOS>BOND
     1    16    15    1
     2    20    19    1
     3    20    21    2
     4    19    18    1
     5    15    13    1
     6    15    17    1
     7     7     5    2
     8    13    14    1
     9    13    11    1
    10    18    17    1
    11    18    27    1
    12    21    22    1
    13    21    27    1
    14    23    22    1
    15    17    12    1
    16    22    24    2
    17    27    26    2
    18     5     6    1
    19     5     9    1
    20     5     8    1
    21    11    12    1
    22    11    10    1
    23    10     9    1
    24    24    25    1
    25    26    25    1
    26     8     1    1
    27     4     1    2
    28     1     3    1
    29     1     2    1
