@<TRIPOS>MOLECULE
3l8p_0CE_A_1.pdb
 34 40 0 0 0
SMALL
GASTEIGER

@<TRIPOS>ATOM
      1  C1        18.5930   73.6800   41.1430 C.ar  2207  0CE2207     0.0155
      2  N1        12.4770   75.3710   42.2030 N.ar  2207  0CE2207    -0.1736
      3  O1        16.7930   78.0550   42.0270 O.2   2207  0CE2207    -0.2222
      4  C2        17.4210   72.8570   41.0900 C.ar  2207  0CE2207     0.0556
      5  N2        12.8270   76.6560   42.0250 N.ar  2207  0CE2207    -0.2477
      6  O2        23.8280   72.3800   39.0110 O.3   2207  0CE2207    -0.3519
      7  C3        16.1200   73.4790   41.3140 C.ar  2207  0CE2207    -0.0052
      8  N3        18.9090   77.3270   41.7420 N.2   2207  0CE2207    -0.1976
      9  C4        16.0380   74.9230   41.5700 C.ar  2207  0CE2207     0.0108
     10  N4        17.7850   71.5150   40.8190 N.ar  2207  0CE2207    -0.3293
     11  C5        14.6250   75.5110   41.7880 C.ar  2207  0CE2207     0.0344
     12  C6        13.4900   74.6340   42.0790 C.ar  2207  0CE2207     0.0804
     13  C7        14.1050   76.7490   41.7770 C.ar  2207  0CE2207     0.0963
     14  C8        11.9020   77.7730   42.1030 C.3   2207  0CE2207     0.1537
     15  C9        13.6110   73.1450   42.1910 C.3   2207  0CE2207     0.0524
     16  C10       14.7820   72.6620   41.2800 C.3   2207  0CE2207     0.0342
     17  C11       17.2500   75.6870   41.6030 C.ar  2207  0CE2207     0.0806
     18  C12       18.5170   75.0870   41.3970 C.ar  2207  0CE2207     0.0153
     19  C13       19.6500   76.1110   41.4810 C.3   2207  0CE2207     0.1650
     20  C14       17.5920   77.1530   41.8170 C.1   2207  0CE2207     0.1501
     21  C15       17.1830   70.5250   39.8530 C.3   2207  0CE2207     0.0856
     22  C16       16.2460   69.4630   40.4940 C.3   2207  0CE2207     0.0245
     23  C17       16.4840   71.1790   38.6170 C.3   2207  0CE2207     0.0245
     24  C18       19.1590   71.5570   40.7090 C.ar  2207  0CE2207     0.0598
     25  C19       19.6940   72.8480   40.8960 C.ar  2207  0CE2207     0.0167
     26  C20       21.1020   73.0860   40.8130 C.ar  2207  0CE2207    -0.0005
     27  C21       21.9800   71.9800   40.5320 C.ar  2207  0CE2207     0.0046
     28  C22       23.5040   72.1080   40.4050 C.3   2207  0CE2207     0.1374
     29  C23       24.2180   73.1800   41.2910 C.3   2207  0CE2207     0.0342
     30  C24       25.7500   73.1220   41.0420 C.3   2207  0CE2207     0.0054
     31  C25       26.0430   73.3700   39.5340 C.3   2207  0CE2207     0.0322
     32  C26       25.2450   72.3310   38.6880 C.3   2207  0CE2207     0.1425
     33  C27       21.4340   70.6870   40.3470 C.ar  2207  0CE2207    -0.0005
     34  C28       20.0420   70.4520   40.4310 C.ar  2207  0CE2207     0.0169
@<TRIPOS>BOND
     1    23    21    1
     2    32     6    1
     3    32    31    1
     4     6    28    1
     5    31    30    1
     6    21    22    1
     7    21    10    1
     8    33    34   ar
     9    33    27   ar
    10    28    27    1
    11    28    29    1
    12    34    24   ar
    13    27    26   ar
    14    24    10   ar
    15    24    25   ar
    16    26    25   ar
    17    10     4   ar
    18    25     1   ar
    19    30    29    1
    20     4     1   ar
    21     4     7   ar
    22     1    18   ar
    23    16     7    1
    24    16    15    1
    25     7     9   ar
    26    18    19    1
    27    18    17   ar
    28    19     8    1
    29     9    17   ar
    30     9    11    1
    31    17    20    1
    32     8    20    2
    33    13    11   ar
    34    13     5   ar
    35    11    12   ar
    36    20     3    2
    37     5    14    1
    38     5     2   ar
    39    12    15    1
    40    12     2   ar
