@<TRIPOS>MOLECULE
3l8s_BFF_A_1.pdb
 32 34 0 0 0
SMALL
GASTEIGER

@<TRIPOS>ATOM
      1  NAA       21.0140    0.4760  -24.5220 N.am  361  BFF361     -0.0870
      2  OAB       21.7430    2.2140  -25.7390 O.2   361  BFF361     -0.2707
      3  OAC       22.0450    6.6060  -23.3770 O.2   361  BFF361     -0.2488
      4  FAD       25.4300   -0.9600  -21.2410 F     361  BFF361     -0.2043
      5  FAE       20.8170   -1.7580  -20.1020 F     361  BFF361     -0.2043
      6 BRAF       24.0190   -5.8240  -21.2030 Br    361  BFF361     -0.0489
      7  CAG       24.6160   -3.1200  -21.1680 C.ar  361  BFF361      0.0363
      8  CAH       22.3110   -3.5770  -20.5800 C.ar  361  BFF361      0.0363
      9  CAI       20.0580    8.6420  -24.7530 C.3   361  BFF361      0.0249
     10  CAJ       18.5940    8.2010  -25.0460 C.3   361  BFF361      0.0191
     11  CAK       17.1380    3.8590  -23.9630 C.3   361  BFF361      0.0188
     12  CAL       18.2980    3.9160  -22.9800 C.3   361  BFF361      0.0188
     13  CAM       21.1230    8.0130  -25.6970 C.3   361  BFF361      0.1169
     14  CAN       17.8800    7.5050  -23.8640 C.3   361  BFF361      0.0721
     15  CAO       16.8160    5.3340  -24.2640 C.3   361  BFF361      0.0721
     16  CAP       18.4430    5.4190  -22.6930 C.3   361  BFF361      0.0721
     17  CAQ       22.8840    0.0270  -20.5690 C.3   361  BFF361      0.2379
     18  NAR       22.5210    2.7940  -21.1080 N.2   361  BFF361     -0.1760
     19  NAS       21.1840    6.5510  -25.4750 N.am  361  BFF361     -0.1869
     20  NAT       21.5190    4.6260  -24.3330 N.am  361  BFF361     -0.1564
     21  OAU       22.4380    0.5340  -21.8790 O.2   361  BFF361     -0.4571
     22  SAV       22.2460    4.3050  -21.7380 S.3   361  BFF361      0.0293
     23  CAW       21.5810    1.6750  -24.6480 C.2   361  BFF361      0.2753
     24  CAX       21.6100    5.9640  -24.3410 C.2   361  BFF361      0.3437
     25  CAY       23.5880   -4.0060  -20.9450 C.ar  361  BFF361      0.0390
     26  CAZ       24.3840   -1.7750  -21.0240 C.ar  361  BFF361      0.1423
     27  CBA       22.0590   -2.2090  -20.4400 C.ar  361  BFF361      0.1423
     28  CBB       22.3010    1.8880  -22.0870 C.2   361  BFF361      0.2217
     29  CBC       23.1190   -1.3170  -20.6480 C.ar  361  BFF361      0.0761
     30  CBD       21.8620    3.8330  -23.3070 C.2   361  BFF361      0.1170
     31  CBE       21.9190    2.4410  -23.3410 C.3   361  BFF361      0.2011
     32  NBF       18.0620    6.0400  -23.9680 N.3   361  BFF361     -0.2727
@<TRIPOS>BOND
     1     2    23    2
     2    13    19    1
     3    13     9    1
     4    19    24   am
     5    10     9    1
     6    10    14    1
     7    23     1   am
     8    23    31    1
     9    24    20    1
    10    24     3    2
    11    20    30    2
    12    15    32    1
    13    15    11    1
    14    32    14    1
    15    32    16    1
    16    11    12    1
    17    31    30    1
    18    31    28    1
    19    30    22    1
    20    12    16    1
    21    28    21    1
    22    28    18    2
    23    21    17    1
    24    22    18    1
    25     4    26    1
    26     6    25    1
    27     7    26   ar
    28     7    25   ar
    29    26    29   ar
    30    25     8   ar
    31    29    17    1
    32    29    27   ar
    33     8    27   ar
    34    27     5    1
