@<TRIPOS>MOLECULE
3l8v_L8V_A_1.pdb
 33 36 0 0 0
SMALL
GASTEIGER

@<TRIPOS>ATOM
      1  N1        -1.0800   12.6670   59.4050 N.ar    1  L8V1       -0.2257
      2  C2         0.1640   13.1890   59.4510 C.ar    1  L8V1        0.1728
      3  C3         1.1450   12.7510   58.5530 C.ar    1  L8V1        0.0751
      4  C4         0.7660   11.7540   57.6200 C.ar    1  L8V1        0.1499
      5  O5         1.7840   11.3410   56.7350 O.3     1  L8V1       -0.4511
      6  C6         1.6480   10.1220   56.0550 C.ar    1  L8V1        0.1726
      7  C7         1.8910    8.8670   56.6850 C.ar    1  L8V1        0.0412
      8  C8         1.7390    7.6710   55.9570 C.ar    1  L8V1        0.0198
      9  C9         1.3510    7.7180   54.6080 C.ar    1  L8V1        0.0746
     10  C10        1.1130    8.9410   53.9780 C.ar    1  L8V1        0.0493
     11  C11        1.2610   10.1180   54.7060 C.ar    1  L8V1        0.1757
     12  F12        1.0220   11.2600   54.0730 F       1  L8V1       -0.2009
     13  N13        1.2300    6.5300   53.9840 N.pl3   1  L8V1       -0.1939
     14  C14        0.8820    6.1930   52.7140 C.ar    1  L8V1        0.1561
     15  C15        0.4760    4.8700   52.4940 C.ar    1  L8V1        0.0887
     16  C16        0.1210    4.5360   51.1730 C.ar    1  L8V1        0.0090
     17  C17        0.1570    5.4470   50.1170 C.ar    1  L8V1        0.0209
     18  C18        0.5750    6.7420   50.4390 C.ar    1  L8V1        0.1004
     19  N19        0.9260    7.1010   51.7000 N.ar    1  L8V1       -0.2272
     20  C20        0.4260    3.8780   53.5830 C.2     1  L8V1        0.2718
     21  O21        0.6860    4.1310   54.7620 O.2     1  L8V1       -0.2679
     22  N22        0.0680    2.6320   53.2070 N.am    1  L8V1       -0.1731
     23  C23       -0.0170    1.6110   54.1220 C.ar    1  L8V1        0.1012
     24  C24       -1.0350    1.5510   55.1340 C.ar    1  L8V1        0.0212
     25  C25       -1.0530    0.4560   56.0480 C.ar    1  L8V1        0.0311
     26  C26       -0.0510   -0.5530   55.9240 C.ar    1  L8V1        0.1425
     27  C27        0.9430   -0.5190   54.9570 C.ar    1  L8V1        0.0606
     28  C28        0.9430    0.5620   54.0720 C.ar    1  L8V1        0.1576
     29  F29        0.0090   -1.6100   56.7300 F       1  L8V1       -0.2041
     30  C30       -1.4470   11.7160   58.5190 C.ar    1  L8V1        0.1036
     31  C31       -0.5540   11.2180   57.5930 C.ar    1  L8V1        0.0582
     32  F32        1.9090    0.5700   53.1520 F       1  L8V1       -0.2027
     33  N33        0.3990   14.1410   60.3990 N.pl3   1  L8V1       -0.1071
@<TRIPOS>BOND
     1    17    18   ar
     2    17    16   ar
     3    18    19   ar
     4    16    15   ar
     5    19    14   ar
     6    15    14   ar
     7    15    20    1
     8    14    13    1
     9    32    28    1
    10    22    20   am
    11    22    23    1
    12    20    21    2
    13    10     9   ar
    14    10    11   ar
    15    13     9    1
    16    28    23   ar
    17    28    27   ar
    18    12    11    1
    19    23    24   ar
    20     9     8   ar
    21    11     6   ar
    22    27    26   ar
    23    24    25   ar
    24    26    25   ar
    25    26    29    1
    26     8     7   ar
    27     6     7   ar
    28     6     5    1
    29     5     4    1
    30    31     4   ar
    31    31    30   ar
    32     4     3   ar
    33    30     1   ar
    34     3     2   ar
    35     1     2   ar
    36     2    33    1
