@<TRIPOS>MOLECULE
3l8w_XAN_A_1.pdb
 14 15 0 0 0
SMALL
GASTEIGER

@<TRIPOS>ATOM
      1  N9        31.5580   25.3660   39.2430 N.pl3 300  XAN300     -0.2943
      2  C4        30.7580   25.9840   38.3790 C.3   300  XAN300      0.2219
      3  N3        29.5630   26.5700   38.4110 N.am  300  XAN300     -0.2294
      4  C2        28.8680   27.1310   37.4370 C.1   300  XAN300      0.2769
      5  O2        27.7430   27.5320   37.5430 O.2   300  XAN300     -0.1924
      6  N1        29.6580   27.3270   36.3170 N.2   300  XAN300     -0.2433
      7  C6        30.9720   26.8470   36.1120 C.1   300  XAN300      0.2454
      8  O6        31.5770   27.1130   35.0820 O.2   300  XAN300     -0.2061
      9  C5        31.5520   26.1660   37.2340 C.2   300  XAN300      0.2413
     10  N7        32.7160   25.4910   37.2690 N.2   300  XAN300     -0.3839
     11  C8        32.7210   25.0040   38.5610 C.2   300  XAN300      0.1366
     12  HN9       31.3890   25.2160   40.0730 H     300  XAN300      0.1504
     13  HN3       29.1850   26.5860   39.1840 H     300  XAN300      0.1627
     14  H8        33.4100   24.4990   38.9300 H     300  XAN300      0.1143
@<TRIPOS>BOND
     1     8     7    2
     2     7     6    2
     3     7     9    1
     4     6     4    2
     5     9    10    2
     6     9     2    1
     7    10    11    2
     8     4     5    2
     9     4     3   am
    10     2     3    1
    11     2     1    1
    12     3    13    1
    13    11    14    1
    14    11     1    1
    15     1    12    1
