@<TRIPOS>MOLECULE
3l8w_4PO_A_1.pdb
 28 28 0 0 0
SMALL
GASTEIGER

@<TRIPOS>ATOM
      1  C1        37.2790   56.8830   48.6130 C.3   370  4PO370     -0.0448
      2  N1        34.8310   57.2200   47.8790 N.4   370  4PO370     -0.1395
      3  O1        33.9680   57.4410   46.9100 O.3   370  4PO370     -0.1182
      4  C2        36.5770   58.6010   47.0410 C.3   370  4PO370     -0.0448
      5  N2        30.6570   56.8540   50.8520 N.ar  370  4PO370     -0.1774
      6  O2        29.5310   56.6940   51.4850 O.co2 370  4PO370     -0.6198
      7  C3        36.4220   56.2520   46.3540 C.3   370  4PO370     -0.0448
      8  C4        36.2610   57.1930   47.5450 C.3   370  4PO370      0.0423
      9  C5        34.3620   57.1200   49.2390 C.3   370  4PO370      0.0865
     10  C6        33.0990   57.1150   49.7160 C.ar  370  4PO370     -0.0148
     11  C7        31.9750   57.3240   48.9110 C.ar  370  4PO370      0.0082
     12  C8        30.7280   57.1930   49.5350 C.ar  370  4PO370      0.1831
     13  C9        31.7790   56.6670   51.6360 C.ar  370  4PO370      0.1831
     14  C10       33.0030   56.8430   51.0550 C.ar  370  4PO370      0.0082
     15  H1        37.1710   57.4940   49.3450 H     370  4PO370      0.0248
     16  H1A       38.1620   56.9730   48.2480 H     370  4PO370      0.0248
     17  H1B       37.1520   55.9840   48.9250 H     370  4PO370      0.0248
     18  H2        35.9690   58.8310   46.3350 H     370  4PO370      0.0248
     19  H2A       37.4770   58.6270   46.7090 H     370  4PO370      0.0248
     20  H2B       36.4820   59.2270   47.7620 H     370  4PO370      0.0248
     21  H3        37.3120   56.3290   46.0030 H     370  4PO370      0.0248
     22  H3A       35.7870   56.4860   45.6730 H     370  4PO370      0.0248
     23  H3B       36.2670   55.3480   46.6380 H     370  4PO370      0.0248
     24  H5        35.0110   57.0390   49.7800 H     370  4PO370      0.0556
     25  H7        32.0520   57.5380   48.0100 H     370  4PO370      0.0680
     26  H8        29.9480   57.3380   49.0490 H     370  4PO370      0.1389
     27  H9        31.7030   56.4290   52.5320 H     370  4PO370      0.1389
     28  H10       33.7740   56.7780   51.5710 H     370  4PO370      0.0680
@<TRIPOS>UNITY_ATOM_ATTR
5 1
charge 1
6 1
charge -1
@<TRIPOS>BOND
     1    22     7    1
     2    21     7    1
     3    18     4    1
     4     7    23    1
     5     7     8    1
     6    19     4    1
     7     3     2    1
     8     4     8    1
     9     4    20    1
    10     8     2    1
    11     8     1    1
    12     2     9    1
    13    25    11    1
    14    16     1    1
    15     1    17    1
    16     1    15    1
    17    11    12   ar
    18    11    10   ar
    19    26    12    1
    20     9    10    1
    21     9    24    1
    22    12     5   ar
    23    10    14   ar
    24     5     6    1
    25     5    13   ar
    26    14    28    1
    27    14    13   ar
    28    13    27    1
