@<TRIPOS>MOLECULE
3l8x_N4D_A_1.pdb
 27 30 0 0 0
SMALL
GASTEIGER

@<TRIPOS>ATOM
      1  C13       -4.8090   -2.7770  -22.3930 C.ar  361  N4D361      0.0191
      2  C18       -1.4810   -1.1110  -24.5190 C.2   361  N4D361      0.2649
      3  C17       -2.7150   -4.1120  -19.9000 C.2   361  N4D361      0.3588
      4  C16       -1.8710   -5.1590  -17.9080 C.2   361  N4D361      0.3449
      5  C15       -3.4980   -3.2250  -22.1360 C.ar  361  N4D361      0.1792
      6  C19       -5.9880   -3.3500  -21.6580 C.3   361  N4D361      0.0347
      7  C20       -0.7440    0.5500  -26.1740 C.3   361  N4D361      0.1388
      8  C11       -2.4230   -5.2790  -19.1720 C.3   361  N4D361      0.2611
      9  C12       -2.6450   -1.6720  -23.7970 C.ar  361  N4D361      0.0585
     10  C1        -0.1640   -7.7950  -13.7210 C.ar  361  N4D361      0.0002
     11  C2         0.5220   -6.8180  -14.4380 C.ar  361  N4D361      0.0036
     12  C3        -1.3470   -8.3210  -14.2300 C.ar  361  N4D361      0.0036
     13  C4        -3.9440   -1.2290  -24.0520 C.ar  361  N4D361      0.0045
     14  C5        -5.0170   -1.7790  -23.3540 C.ar  361  N4D361     -0.0006
     15  C6         0.0300   -6.3630  -15.6650 C.ar  361  N4D361      0.0426
     16  C7        -1.8440   -7.8730  -15.4540 C.ar  361  N4D361      0.0426
     17  C8        -2.4210   -2.6680  -22.8390 C.ar  361  N4D361      0.0486
     18  C9        -2.5410   -6.6620  -19.3760 C.2   361  N4D361      0.1410
     19  C10       -1.8930   -2.9350  -18.0680 C.3   361  N4D361      0.5247
     20  C14       -1.1570   -6.8880  -16.1840 C.ar  361  N4D361      0.1655
     21  N21       -2.1060   -7.3730  -18.3420 N.2   361  N4D361     -0.0851
     22  N22       -1.5810   -3.9960  -17.2980 N.2   361  N4D361     -0.0083
     23  N23       -2.4310   -2.9180  -19.3080 N.2   361  N4D361     -0.0069
     24  N24       -1.6890   -6.4500  -17.4290 N.pl3 361  N4D361     -0.0586
     25  N25       -3.2710   -4.2220  -21.1760 N.pl3 361  N4D361     -0.0094
     26  N26       -1.7070    0.0610  -25.2190 N.am  361  N4D361     -0.1998
     27  O27       -0.4030   -1.6950  -24.4640 O.2   361  N4D361     -0.2684
@<TRIPOS>BOND
     1     7    26    1
     2    26     2   am
     3     2    27    2
     4     2     9    1
     5    13     9   ar
     6    13    14   ar
     7     9    17   ar
     8    14     1   ar
     9    17     5   ar
    10     1     5   ar
    11     1     6    1
    12     5    25    1
    13    25     3    1
    14     3    23    2
    15     3     8    1
    16    18     8    1
    17    18    21    2
    18    23    19    1
    19     8     4    1
    20    21    24    1
    21    19    22    1
    22     4    24    1
    23     4    22    2
    24    24    20    1
    25    20    15   ar
    26    20    16   ar
    27    15    11   ar
    28    16    12   ar
    29    11    10   ar
    30    12    10   ar
