@<TRIPOS>MOLECULE
3l8y_GNP_A_1.pdb
 32 34 0 0 0
SMALL
GASTEIGER

@<TRIPOS>ATOM
      1  PG        -6.6070  -15.3420  -22.2230 P.3   201  GNP201      0.4884
      2  O1G       -6.6860  -14.3160  -21.1180 O.3   201  GNP201     -0.1240
      3  O2G       -7.0390  -16.7250  -21.8130 O.3   201  GNP201     -0.1240
      4  O3G       -5.2040  -15.2470  -22.7490 O.2   201  GNP201     -0.2331
      5  N3B       -7.5760  -14.8610  -23.3980 N.3   201  GNP201     -0.0163
      6  PB        -7.8250  -15.5840  -24.8030 P.3   201  GNP201      0.4669
      7  O1B       -6.7030  -15.3170  -25.7380 O.2   201  GNP201     -0.2351
      8  O2B       -8.1400  -16.9990  -24.5430 O.3   201  GNP201     -0.1253
      9  O3A       -9.0390  -14.8670  -25.4150 O.3   201  GNP201     -0.2360
     10  PA       -10.5090  -15.3240  -25.4310 P.3   201  GNP201      0.2220
     11  O1A      -10.6790  -16.5030  -26.3030 O.2   201  GNP201     -0.5170
     12  O2A      -11.0840  -15.4130  -24.0570 O.3   201  GNP201     -0.4370
     13  O5'      -11.2520  -14.1600  -26.1810 O.3   201  GNP201     -0.3111
     14  C5'      -11.2530  -12.8320  -25.6510 C.3   201  GNP201      0.1813
     15  C4'      -12.4500  -12.0770  -26.1920 C.3   201  GNP201      0.1799
     16  O4'      -12.3010  -11.9650  -27.6280 O.3   201  GNP201     -0.3326
     17  C3'      -13.8010  -12.7490  -25.9480 C.3   201  GNP201      0.2158
     18  O3'      -14.7510  -11.7590  -25.5910 O.3   201  GNP201     -0.2175
     19  C2'      -14.1140  -13.4180  -27.2900 C.3   201  GNP201      0.2310
     20  O2'      -15.4940  -13.5250  -27.5680 O.3   201  GNP201     -0.2158
     21  C1'      -13.4400  -12.4730  -28.2830 C.3   201  GNP201      0.2293
     22  N9       -13.0040  -13.1430  -29.5030 N.pl3 201  GNP201     -0.2354
     23  C8       -12.1520  -14.2150  -29.6080 C.3   201  GNP201      0.2246
     24  N7       -11.9510  -14.6090  -30.8290 N.2   201  GNP201     -0.2322
     25  C5       -12.7170  -13.7400  -31.5900 C.2   201  GNP201      0.2182
     26  C6       -12.9000  -13.6710  -32.9930 C.1   201  GNP201      0.2372
     27  O6       -12.3980  -14.3960  -33.8620 O.2   201  GNP201     -0.2069
     28  N1       -13.7600  -12.6340  -33.3630 N.2   201  GNP201     -0.2485
     29  C2       -14.3710  -11.7710  -32.4720 C.1   201  GNP201      0.2531
     30  N2       -15.1760  -10.8330  -32.9900 N.pl3 201  GNP201     -0.0226
     31  N3       -14.2050  -11.8270  -31.1560 N.2   201  GNP201     -0.3074
     32  C4       -13.3700  -12.8290  -30.7880 C.2   201  GNP201      0.2300
@<TRIPOS>BOND
     1    27    26    2
     2    28    26    2
     3    28    29    2
     4    26    25    1
     5    30    29    1
     6    29    31    2
     7    25    24    2
     8    25    32    1
     9    31    32    2
    10    24    23    1
    11    32    22    1
    12    23    22    1
    13    22    21    1
    14    21    16    1
    15    21    19    1
    16    16    15    1
    17    20    19    1
    18    19    17    1
    19    11    10    2
    20    15    17    1
    21    15    14    1
    22    13    14    1
    23    13    10    1
    24    17    18    1
    25     7     6    2
    26    10     9    1
    27    10    12    1
    28     9     6    1
    29     6     8    1
    30     6     5    1
    31     5     1    1
    32     4     1    2
    33     1     3    1
    34     1     2    1
