@<TRIPOS>MOLECULE
3l8y_YCN_A_1.pdb
 12 12 0 0 0
SMALL
GASTEIGER

@<TRIPOS>ATOM
      1  C1        11.1000  -34.0970  -31.9060 C.3   300  YCN300      0.1075
      2  N1        11.8170  -34.3220  -33.1850 N.3   300  YCN300     -0.2150
      3  C2        11.3610  -32.6890  -31.3410 C.3   300  YCN300      0.1079
      4  N2        10.6930  -31.5440  -31.9830 N.3   300  YCN300     -0.2101
      5  C3        11.2080  -30.2750  -31.4310 C.3   300  YCN300      0.1350
      6  N3        13.1590  -30.7350  -33.0090 N.2   300  YCN300     -0.2705
      7  C4        12.5600  -29.8340  -32.0290 C.2   300  YCN300      0.0857
      8  N4        14.3880  -32.7880  -34.7190 N.3   300  YCN300     -0.2144
      9  C5        14.5130  -30.5780  -33.5280 C.3   300  YCN300      0.1439
     10  C6        15.1850  -31.9020  -33.8870 C.3   300  YCN300      0.1150
     11  C7        14.0930  -34.1720  -34.3460 C.3   300  YCN300      0.1075
     12  C8        13.2860  -34.1630  -33.0500 C.3   300  YCN300      0.1075
@<TRIPOS>BOND
     1     8    11    1
     2     8    10    1
     3    11    12    1
     4    10     9    1
     5     9     6    1
     6     2    12    1
     7     2     1    1
     8     6     7    2
     9     7     5    1
    10     4     5    1
    11     4     3    1
    12     1     3    1
