@<TRIPOS>MOLECULE
3l8z_GNP_A_1.pdb
 32 34 0 0 0
SMALL
GASTEIGER

@<TRIPOS>ATOM
      1  PG        -6.7830  -14.9990  -22.2440 P.3   201  GNP201      0.4884
      2  O1G       -6.9000  -13.9880  -21.1140 O.3   201  GNP201     -0.1240
      3  O2G       -7.2190  -16.3820  -21.8580 O.3   201  GNP201     -0.1240
      4  O3G       -5.3760  -14.9210  -22.7860 O.2   201  GNP201     -0.2331
      5  N3B       -7.7440  -14.5210  -23.4650 N.3   201  GNP201     -0.0163
      6  PB        -8.0440  -15.3040  -24.8700 P.3   201  GNP201      0.4669
      7  O1B       -6.9400  -15.0940  -25.8470 O.2   201  GNP201     -0.2351
      8  O2B       -8.3200  -16.7140  -24.5900 O.3   201  GNP201     -0.1253
      9  O3A       -9.2740  -14.5950  -25.4610 O.3   201  GNP201     -0.2360
     10  PA       -10.7780  -15.0880  -25.4570 P.3   201  GNP201      0.2220
     11  O1A      -10.9170  -16.2800  -26.3240 O.2   201  GNP201     -0.5170
     12  O2A      -11.3170  -15.1440  -24.0720 O.3   201  GNP201     -0.4370
     13  O5'      -11.5060  -13.9250  -26.1990 O.3   201  GNP201     -0.3111
     14  C5'      -11.4730  -12.5700  -25.6640 C.3   201  GNP201      0.1813
     15  C4'      -12.6560  -11.7800  -26.1980 C.3   201  GNP201      0.1799
     16  O4'      -12.5270  -11.6450  -27.6340 O.3   201  GNP201     -0.3326
     17  C3'      -14.0230  -12.4190  -25.9340 C.3   201  GNP201      0.2158
     18  O3'      -14.9880  -11.4220  -25.6790 O.3   201  GNP201     -0.2175
     19  C2'      -14.3070  -13.1240  -27.2550 C.3   201  GNP201      0.2310
     20  O2'      -15.6720  -13.2450  -27.5780 O.3   201  GNP201     -0.2158
     21  C1'      -13.6730  -12.1680  -28.2640 C.3   201  GNP201      0.2293
     22  N9       -13.2140  -12.8550  -29.4550 N.pl3 201  GNP201     -0.2354
     23  C8       -12.3820  -13.9410  -29.5170 C.3   201  GNP201      0.2246
     24  N7       -12.1830  -14.3460  -30.7410 N.2   201  GNP201     -0.2322
     25  C5       -12.9330  -13.4690  -31.5060 C.2   201  GNP201      0.2182
     26  C6       -13.1030  -13.3970  -32.9060 C.1   201  GNP201      0.2372
     27  O6       -12.5930  -14.1420  -33.7540 O.2   201  GNP201     -0.2069
     28  N1       -13.9500  -12.3600  -33.2970 N.2   201  GNP201     -0.2485
     29  C2       -14.5570  -11.4850  -32.4260 C.1   201  GNP201      0.2531
     30  N2       -15.3410  -10.5430  -32.9620 N.pl3 201  GNP201     -0.0226
     31  N3       -14.3970  -11.5290  -31.1150 N.2   201  GNP201     -0.3074
     32  C4       -13.5840  -12.5360  -30.7250 C.2   201  GNP201      0.2300
@<TRIPOS>BOND
     1    27    26    2
     2    28    26    2
     3    28    29    2
     4    30    29    1
     5    26    25    1
     6    29    31    2
     7    25    24    2
     8    25    32    1
     9    31    32    2
    10    24    23    1
    11    32    22    1
    12    23    22    1
    13    22    21    1
    14    21    16    1
    15    21    19    1
    16    16    15    1
    17    20    19    1
    18    19    17    1
    19    11    10    2
    20    13    14    1
    21    13    10    1
    22    15    17    1
    23    15    14    1
    24    17    18    1
    25     7     6    2
    26     9    10    1
    27     9     6    1
    28    10    12    1
    29     6     8    1
    30     6     5    1
    31     5     1    1
    32     4     1    2
    33     1     3    1
    34     1     2    1
