@<TRIPOS>MOLECULE
3l91_OCA_B_1.pdb
 10 9 0 0 0
SMALL
GASTEIGER

@<TRIPOS>ATOM
      1  C1        35.8440   55.6400   53.0230 C.2     1  OCA1        0.3649
      2  C2        36.1620   54.8170   54.2530 C.3     1  OCA1        0.1141
      3  C3        34.8900   54.3970   54.9970 C.3     1  OCA1        0.0118
      4  C4        35.1780   53.4880   56.1890 C.3     1  OCA1        0.0006
      5  C5        35.3630   52.0340   55.7800 C.3     1  OCA1        0.0000
      6  C6        36.3050   51.2770   56.7070 C.3     1  OCA1        0.0000
      7  C7        36.1590   49.7970   56.3840 C.3     1  OCA1        0.0000
      8  C8        37.1800   48.9730   57.1230 C.3     1  OCA1        0.0000
      9  O1        34.9370   56.4930   53.0900 O.co2   1  OCA1       -0.2457
     10  O2        36.4970   55.4520   51.9680 O.co2   1  OCA1       -0.2457
@<TRIPOS>BOND
     1    10     1   ar
     2     1     9   ar
     3     1     2    1
     4     2     3    1
     5     3     4    1
     6     5     4    1
     7     5     6    1
     8     7     6    1
     9     7     8    1
