@<TRIPOS>MOLECULE
3l92_COA_A_1.pdb
 48 50 0 0 0
SMALL
GASTEIGER

@<TRIPOS>ATOM
      1  N1A        3.1630    7.4340   49.7690 N.2   301  COA301      0.0021
      2  C2A        2.2440    6.9970   48.8170 C.3   301  COA301      0.5254
      3  N3A        1.9540    7.8040   47.7340 N.2   301  COA301     -0.0055
      4  C4A        2.5640    9.0260   47.6020 C.2   301  COA301      0.3518
      5  C5A        3.4840    9.4930   48.5540 C.2   301  COA301      0.2526
      6  C6A        3.7850    8.6700   49.6330 C.2   301  COA301      0.4393
      7  N6A        4.8160    8.9730   50.4170 N.pl3 301  COA301      0.2180
      8  N7A        3.9420   10.7240   48.1750 N.2   301  COA301     -0.2095
      9  C8A        3.3170   11.0490   47.0040 C.3   301  COA301      0.3377
     10  N9A        2.4670   10.0110   46.6470 N.pl3 301  COA301     -0.1439
     11  C1B        1.6610    9.8960   45.4130 C.3   301  COA301      0.3185
     12  C2B        1.0460   11.2520   45.0490 C.3   301  COA301      0.2543
     13  O2B       -0.0670   11.6810   45.7970 O.3   301  COA301     -0.2131
     14  C3B        0.7610   11.0580   43.5860 C.3   301  COA301      0.1928
     15  O3B       -0.2790   10.0880   43.4560 O.3   301  COA301     -0.2673
     16  P3B       -1.7090   10.6450   42.9580 P.3   301  COA301      0.5327
     17  O7A       -1.4780   10.9710   41.5030 O.2   301  COA301     -0.2224
     18  O8A       -2.8270    9.6790   43.2580 O.3   301  COA301     -0.1145
     19  O9A       -1.9260   11.9140   43.7760 O.3   301  COA301     -0.1145
     20  C4B        2.1160   10.5050   43.1990 C.3   301  COA301      0.1795
     21  O4B        2.4290    9.5640   44.2530 O.3   301  COA301     -0.3136
     22  C5B        3.0510   11.7350   43.0980 C.3   301  COA301      0.1812
     23  O5B        2.7510   12.7770   44.0860 O.3   301  COA301     -0.3112
     24  P1A        3.6570   14.1320   44.3440 P.3   301  COA301      0.2189
     25  O1A        3.1550   15.3640   43.6140 O.2   301  COA301     -0.5170
     26  O2A        3.7610   14.5310   45.8250 O.3   301  COA301     -0.4371
     27  O3A        5.0750   13.6290   43.7410 O.3   301  COA301     -0.2703
     28  P2A        5.8790   12.3300   44.2920 P.3   301  COA301      0.2188
     29  O4A        5.6850   11.1240   43.3830 O.2   301  COA301     -0.5170
     30  O5A        5.6100   12.0490   45.7350 O.3   301  COA301     -0.4371
     31  O6A        7.4240   12.6980   44.2100 O.3   301  COA301     -0.3138
     32  CBP        9.5690   12.4080   43.3970 C.3   301  COA301      0.0645
     33  CCP        8.3710   11.6900   43.9920 C.3   301  COA301      0.1519
     34  CDP        9.9700   13.5410   44.3510 C.3   301  COA301      0.0056
     35  CEP        9.1010   12.9840   42.0620 C.3   301  COA301      0.0056
     36  CAP       10.7550   11.4560   43.2920 C.3   301  COA301      0.2312
     37  OAP       10.4660   10.2140   42.6610 O.3   301  COA301     -0.2131
     38  C9P       11.9510   12.1580   42.6980 C.2   301  COA301      0.2719
     39  O9P       12.9280   12.6880   43.5630 O.2   301  COA301     -0.2706
     40  N8P       12.0350   12.2330   41.3580 N.am  301  COA301     -0.2028
     41  C7P       13.2360   12.6430   40.6460 C.3   301  COA301      0.1248
     42  C6P       14.1040   11.4380   40.2420 C.3   301  COA301      0.1102
     43  C5P       14.8270   10.8740   41.4630 C.2   301  COA301      0.2432
     44  O5P       15.7020   11.5780   41.9900 O.2   301  COA301     -0.2733
     45  N4P       14.5190    9.6460   41.9160 N.am  301  COA301     -0.2044
     46  C3P       15.1390    9.0480   43.0950 C.3   301  COA301      0.1276
     47  C2P       14.8030    9.7850   44.3910 C.3   301  COA301      0.0920
     48  S1P       15.2920    8.8000   45.8330 S.3   301  COA301     -0.0802
@<TRIPOS>BOND
     1    42    41    1
     2    42    43    1
     3    41    40    1
     4    40    38   am
     5    43    45   am
     6    43    44    2
     7    17    16    2
     8    45    46    1
     9    35    32    1
    10    37    36    1
    11    38    36    1
    12    38    39    2
    13    16    18    1
    14    16    15    1
    15    16    19    1
    16    46    47    1
    17    22    20    1
    18    22    23    1
    19    20    14    1
    20    20    21    1
    21    36    32    1
    22    29    28    2
    23    32    33    1
    24    32    34    1
    25    15    14    1
    26    14    12    1
    27    25    24    2
    28    27    28    1
    29    27    24    1
    30    33    31    1
    31    23    24    1
    32    31    28    1
    33    21    11    1
    34    28    30    1
    35    24    26    1
    36    47    48    1
    37    12    11    1
    38    12    13    1
    39    11    10    1
    40    10     9    1
    41    10     4    1
    42     9     8    1
    43     4     3    2
    44     4     5    1
    45     3     2    1
    46     8     5    2
    47     5     6    1
    48     2     1    1
    49     6     1    2
    50     6     7    1
