@<TRIPOS>MOLECULE
3l98_NAD_A_1.pdb
 44 48 0 0 0
SMALL
GASTEIGER

@<TRIPOS>ATOM
      1  PA        67.9980   36.9090   63.9170 P.3   3000  NAD3000     0.2189
      2  O1A       68.3490   36.1910   62.6700 O.2   3000  NAD3000    -0.5170
      3  O2A       67.7530   38.3640   64.0160 O.3   3000  NAD3000    -0.4371
      4  O5B       69.4710   36.9040   64.5660 O.3   3000  NAD3000    -0.3112
      5  C5B       69.7080   37.4950   65.8470 C.3   3000  NAD3000     0.1813
      6  C4B       70.6670   36.6250   66.6660 C.3   3000  NAD3000     0.1821
      7  O4B       70.9730   37.2970   67.9010 O.3   3000  NAD3000    -0.3135
      8  C3B       69.9610   35.3280   67.0670 C.3   3000  NAD3000     0.2184
      9  O3B       70.9330   34.3520   67.4490 O.3   3000  NAD3000    -0.2174
     10  C2B       69.1840   35.8130   68.2900 C.3   3000  NAD3000     0.2570
     11  O2B       68.8440   34.6970   69.1180 O.3   3000  NAD3000    -0.2130
     12  C1B       70.2920   36.6160   68.9690 C.3   3000  NAD3000     0.3186
     13  N9A       69.7470   37.6020   69.9290 N.pl3 3000  NAD3000    -0.1439
     14  C8A       68.9220   38.6000   69.6180 C.3   3000  NAD3000     0.3377
     15  N7A       68.6920   39.3450   70.6970 N.2   3000  NAD3000    -0.2095
     16  C5A       69.3740   38.8130   71.7090 C.2   3000  NAD3000     0.2526
     17  C6A       69.5220   39.1450   73.0480 C.2   3000  NAD3000     0.4393
     18  N6A       68.9210   40.2230   73.5460 N.pl3 3000  NAD3000     0.2180
     19  N1A       70.2970   38.3740   73.8250 N.2   3000  NAD3000     0.0021
     20  C2A       70.9150   37.3160   73.3280 C.3   3000  NAD3000     0.5254
     21  N3A       70.8000   36.9730   72.0580 N.2   3000  NAD3000    -0.0055
     22  C4A       70.0410   37.6980   71.2210 C.2   3000  NAD3000     0.3518
     23  O3        67.4430   35.9530   65.0910 O.3   3000  NAD3000    -0.2703
     24  PN        65.9040   35.9560   65.5690 P.3   3000  NAD3000     0.2189
     25  O1N       65.8080   36.6170   66.8900 O.3   3000  NAD3000    -0.4371
     26  O2N       65.0260   36.4360   64.4780 O.2   3000  NAD3000    -0.5170
     27  O5D       65.5960   34.3880   65.7580 O.3   3000  NAD3000    -0.3112
     28  C5D       66.5730   33.5280   66.3500 C.3   3000  NAD3000     0.1813
     29  C4D       65.9410   32.2180   66.8280 C.3   3000  NAD3000     0.1799
     30  O4D       64.9590   32.5630   67.8260 O.3   3000  NAD3000    -0.3327
     31  C3D       65.1740   31.5250   65.6990 C.3   3000  NAD3000     0.2158
     32  O3D       65.1500   30.1080   65.8910 O.3   3000  NAD3000    -0.2175
     33  C2D       63.7690   32.0970   65.8710 C.3   3000  NAD3000     0.2309
     34  O2D       62.7800   31.2160   65.3310 O.3   3000  NAD3000    -0.2158
     35  C1D       63.6870   32.0490   67.3950 C.3   3000  NAD3000     0.2263
     36  N1N       62.5560   32.8420   67.9250 N.pl3 3000  NAD3000    -0.2787
     37  C2N       61.5930   32.2350   68.7410 C.3   3000  NAD3000     0.1244
     38  C3N       60.5460   32.9910   69.2540 C.2   3000  NAD3000     0.0544
     39  C7N       59.4940   32.3260   70.1430 C.2   3000  NAD3000     0.2818
     40  O7N       59.4920   31.1080   70.3130 O.2   3000  NAD3000    -0.2670
     41  N7N       58.6050   33.1570   70.6800 N.am  3000  NAD3000    -0.0839
     42  C4N       60.4520   34.3470   68.9600 C.2   3000  NAD3000     0.0033
     43  C5N       61.4040   34.9540   68.1480 C.2   3000  NAD3000     0.0157
     44  C6N       62.4550   34.2080   67.6280 C.2   3000  NAD3000     0.0633
@<TRIPOS>BOND
     1     2     1    2
     2     1     3    1
     3     1     4    1
     4     1    23    1
     5    26    24    2
     6     4     5    1
     7    23    24    1
     8    34    33    1
     9    24    27    1
    10    24    25    1
    11    31    33    1
    12    31    32    1
    13    31    29    1
    14    27    28    1
    15     5     6    1
    16    33    35    1
    17    28    29    1
    18     6     8    1
    19     6     7    1
    20    29    30    1
    21     8     9    1
    22     8    10    1
    23    35    30    1
    24    35    36    1
    25    44    36    1
    26    44    43    2
    27     7    12    1
    28    36    37    1
    29    43    42    1
    30    10    12    1
    31    10    11    1
    32    37    38    1
    33    42    38    2
    34    12    13    1
    35    38    39    1
    36    14    13    1
    37    14    15    1
    38    13    22    1
    39    39    40    2
    40    39    41   am
    41    15    16    2
    42    22    16    1
    43    22    21    2
    44    16    17    1
    45    21    20    1
    46    17    18    1
    47    17    19    2
    48    20    19    1
