@<TRIPOS>MOLECULE
3l9g_URC_A_1.pdb
 12 13 0 0 0
SMALL
GASTEIGER

@<TRIPOS>ATOM
      1  N1        29.0370   27.2110   36.4810 N.2   300  URC300     -0.2289
      2  C2        28.2520   26.9830   37.5980 C.1   300  URC300      0.3754
      3  C6        30.3230   26.7610   36.2550 C.1   300  URC300      0.2604
      4  N3        28.7790   26.2970   38.6560 N.2   300  URC300     -0.2368
      5  O11       27.1150   27.4140   37.6610 O.2   300  URC300     -0.1738
      6  C4        30.0530   25.8600   38.4990 C.1   300  URC300      0.2099
      7  C5        30.8540   26.0590   37.3940 C.2   300  URC300      0.3262
      8  N9        30.8270   25.2020   39.4110 N.2   300  URC300     -0.2373
      9  O13       30.8870   26.9980   35.2060 O.2   300  URC300     -0.2051
     10  N7        32.0310   25.4780   37.5400 N.2   300  URC300     -0.2823
     11  C8        32.0820   24.9690   38.8320 C.1   300  URC300      0.3665
     12  O24       33.0150   24.3910   39.4320 O.2   300  URC300     -0.1745
@<TRIPOS>BOND
     1     9     3    2
     2     3     1    2
     3     3     7    1
     4     1     2    2
     5     7    10    2
     6     7     6    1
     7    10    11    2
     8     2     5    2
     9     2     4    2
    10     6     4    2
    11     6     8    2
    12    11     8    2
    13    11    12    2
