@<TRIPOS>MOLECULE
3l9h_ADP_A_1.pdb
 27 29 0 0 0
SMALL
GASTEIGER

@<TRIPOS>ATOM
      1  PB        17.8520    1.3460   16.7460 P.3   501  ADP501      0.5373
      2  O1B       16.6090    1.9790   17.2380 O.3   501  ADP501     -0.1143
      3  O2B       17.6330   -0.0200   16.1500 O.3   501  ADP501     -0.1143
      4  O3B       18.6270    2.3340   15.8090 O.2   501  ADP501     -0.2221
      5  PA        20.0690    1.7780   18.5120 P.3   501  ADP501      0.2231
      6  O1A       21.1600    1.4120   17.5470 O.2   501  ADP501     -0.5169
      7  O2A       19.8600    3.2350   18.7320 O.3   501  ADP501     -0.4370
      8  O3A       18.7160    1.1390   18.0640 O.3   501  ADP501     -0.2261
      9  O5'       20.4400    0.9460   19.8100 O.3   501  ADP501     -0.3111
     10  C5'       19.6180    1.0150   20.9990 C.3   501  ADP501      0.1813
     11  C4'       20.4260    1.1480   22.2870 C.3   501  ADP501      0.1821
     12  O4'       21.1060   -0.0960   22.6200 O.3   501  ADP501     -0.3135
     13  C3'       21.5420    2.2020   22.2990 C.3   501  ADP501      0.2184
     14  O3'       21.5390    2.8060   23.6060 O.3   501  ADP501     -0.2174
     15  C2'       22.8030    1.3960   21.9440 C.3   501  ADP501      0.2570
     16  O2'       24.0010    1.9140   22.5450 O.3   501  ADP501     -0.2130
     17  C1'       22.5180   -0.0110   22.4770 C.3   501  ADP501      0.3186
     18  N9        23.0440   -1.1020   21.5680 N.pl3 501  ADP501     -0.1439
     19  C8        22.5560   -1.5220   20.3740 C.3   501  ADP501      0.3377
     20  N7        23.2810   -2.5290   19.8320 N.2   501  ADP501     -0.2095
     21  C5        24.2730   -2.7440   20.7390 C.2   501  ADP501      0.2526
     22  C6        25.3870   -3.6920   20.7570 C.2   501  ADP501      0.4393
     23  N6        25.6640   -4.5640   19.8570 N.pl3 501  ADP501      0.2180
     24  N1        26.1950   -3.5940   21.8860 N.2   501  ADP501      0.0021
     25  C2        25.9730   -2.6840   22.9140 C.3   501  ADP501      0.5254
     26  N3        24.9560   -1.8090   22.9130 N.2   501  ADP501     -0.0055
     27  C4        24.1430   -1.8740   21.8230 C.2   501  ADP501      0.3518
@<TRIPOS>BOND
     1     4     1    2
     2     3     1    1
     3     1     2    1
     4     1     8    1
     5     6     5    2
     6     8     5    1
     7     5     7    1
     8     5     9    1
     9     9    10    1
    10    20    19    1
    11    20    21    2
    12    23    22    1
    13    19    18    1
    14    21    22    1
    15    21    27    1
    16    22    24    2
    17    10    11    1
    18    18    27    1
    19    18    17    1
    20    27    26    2
    21    24    25    1
    22    15    13    1
    23    15    17    1
    24    15    16    1
    25    11    13    1
    26    11    12    1
    27    13    14    1
    28    17    12    1
    29    26    25    1
