@<TRIPOS>MOLECULE
3l9h_EMQ_A_1.pdb
 34 37 0 0 0
SMALL
GASTEIGER

@<TRIPOS>ATOM
      1  N1        26.4770   10.1400   18.7660 N.am  601  EMQ601     -0.1846
      2  C2        26.0020   10.2040   11.1550 C.3   601  EMQ601      0.1389
      3  C3        26.5190    8.9540   10.7500 C.2   601  EMQ601     -0.0121
      4  C4        27.4600    8.2800   11.5360 C.2   601  EMQ601      0.0144
      5  C5        26.4360   10.7750   12.3620 C.2   601  EMQ601     -0.0141
      6  C6        27.3780   10.1070   13.1540 C.2   601  EMQ601      0.0182
      7  C7        27.8960    8.8530   12.7430 C.2   601  EMQ601      0.0740
      8  N8        28.8550    8.1720   13.5300 N.2   601  EMQ601     -0.2681
      9  C9        29.3050    8.7270   14.8420 C.3   601  EMQ601      0.1280
     10  C10       27.8330   10.7500   14.4410 C.3   601  EMQ601      0.1406
     11  C11       29.2510   10.2770   14.8070 C.3   601  EMQ601      0.0582
     12  C12       29.6860   10.9190   16.1540 C.3   601  EMQ601      0.0076
     13  C13       28.5960   10.8360   17.2440 C.3   601  EMQ601      0.0316
     14  C14       27.2110   11.2350   16.6460 C.3   601  EMQ601      0.1372
     15  O15       26.9240   10.4080   15.4930 O.3   601  EMQ601     -0.3524
     16  C16       30.7180    8.2660   15.1380 C.ar  601  EMQ601     -0.0001
     17  C17       30.9250    7.4160   16.2280 C.ar  601  EMQ601     -0.0024
     18  C18       32.2190    6.9630   16.5510 C.ar  601  EMQ601     -0.0003
     19  C19       33.3220    7.3630   15.7800 C.ar  601  EMQ601     -0.0000
     20  C20       33.1250    8.2200   14.6790 C.ar  601  EMQ601     -0.0003
     21  C21       31.8260    8.6780   14.3490 C.ar  601  EMQ601     -0.0024
     22  C22       24.9940   10.9230   10.2720 C.3   601  EMQ601      0.4048
     23  F23       24.2240    9.9750    9.5820 F     601  EMQ601     -0.1693
     24  F24       24.1650   11.7510   11.0340 F     601  EMQ601     -0.1693
     25  F25       25.6870   11.7130    9.3470 F     601  EMQ601     -0.1693
     26  C26       26.0700   11.0700   17.6970 C.3   601  EMQ601      0.1462
     27  C27       26.8630   10.5730   20.0010 C.2   601  EMQ601      0.3394
     28  N28       27.2750    9.6370   20.9030 N.am  601  EMQ601     -0.1857
     29  O29       26.8660   11.7900   20.2760 O.2   601  EMQ601     -0.2492
     30  C30       27.7540   10.0170   22.2320 C.3   601  EMQ601      0.1341
     31  C31       26.9170    9.3460   23.3370 C.3   601  EMQ601      0.0959
     32  N32       27.7260    9.1440   24.5700 N.3   601  EMQ601     -0.2688
     33  C33       28.1200   10.4540   25.0690 C.3   601  EMQ601      0.0897
     34  C34       26.8260    8.5800   25.6010 C.3   601  EMQ601      0.0897
@<TRIPOS>BOND
     1    25    22    1
     2    23    22    1
     3    22    24    1
     4    22     2    1
     5     3     2    1
     6     3     4    2
     7     2     5    1
     8     4     7    1
     9     5     6    2
    10     7     6    1
    11     7     8    2
    12     6    10    1
    13     8     9    1
    14    21    20   ar
    15    21    16   ar
    16    10    11    1
    17    10    15    1
    18    20    19   ar
    19    11     9    1
    20    11    12    1
    21     9    16    1
    22    16    17   ar
    23    15    14    1
    24    19    18   ar
    25    12    13    1
    26    17    18   ar
    27    14    13    1
    28    14    26    1
    29    26     1    1
    30     1    27   am
    31    27    29    2
    32    27    28   am
    33    28    30    1
    34    30    31    1
    35    31    32    1
    36    32    33    1
    37    32    34    1
