@<TRIPOS>MOLECULE
3l9l_L9L_A_1.pdb
 30 33 0 0 0
SMALL
GASTEIGER

@<TRIPOS>ATOM
      1  C1        28.9430    7.0250    6.4340 C.2   351  L9L351     -0.0145
      2  F1        28.6550    3.7990   11.8450 F     351  L9L351     -0.1659
      3  N1        32.0410    1.4530    6.1440 N.pl3 351  L9L351     -0.2132
      4  O1        25.3400    8.4900   10.7180 O.2   351  L9L351     -0.2138
      5  S1        30.4850    3.3240    7.4590 S.2   351  L9L351     -0.0538
      6  C2        28.0410    8.0320    6.8960 C.2   351  L9L351      0.0288
      7  F2        27.3350    2.2900   12.8090 F     351  L9L351     -0.1659
      8  N2        31.9030    3.7860    5.3270 N.ar  351  L9L351     -0.2216
      9  C3        27.5230    7.8480    8.2330 C.2   351  L9L351      0.1406
     10  F3        26.4330    3.6470   11.1910 F     351  L9L351     -0.1659
     11  N3        30.5480   -1.0390    5.3660 N.3   351  L9L351     -0.1307
     12  C4        27.8710    6.7480    9.0430 C.2   351  L9L351      0.0223
     13  N4        26.5810    8.5670    8.8350 N.2   351  L9L351     -0.3364
     14  C5        28.7780    5.7380    8.5770 C.2   351  L9L351     -0.0177
     15  C6        29.3600    5.8680    7.2270 C.3   351  L9L351      0.0737
     16  C7        30.2010   -0.1500    6.5220 C.3   351  L9L351      0.1177
     17  C8        26.2330    8.0430   10.0240 C.1   351  L9L351      0.1848
     18  C9        30.3570    4.8600    6.7270 C.ar  351  L9L351      0.0368
     19  C10       31.2020    4.9580    5.5640 C.ar  351  L9L351      0.1037
     20  C11       31.6230    2.8360    6.2550 C.ar  351  L9L351      0.1789
     21  C12       31.4900    0.4680    7.0710 C.3   351  L9L351      0.1336
     22  C13       27.8380    0.8960    8.2950 C.ar  351  L9L351     -0.0043
     23  C14       27.4180    1.8890    9.2580 C.ar  351  L9L351      0.0035
     24  C15       28.0290    1.9740   10.5960 C.ar  351  L9L351      0.0714
     25  C16       29.1460    1.0400   10.8900 C.ar  351  L9L351      0.0035
     26  C17       29.5610    0.0230    9.9600 C.ar  351  L9L351     -0.0043
     27  C18       28.9070    0.0330    8.6730 C.ar  351  L9L351     -0.0207
     28  C19       27.5650    3.0040   11.6880 C.3   351  L9L351      0.4186
     29  C20       29.4060   -0.9170    7.5860 C.3   351  L9L351      0.0472
     30  C21       27.1220    6.8330   10.3540 C.3   351  L9L351      0.1633
@<TRIPOS>BOND
     1     8    19   ar
     2     8    20   ar
     3    11    16    1
     4    19    18   ar
     5     3    20    1
     6     3    21    1
     7    20     5   ar
     8     1     6    2
     9     1    15    1
    10    16    21    1
    11    16    29    1
    12    18    15    1
    13    18     5   ar
    14     6     9    1
    15    15    14    1
    16    29    27    1
    17     9    13    2
    18     9    12    1
    19    22    27   ar
    20    22    23   ar
    21    14    12    2
    22    27    26   ar
    23    13    17    2
    24    12    30    1
    25    23    24   ar
    26    26    25   ar
    27    17    30    1
    28    17     4    2
    29    24    25   ar
    30    24    28    1
    31    10    28    1
    32    28     2    1
    33    28     7    1
