@<TRIPOS>MOLECULE
3l9m_L9M_A_1.pdb
 27 30 0 0 0
SMALL
GASTEIGER

@<TRIPOS>ATOM
      1  C1        27.7810    1.1500    8.8420 C.ar  351  L9M351     -0.0045
      2  N1        25.6970    8.4820    9.3970 N.2   351  L9M351     -0.1523
      3  S1        30.0540    3.5020    7.6100 S.2   351  L9M351     -0.0328
      4  C2        27.3810    2.0450    9.9040 C.ar  351  L9M351     -0.0046
      5  N2        31.5370    4.0450    5.6520 N.ar  351  L9M351     -0.1243
      6  C3        28.1870    2.0530   11.1160 C.ar  351  L9M351     -0.0219
      7  N3        30.5300   -0.8930    5.7050 N.3   351  L9M351     -0.1307
      8  C4        29.3640    1.2250   11.3350 C.ar  351  L9M351     -0.0046
      9  N4        26.2750    9.0600    8.3410 N.2   351  L9M351     -0.1483
     10  C5        29.7520    0.3440   10.2740 C.ar  351  L9M351     -0.0045
     11  N5        30.8120    5.0500    5.7470 N.ar  351  L9M351     -0.1433
     12  C6        28.9600    0.3250    9.0570 C.ar  351  L9M351     -0.0207
     13  N6        31.9660    1.7630    6.3140 N.pl3 351  L9M351     -0.2118
     14  C7        31.4970    0.7340    7.2850 C.3   351  L9M351      0.1336
     15  C8        29.4160   -0.6210    7.9330 C.3   351  L9M351      0.0472
     16  C9        26.1770    7.2750    9.6450 C.2   351  L9M351      0.0821
     17  C10       30.2030    0.0630    6.8040 C.3   351  L9M351      0.1177
     18  C11       29.0360    7.3230    6.2970 C.2   351  L9M351     -0.0139
     19  C12       31.3030    2.9930    6.4540 C.ar  351  L9M351      0.2012
     20  C13       28.1390    8.4110    6.6210 C.2   351  L9M351      0.0171
     21  C14       27.2330    8.2640    7.7620 C.2   351  L9M351      0.1034
     22  C15       27.1860    7.0510    8.6160 C.2   351  L9M351      0.0311
     23  C16       28.0920    5.9700    8.2750 C.2   351  L9M351     -0.0127
     24  C17       29.0030    6.1150    7.1230 C.3   351  L9M351      0.0923
     25  C18       25.7470    6.4170   10.7630 C.3   351  L9M351      0.0540
     26  C19       29.9220    5.0400    6.7610 C.ar  351  L9M351      0.1201
     27  CL1       27.6800    3.1600   12.3800 C.3   351  L9M351      0.0310
@<TRIPOS>BOND
     1     5    11   ar
     2     5    19   ar
     3     7    17    1
     4    11    26   ar
     5    18    20    2
     6    18    24    1
     7    13    19    1
     8    13    14    1
     9    19     3   ar
    10    20    21    1
    11    26    24    1
    12    26     3   ar
    13    17    14    1
    14    17    15    1
    15    24    23    1
    16    21     9    2
    17    21    22    1
    18    15    12    1
    19    23    22    2
    20     9     2    1
    21    22    16    1
    22     1    12   ar
    23     1     4   ar
    24    12    10   ar
    25     2    16    2
    26    16    25    1
    27     4     6   ar
    28    10     8   ar
    29     6     8   ar
    30     6    27    1
