@<TRIPOS>MOLECULE
3l9n_L9N_A_1.pdb
 26 29 0 0 0
SMALL
GASTEIGER

@<TRIPOS>ATOM
      1  C1        33.2850   19.8420   57.4660 C.ar  351  L9N351     -0.0045
      2  N1        34.7850   12.6360   55.9320 N.2   351  L9N351     -0.1464
      3  S1        31.0860   17.6540   58.9400 S.2   351  L9N351     -0.0328
      4  C2        34.2570   18.7700   57.5560 C.ar  351  L9N351     -0.0046
      5  N2        28.6840   17.3840   59.3000 N.ar  351  L9N351     -0.1243
      6  C3        34.9850   18.6460   58.8070 C.ar  351  L9N351     -0.0219
      7  N3        29.6000   22.2690   58.5680 N.3   351  L9N351     -0.1307
      8  C4        34.8130   19.5120   59.9510 C.ar  351  L9N351     -0.0046
      9  N4        33.5410   12.1190   55.8610 N.2   351  L9N351     -0.1479
     10  C5        33.8510   20.5700   59.8560 C.ar  351  L9N351     -0.0045
     11  N5        28.9930   16.2070   58.6980 N.ar  351  L9N351     -0.1433
     12  C6        33.1040   20.7110   58.6180 C.ar  351  L9N351     -0.0207
     13  N6        29.4300   19.6270   60.1750 N.pl3 351  L9N351     -0.2118
     14  C7        30.4600   20.6520   60.1920 C.3   351  L9N351      0.1336
     15  C8        32.0450   21.8180   58.5330 C.3   351  L9N351      0.0472
     16  C9        34.6460   13.8420   56.5680 C.2   351  L9N351      0.1233
     17  C10       30.6360   21.2270   58.7690 C.3   351  L9N351      0.1177
     18  C11       30.3580   13.8280   57.2290 C.2   351  L9N351     -0.0139
     19  C12       29.6280   18.3220   59.5400 C.ar  351  L9N351      0.2012
     20  C13       31.0830   12.7200   56.5520 C.2   351  L9N351      0.0171
     21  C14       32.5250   12.8370   56.3860 C.2   351  L9N351      0.1038
     22  C15       33.2650   14.0390   56.8860 C.2   351  L9N351      0.0368
     23  C16       32.5200   15.0970   57.5440 C.2   351  L9N351     -0.0124
     24  C17       31.0550   15.0350   57.7380 C.3   351  L9N351      0.0923
     25  C18       30.3390   16.1750   58.4130 C.ar  351  L9N351      0.1201
     26  CL1       36.1800   17.3630   59.0120 C.3   351  L9N351      0.0310
@<TRIPOS>BOND
     1     9     2    1
     2     9    21    2
     3     2    16    2
     4    21    20    1
     5    21    22    1
     6    20    18    2
     7    16    22    1
     8    22    23    2
     9    18    24    1
    10     1     4   ar
    11     1    12   ar
    12    23    24    1
    13     4     6   ar
    14    24    25    1
    15    25    11   ar
    16    25     3   ar
    17    15    12    1
    18    15    17    1
    19     7    17    1
    20    12    10   ar
    21    11     5   ar
    22    17    14    1
    23     6    26    1
    24     6     8   ar
    25     3    19   ar
    26     5    19   ar
    27    19    13    1
    28    10     8   ar
    29    13    14    1
