@<TRIPOS>MOLECULE
3l9r_FUC_G_1.pdb
 10 10 0 0 0
SMALL
GASTEIGER

@<TRIPOS>ATOM
      1  C1         8.2710  -22.7360  -41.5180 C.3   506  FUC506      0.1776
      2  C2         6.7770  -22.9710  -41.3120 C.3   506  FUC506      0.2141
      3  C3         6.5000  -23.4810  -39.9060 C.3   506  FUC506      0.2172
      4  C4         7.1370  -22.5480  -38.8750 C.3   506  FUC506      0.2116
      5  C5         8.6090  -22.2690  -39.2280 C.3   506  FUC506      0.1483
      6  C6         9.2520  -21.1950  -38.3660 C.3   506  FUC506      0.0349
      7  O2         6.3360  -23.9590  -42.1990 O.3   506  FUC506     -0.2176
      8  O3         5.1080  -23.5700  -39.7320 O.3   506  FUC506     -0.2175
      9  O4         6.4050  -21.3330  -38.8580 O.3   506  FUC506     -0.2177
     10  O5         8.7480  -21.8170  -40.5650 O.3   506  FUC506     -0.3508
@<TRIPOS>BOND
     1     7     2    1
     2     1     2    1
     3     1    10    1
     4     2     3    1
     5    10     5    1
     6     3     8    1
     7     3     4    1
     8     5     4    1
     9     5     6    1
    10     4     9    1
