@<TRIPOS>MOLECULE
3l9r_NAG_A_1.pdb
 14 14 0 0 0
SMALL
GASTEIGER

@<TRIPOS>ATOM
      1  C1        92.9740  -51.0370   20.3450 C.3   501  NAG501      0.1665
      2  C2        94.4780  -51.2380   20.1410 C.3   501  NAG501      0.1576
      3  C3        94.8140  -52.0750   18.9120 C.3   501  NAG501      0.2069
      4  C4        93.7490  -53.0780   18.4850 C.3   501  NAG501      0.2134
      5  C5        92.3380  -52.5070   18.6100 C.3   501  NAG501      0.1809
      6  C6        91.2580  -53.5240   18.2250 C.3   501  NAG501      0.2141
      7  C7        95.7890  -49.3740   20.8520 C.2   501  NAG501      0.2420
      8  C8        96.3800  -48.0130   20.6200 C.3   501  NAG501      0.0964
      9  N2        95.0480  -49.9110   19.9020 N.am  501  NAG501     -0.2019
     10  O3        96.0450  -52.7490   19.0550 O.3   501  NAG501     -0.2184
     11  O4        94.0660  -53.3780   17.1470 O.3   501  NAG501     -0.2176
     12  O5        92.1650  -52.1310   19.9550 O.3   501  NAG501     -0.3489
     13  O6        91.6030  -54.7870   18.7620 O.3   501  NAG501     -0.2176
     14  O7        95.9880  -49.9910   21.9090 O.2   501  NAG501     -0.2733
@<TRIPOS>BOND
     1    11     4    1
     2     6     5    1
     3     6    13    1
     4     4     5    1
     5     4     3    1
     6     5    12    1
     7     3    10    1
     8     3     2    1
     9     9     2    1
    10     9     7   am
    11    12     1    1
    12     2     1    1
    13     8     7    1
    14     7    14    2
