@<TRIPOS>MOLECULE
3l9w_FMN_A_1.pdb
 31 33 0 0 0
SMALL
GASTEIGER

@<TRIPOS>ATOM
      1  N1       -15.3960  -16.9290  -37.5420 N.2   2400  FMN2400    -0.2887
      2  C2       -15.8610  -17.6790  -38.6110 C.1   2400  FMN2400     0.3669
      3  O2       -15.0650  -18.2740  -39.3320 O.2   2400  FMN2400    -0.1744
      4  N3       -17.2150  -17.7840  -38.8430 N.2   2400  FMN2400    -0.2300
      5  C4       -18.1050  -17.1380  -38.0150 C.1   2400  FMN2400     0.2513
      6  O4       -19.2820  -17.1230  -38.3480 O.2   2400  FMN2400    -0.2057
      7  C4A      -17.6350  -16.3590  -36.9370 C.2   2400  FMN2400     0.2703
      8  N5       -18.5160  -15.7170  -36.0750 N.2   2400  FMN2400    -0.3882
      9  C5A      -18.0240  -14.9330  -35.0330 C.2   2400  FMN2400     0.1277
     10  C6       -18.9220  -14.2550  -34.1810 C.3   2400  FMN2400     0.0820
     11  C7       -18.4420  -13.4650  -33.1190 C.2   2400  FMN2400    -0.0408
     12  C7M      -19.4340  -12.5880  -32.3690 C.3   2400  FMN2400     0.0265
     13  C8       -17.0430  -13.3740  -32.8990 C.2   2400  FMN2400    -0.0280
     14  C8M      -16.4700  -12.2700  -32.0280 C.3   2400  FMN2400     0.0304
     15  C9       -16.1530  -14.0530  -33.7400 C.2   2400  FMN2400     0.0123
     16  C9A      -16.6320  -14.8280  -34.8170 C.2   2400  FMN2400     0.0793
     17  N10      -15.7480  -15.5070  -35.6610 N.pl3 2400  FMN2400    -0.2545
     18  C10      -16.2650  -16.2770  -36.7020 C.2   2400  FMN2400     0.2449
     19  C1'      -14.2470  -15.2920  -35.5790 C.3   2400  FMN2400     0.1336
     20  C2'      -13.7050  -14.0490  -36.3070 C.3   2400  FMN2400     0.2048
     21  O2'      -13.9500  -13.9580  -37.7110 O.3   2400  FMN2400    -0.2185
     22  C3'      -12.1940  -14.0000  -36.1140 C.3   2400  FMN2400     0.2165
     23  O3'      -11.9090  -14.0420  -34.7170 O.3   2400  FMN2400    -0.2175
     24  C4'      -11.6340  -12.7330  -36.7120 C.3   2400  FMN2400     0.2147
     25  O4'      -11.6830  -12.7460  -38.1440 O.3   2400  FMN2400    -0.2176
     26  C5'      -10.1940  -12.5140  -36.2650 C.3   2400  FMN2400     0.1892
     27  O5'       -9.7070  -11.3240  -36.8610 O.3   2400  FMN2400    -0.2674
     28  P         -9.0000  -10.1810  -35.9600 P.3   2400  FMN2400     0.5327
     29  O1P       -8.7040   -9.0290  -36.8320 O.2   2400  FMN2400    -0.2224
     30  O2P       -9.8380   -9.9640  -34.7340 O.3   2400  FMN2400    -0.1145
     31  O3P       -7.6640  -10.7230  -35.4370 O.3   2400  FMN2400    -0.1145
@<TRIPOS>BOND
     1     3     2    2
     2     4     2    2
     3     4     5    2
     4     2     1    2
     5     6     5    2
     6    25    24    1
     7     5     7    1
     8    21    20    1
     9     1    18    2
    10     7    18    1
    11     7     8    2
    12    27    26    1
    13    27    28    1
    14    29    28    2
    15    24    26    1
    16    24    22    1
    17    18    17    1
    18    20    22    1
    19    20    19    1
    20    22    23    1
    21     8     9    2
    22    28    31    1
    23    28    30    1
    24    17    19    1
    25    17    16    1
    26     9    16    1
    27     9    10    1
    28    16    15    2
    29    10    11    1
    30    15    13    1
    31    11    13    2
    32    11    12    1
    33    13    14    1
