@<TRIPOS>MOLECULE
3l9w_AMP_A_1.pdb
 23 25 0 0 0
SMALL
GASTEIGER

@<TRIPOS>ATOM
      1  P        -21.6690   19.6600   -9.2640 P.3   2401  AMP2401     0.5327
      2  O1P      -20.8430   18.7010  -10.0580 O.2   2401  AMP2401    -0.2224
      3  O2P      -22.6590   18.9020   -8.4180 O.3   2401  AMP2401    -0.1145
      4  O3P      -22.1960   20.8490   -9.9570 O.3   2401  AMP2401    -0.1145
      5  O5'      -20.7020   20.1580   -8.0560 O.3   2401  AMP2401    -0.2675
      6  C5'      -19.4320   20.7580   -8.3670 C.3   2401  AMP2401     0.1860
      7  C4'      -18.3530   20.2100   -7.4760 C.3   2401  AMP2401     0.1823
      8  O4'      -17.1880   20.9890   -7.8260 O.3   2401  AMP2401    -0.3135
      9  C3'      -18.7390   20.5100   -6.0040 C.3   2401  AMP2401     0.2184
     10  O3'      -18.5810   19.3050   -5.2470 O.3   2401  AMP2401    -0.2174
     11  C2'      -17.7140   21.5710   -5.6190 C.3   2401  AMP2401     0.2570
     12  O2'      -17.3450   21.4900   -4.2520 O.3   2401  AMP2401    -0.2130
     13  C1'      -16.5130   21.2860   -6.5710 C.3   2401  AMP2401     0.3186
     14  N9       -15.6540   22.4670   -6.7480 N.pl3 2401  AMP2401    -0.1439
     15  C8       -15.9790   23.7130   -7.1650 C.3   2401  AMP2401     0.3377
     16  N7       -14.8810   24.5170   -7.1660 N.2   2401  AMP2401    -0.2095
     17  C5       -13.8200   23.7490   -6.8140 C.2   2401  AMP2401     0.2526
     18  C6       -12.3700   23.9520   -6.6330 C.2   2401  AMP2401     0.4393
     19  N6       -11.8530   25.1560   -6.8530 N.pl3 2401  AMP2401     0.2180
     20  N1       -11.6370   22.8990   -6.2390 N.2   2401  AMP2401     0.0021
     21  C2       -12.1470   21.6750   -5.9910 C.3   2401  AMP2401     0.5254
     22  N3       -13.4920   21.4460   -6.1420 N.2   2401  AMP2401    -0.0055
     23  C4       -14.3170   22.4210   -6.5510 C.2   2401  AMP2401     0.3518
@<TRIPOS>BOND
     1     2     1    2
     2     4     1    1
     3     1     3    1
     4     1     5    1
     5     6     5    1
     6     6     7    1
     7     8     7    1
     8     8    13    1
     9     7     9    1
    10    16    15    1
    11    16    17    2
    12    15    14    1
    13    19    18    1
    14    17    18    1
    15    17    23    1
    16    14    13    1
    17    14    23    1
    18    18    20    2
    19    13    11    1
    20    23    22    2
    21    20    21    1
    22    22    21    1
    23     9    11    1
    24     9    10    1
    25    11    12    1
