@<TRIPOS>MOLECULE
3l9w_GSH_B_1.pdb
 20 19 0 0 0
SMALL
GASTEIGER

@<TRIPOS>ATOM
      1  N1       -27.4230   18.4110   -3.1540 N.pl3   1  GSH1       -0.1215
      2  CA1      -26.5260   18.4280   -4.3700 C.2     1  GSH1        0.1647
      3  C1       -26.7670   19.4570   -5.3260 C.2     1  GSH1        0.4039
      4  O11      -25.8550   20.1480   -5.8470 O.co2   1  GSH1       -0.2390
      5  O12      -27.9580   19.5580   -5.6440 O.co2   1  GSH1       -0.2390
      6  CB1      -25.7380   17.1950   -4.7970 C.2     1  GSH1        0.0083
      7  CG1      -25.8910   15.9820   -3.9290 C.3     1  GSH1        0.1144
      8  CD1      -25.1080   14.9300   -4.6390 C.2     1  GSH1        0.2463
      9  OE1      -23.7640   15.1650   -4.9560 O.2     1  GSH1       -0.2730
     10  N2       -25.7570   13.7960   -4.8940 N.am    1  GSH1       -0.1965
     11  CA2      -25.1400   12.6230   -5.4760 C.3     1  GSH1        0.1843
     12  C2       -25.4600   12.5520   -6.9440 C.2     1  GSH1        0.2627
     13  O2       -26.7230   12.8580   -7.3470 O.2     1  GSH1       -0.2714
     14  CB2      -25.6420   11.3670   -4.7920 C.3     1  GSH1        0.0997
     15  SG2      -24.9180   11.3600   -3.0960 S.3     1  GSH1       -0.0797
     16  N3       -24.5090   12.2120   -7.8020 N.am    1  GSH1       -0.1917
     17  CA3      -24.8530   12.1650   -9.2090 C.3     1  GSH1        0.2285
     18  C3       -25.5900   10.9070   -9.4450 C.2     1  GSH1        0.3865
     19  O31      -26.4080   10.8040  -10.4030 O.co2   1  GSH1       -0.2437
     20  O32      -25.3660    9.9320   -8.7000 O.co2   1  GSH1       -0.2437
@<TRIPOS>BOND
     1    19    18   ar
     2    18    17    1
     3    18    20   ar
     4    17    16    1
     5    16    12   am
     6    13    12    2
     7    12    11    1
     8     4     3   ar
     9     5     3   ar
    10    11    10    1
    11    11    14    1
    12     3     2    1
    13     9     8    2
    14    10     8   am
    15     6     2    2
    16     6     7    1
    17    14    15    1
    18     8     7    1
    19     2     1    1
