@<TRIPOS>MOLECULE
3l9x_FMN_A_1.pdb
 31 33 0 0 0
SMALL
GASTEIGER

@<TRIPOS>ATOM
      1  N1       -15.7770  -16.2130  -37.7500 N.2   2400  FMN2400    -0.2887
      2  C2       -16.2610  -16.9920  -38.7680 C.1   2400  FMN2400     0.3669
      3  O2       -15.4710  -17.6010  -39.4750 O.2   2400  FMN2400    -0.1744
      4  N3       -17.6260  -17.0860  -38.9750 N.2   2400  FMN2400    -0.2300
      5  C4       -18.4960  -16.4160  -38.1470 C.1   2400  FMN2400     0.2513
      6  O4       -19.6100  -16.2560  -38.5880 O.2   2400  FMN2400    -0.2057
      7  C4A      -18.0050  -15.6180  -37.1020 C.2   2400  FMN2400     0.2706
      8  N5       -18.8460  -14.9230  -36.2460 N.2   2400  FMN2400    -0.3841
      9  C5A      -18.3190  -14.1400  -35.2360 C.2   2400  FMN2400     0.1452
     10  C6       -19.1770  -13.4460  -34.3880 C.2   2400  FMN2400     0.0252
     11  C7       -18.6790  -12.6400  -33.3490 C.2   2400  FMN2400    -0.0375
     12  C7M      -19.6620  -11.6640  -32.7030 C.3   2400  FMN2400     0.0268
     13  C8       -17.2570  -12.5730  -33.1810 C.3   2400  FMN2400     0.0417
     14  C8M      -16.5410  -11.6850  -32.1850 C.3   2400  FMN2400     0.0091
     15  C9       -16.4110  -13.2870  -34.0380 C.2   2400  FMN2400    -0.0049
     16  C9A      -16.9270  -14.0620  -35.0670 C.2   2400  FMN2400     0.0795
     17  N10      -16.0700  -14.7600  -35.9200 N.pl3 2400  FMN2400    -0.2545
     18  C10      -16.6190  -15.5390  -36.9100 C.2   2400  FMN2400     0.2449
     19  C1'      -14.5600  -14.6390  -35.8580 C.3   2400  FMN2400     0.1336
     20  C2'      -14.0040  -13.3430  -36.4400 C.3   2400  FMN2400     0.2048
     21  O2'      -14.3450  -13.2170  -37.8020 O.3   2400  FMN2400    -0.2185
     22  C3'      -12.4760  -13.3470  -36.3500 C.3   2400  FMN2400     0.2165
     23  O3'      -12.0980  -13.4620  -34.9870 O.3   2400  FMN2400    -0.2175
     24  C4'      -11.8790  -12.0840  -36.9640 C.3   2400  FMN2400     0.2147
     25  O4'      -12.0140  -12.0380  -38.3900 O.3   2400  FMN2400    -0.2176
     26  C5'      -10.4160  -11.9380  -36.5560 C.3   2400  FMN2400     0.1892
     27  O5'       -9.9670  -10.7350  -37.1170 O.3   2400  FMN2400    -0.2674
     28  P         -9.3140   -9.6400  -36.1680 P.3   2400  FMN2400     0.5327
     29  O1P       -9.0550   -8.4500  -37.0100 O.2   2400  FMN2400    -0.2224
     30  O2P      -10.2420   -9.4210  -34.9950 O.3   2400  FMN2400    -0.1145
     31  O3P       -7.9910  -10.1150  -35.6330 O.3   2400  FMN2400    -0.1145
@<TRIPOS>BOND
     1     3     2    2
     2     4     2    2
     3     4     5    2
     4     2     1    2
     5     6     5    2
     6    25    24    1
     7     5     7    1
     8    21    20    1
     9     1    18    2
    10    27    26    1
    11    27    28    1
    12     7    18    1
    13     7     8    2
    14    29    28    2
    15    24    26    1
    16    24    22    1
    17    18    17    1
    18    20    22    1
    19    20    19    1
    20    22    23    1
    21     8     9    2
    22    28    31    1
    23    28    30    1
    24    17    19    1
    25    17    16    1
    26     9    16    1
    27     9    10    1
    28    16    15    2
    29    10    11    2
    30    15    13    1
    31    11    13    1
    32    11    12    1
    33    13    14    1
