@<TRIPOS>MOLECULE
3l9x_L9X_B_1.pdb
 29 29 0 0 0
SMALL
GASTEIGER

@<TRIPOS>ATOM
      1  C1       -26.8740   20.2390   -5.4040 C.2   1178  L9X1178     0.4028
      2  N1       -27.4550   19.0610   -3.4490 N.2   1178  L9X1178    -0.1458
      3  C2       -25.6980   13.3160   -6.9850 C.2   1178  L9X1178     0.2626
      4  N2       -25.8590   14.4940   -4.8450 N.am  1178  L9X1178    -0.1968
      5  O2       -26.8440   13.5740   -7.3410 O.2   1178  L9X1178    -0.2714
      6  C3       -25.7150   11.6920   -9.5260 C.2   1178  L9X1178     0.3865
      7  N3       -24.7170   13.0240   -7.8370 N.am  1178  L9X1178    -0.1917
      8  C1'      -24.1890    8.0880    1.1750 C.3   1178  L9X1178     0.0237
      9  N1'      -25.0890    9.2520   -0.7680 N.am  1178  L9X1178    -0.2292
     10  O1'      -26.0700    7.4190   -1.7280 O.2   1178  L9X1178    -0.2744
     11  O11      -28.0040   20.7860   -5.4260 O.co2 1178  L9X1178    -0.2392
     12  O12      -25.9040   20.6390   -6.1330 O.co2 1178  L9X1178    -0.2392
     13  C2'      -25.3240    8.9390    0.6420 C.3   1178  L9X1178     0.1010
     14  O2'      -23.7770   11.0270   -0.4760 O.2   1178  L9X1178    -0.2735
     15  C3'      -25.5630    8.5310   -1.7960 C.2   1178  L9X1178     0.2327
     16  O31      -26.6030   11.7600  -10.4110 O.co2 1178  L9X1178    -0.2437
     17  O32      -25.5070   10.6670   -8.8060 O.co2 1178  L9X1178    -0.2437
     18  C4'      -25.3630    9.2430   -3.1120 C.3   1178  L9X1178     0.1057
     19  C5'      -24.4080   10.3570   -2.6900 C.3   1178  L9X1178     0.1335
     20  C6'      -24.4010   10.2420   -1.1850 C.2   1178  L9X1178     0.2415
     21  CA1      -26.7340   19.0940   -4.4960 C.2   1178  L9X1178     0.1602
     22  CA2      -25.3040   13.3410   -5.5370 C.3   1178  L9X1178     0.1834
     23  CA3      -24.8690   12.9130   -9.2800 C.3   1178  L9X1178     0.2285
     24  CB1      -25.9000   17.9090   -4.9080 C.3   1178  L9X1178     0.0642
     25  CB2      -25.8310   12.1150   -4.7980 C.3   1178  L9X1178     0.0890
     26  CD1      -25.1710   15.6260   -4.6860 C.2   1178  L9X1178     0.2422
     27  OE1      -24.0210   15.7840   -5.0950 O.2   1178  L9X1178    -0.2733
     28  CG1      -25.8820   16.7350   -3.9450 C.3   1178  L9X1178     0.0934
     29  SG2      -24.9760   11.9480   -3.2450 S.3   1178  L9X1178    -0.1291
@<TRIPOS>BOND
     1    16     6   ar
     2     6    23    1
     3     6    17   ar
     4    23     7    1
     5     7     3   am
     6     5     3    2
     7     3    22    1
     8    12     1   ar
     9    22     4    1
    10    22    25    1
    11    11     1   ar
    12     1    21    1
    13    27    26    2
    14    24    21    1
    15    24    28    1
    16     4    26   am
    17    25    29    1
    18    26    28    1
    19    21     2    2
    20    29    19    1
    21    18    19    1
    22    18    15    1
    23    19    20    1
    24    15    10    2
    25    15     9   am
    26    20     9   am
    27    20    14    2
    28     9    13    1
    29    13     8    1
