@<TRIPOS>MOLECULE
3la2_AKG_A_1.pdb
 10 9 0 0 0
SMALL
GASTEIGER

@<TRIPOS>ATOM
      1  C1        -5.9100   -6.2400   -9.0440 C.2   224  AKG224      0.4219
      2  O1        -6.0810   -5.1120   -8.6310 O.co2 224  AKG224     -0.2373
      3  O2        -4.7580   -6.5320   -9.7730 O.co2 224  AKG224     -0.2373
      4  C2        -6.4220   -7.4150   -8.2220 C.2   224  AKG224      0.2526
      5  O5        -6.3740   -7.3290   -7.0490 O.2   224  AKG224     -0.2843
      6  C3        -6.9370   -8.6990   -8.8340 C.3   224  AKG224      0.0881
      7  C4        -7.9680   -9.4370   -7.9700 C.3   224  AKG224      0.1224
      8  C5        -9.0770   -8.5780   -7.3530 C.2   224  AKG224      0.3653
      9  O3        -9.1360   -7.2160   -7.7090 O.co2 224  AKG224     -0.2456
     10  O4       -10.0440   -9.1060   -6.8870 O.co2 224  AKG224     -0.2456
@<TRIPOS>BOND
     1     3     1   ar
     2     1     2   ar
     3     1     4    1
     4     6     4    1
     5     6     7    1
     6     4     5    2
     7     7     8    1
     8     9     8   ar
     9     8    10   ar
