@<TRIPOS>MOLECULE
3la3_2FT_A_1.pdb
 11 10 0 0 0
SMALL
GASTEIGER

@<TRIPOS>ATOM
      1  O01        0.4910   36.7290   24.7290 O.co2 224  2FT224     -0.2457
      2  C02       -0.5810   36.0550   25.3100 C.2   224  2FT224      0.3651
      3  O03       -1.2860   36.7200   26.0010 O.co2 224  2FT224     -0.2457
      4  C04       -0.3290   34.6180   25.7620 C.3   224  2FT224      0.1203
      5  C05        1.0990   34.1400   25.5970 C.3   224  2FT224      0.0900
      6  C06        1.2130   33.7330   24.1300 C.3   224  2FT224      0.3551
      7  F07        0.8080   34.7750   23.3510 F     224  2FT224     -0.1923
      8  F08        0.2910   32.7640   23.8790 F     224  2FT224     -0.1923
      9  C09        2.6170   33.2910   23.7270 C.2   224  2FT224      0.4245
     10  O10        3.4680   34.1000   23.5870 O.co2 224  2FT224     -0.2396
     11  O11        2.7590   32.0300   23.1710 O.co2 224  2FT224     -0.2396
@<TRIPOS>BOND
     1    11     9   ar
     2     7     6    1
     3    10     9   ar
     4     9     6    1
     5     8     6    1
     6     6     5    1
     7     1     2   ar
     8     2     4    1
     9     2     3   ar
    10     5     4    1
