@<TRIPOS>MOLECULE
3la6_ADP_A_1.pdb
 27 29 0 0 0
SMALL
GASTEIGER

@<TRIPOS>ATOM
      1  PB        13.3990   -1.9130  -56.6900 P.3   1000  ADP1000     0.5373
      2  O1B       14.8330   -1.7810  -56.1710 O.3   1000  ADP1000    -0.1143
      3  O2B       13.3450   -2.7650  -57.9430 O.2   1000  ADP1000    -0.2221
      4  O3B       12.4460   -2.6150  -55.6710 O.3   1000  ADP1000    -0.1143
      5  PA        11.9660    0.2340  -57.9680 P.3   1000  ADP1000     0.2231
      6  O1A       10.5280   -0.2420  -57.7100 O.3   1000  ADP1000    -0.4370
      7  O2A       12.3450    0.1170  -59.4570 O.2   1000  ADP1000    -0.5169
      8  O3A       13.0180   -0.4220  -56.9610 O.3   1000  ADP1000    -0.2261
      9  O5'       12.0640    1.7840  -57.6830 O.3   1000  ADP1000    -0.3111
     10  C5'       11.4710    2.1670  -56.4380 C.3   1000  ADP1000     0.1813
     11  C4'       11.1040    3.6290  -56.5370 C.3   1000  ADP1000     0.1821
     12  O4'       12.2400    4.4590  -56.8820 O.3   1000  ADP1000    -0.3135
     13  C3'       10.0520    3.8530  -57.6150 C.3   1000  ADP1000     0.2184
     14  O3'        9.0010    4.6770  -57.1180 O.3   1000  ADP1000    -0.2174
     15  C2'       10.8620    4.4250  -58.7850 C.3   1000  ADP1000     0.2570
     16  O2'        9.9970    5.2290  -59.6260 O.3   1000  ADP1000    -0.2130
     17  C1'       11.8940    5.2450  -58.0370 C.3   1000  ADP1000     0.3186
     18  N9        13.0950    5.4760  -58.7470 N.pl3 1000  ADP1000    -0.1439
     19  C8        14.0650    4.5570  -59.0270 C.3   1000  ADP1000     0.3377
     20  N7        15.0860    5.1080  -59.6780 N.2   1000  ADP1000    -0.2095
     21  C5        14.7730    6.4430  -59.8680 C.2   1000  ADP1000     0.2526
     22  C6        15.4640    7.5240  -60.5050 C.2   1000  ADP1000     0.4393
     23  N6        16.6860    7.4420  -61.1090 N.pl3 1000  ADP1000     0.2180
     24  N1        14.8560    8.7210  -60.4800 N.2   1000  ADP1000     0.0021
     25  C2        13.6090    8.8620  -59.8520 C.3   1000  ADP1000     0.5254
     26  N3        12.8370    7.9010  -59.2330 N.2   1000  ADP1000    -0.0055
     27  C4        13.4940    6.6970  -59.2700 C.2   1000  ADP1000     0.3518
@<TRIPOS>BOND
     1    23    22    1
     2    22    24    2
     3    22    21    1
     4    24    25    1
     5    21    20    2
     6    21    27    1
     7    25    26    1
     8    20    19    1
     9    16    15    1
    10     7     5    2
    11    27    26    2
    12    27    18    1
    13    19    18    1
    14    15    17    1
    15    15    13    1
    16    18    17    1
    17    17    12    1
    18     5     6    1
    19     5     9    1
    20     5     8    1
    21     3     1    2
    22     9    10    1
    23    13    14    1
    24    13    11    1
    25     8     1    1
    26    12    11    1
    27     1     2    1
    28     1     4    1
    29    11    10    1
