@<TRIPOS>MOLECULE
3lae_III_X_1.pdb
 23 23 0 0 0
SMALL
GASTEIGER

@<TRIPOS>ATOM
      1  N         20.4350   39.8470   41.7260 N.3     1  ILE1       -0.1231
      2  CA        20.9930   39.8830   43.0650 C.3     1  ILE1        0.1692
      3  C         20.1560   40.7320   44.0250 C.2     1  ILE1        0.2592
      4  O         19.6500   41.8000   43.6770 O.2     1  ILE1       -0.2718
      5  CB        22.4740   40.3460   43.0380 C.3     1  ILE1        0.0266
      6  CG1       22.6390   41.7370   43.6530 C.3     1  ILE1        0.0019
      7  CG2       23.0240   40.2920   41.6210 C.3     1  ILE1        0.0020
      8  CD1       23.0690   41.7190   45.1010 C.3     1  ILE1        0.0001
      9  N         20.0010   40.2410   45.2460 N.am    2  PHE2       -0.1962
     10  CA        19.1850   40.9310   46.2320 C.3     2  PHE2        0.1771
     11  C         19.7410   40.6210   47.6000 C.2     2  PHE2        0.2620
     12  O         20.2520   39.5260   47.8250 O.2     2  PHE2       -0.2715
     13  CB        17.7310   40.4830   46.1200 C.3     2  PHE2        0.0574
     14  CG        17.5730   39.0150   45.8850 C.ar    2  PHE2       -0.0200
     15  CD1       17.8280   38.4660   44.6420 C.ar    2  PHE2       -0.0042
     16  CD2       17.1820   38.1780   46.9120 C.ar    2  PHE2       -0.0042
     17  CE1       17.6940   37.1090   44.4250 C.ar    2  PHE2       -0.0003
     18  CE2       17.0470   36.8150   46.7040 C.ar    2  PHE2       -0.0003
     19  CZ        17.3030   36.2830   45.4560 C.ar    2  PHE2       -0.0000
     20  N         19.6610   41.5960   48.5000 N.am    3  GLY3       -0.1954
     21  CA        20.2160   41.4590   49.8340 C.3     3  GLY3        0.1869
     22  C         19.2850   40.7170   50.7700 C.2     3  GLY3        0.2309
     23  O         19.7350   40.0460   51.6980 O.2     3  GLY3       -0.2863
@<TRIPOS>BOND
     1     7     5    1
     2     1     2    1
     3     5     2    1
     4     5     6    1
     5     2     3    1
     6     6     8    1
     7     4     3    2
     8     3     9   am
     9    17    15   ar
    10    17    19   ar
    11    15    14   ar
    12     9    10    1
    13    19    18   ar
    14    14    13    1
    15    14    16   ar
    16    13    10    1
    17    10    11    1
    18    18    16   ar
    19    11    12    2
    20    11    20   am
    21    20    21    1
    22    21    22    1
    23    22    23    2
