@<TRIPOS>MOLECULE
3lah_HEM_A_1.pdb
 43 50 0 0 0
SMALL
GASTEIGER

@<TRIPOS>ATOM
      1  CHA       17.9520    6.2760   14.0910 C.2   200  HEM200      0.0000
      2  CHB       21.8560    3.8360   12.5240 C.2   200  HEM200      0.0000
      3  CHC       19.0010    0.3850   10.6840 C.2   200  HEM200      0.0000
      4  CHD       15.5260    2.0690   13.5670 C.2   200  HEM200      0.0000
      5  C1A       19.2520    5.9670   13.7440 C.ar  200  HEM200      0.0000
      6  C2A       20.4030    6.8510   13.7950 C.ar  200  HEM200      0.0000
      7  C3A       21.4650    6.1720   13.3630 C.ar  200  HEM200      0.0000
      8  C4A       21.0450    4.8340   13.0190 C.ar  200  HEM200      0.0000
      9  CMA       22.9010    6.7380   13.2590 C.3   200  HEM200      0.0000
     10  CAA       20.4490    8.3260   14.2530 C.3   200  HEM200      0.0000
     11  CBA       20.4120    8.5070   15.7650 C.3   200  HEM200      0.0000
     12  CGA       20.6750    9.9670   16.0740 C.2   200  HEM200      0.0000
     13  O1A       20.7650   10.3230   17.2770 O.co2 200  HEM200      0.0000
     14  O2A       20.7940   10.7780   15.1160 O.co2 200  HEM200      0.0000
     15  C1B       21.4340    2.7440   11.7930 C.2   200  HEM200      0.0000
     16  C2B       22.2280    1.9000   10.9010 C.2   200  HEM200      0.0000
     17  C3B       21.4180    0.9390   10.4260 C.2   200  HEM200      0.0000
     18  C4B       20.1000    1.1630   10.9600 C.2   200  HEM200      0.0000
     19  CMB       23.7350    2.0770   10.6080 C.3   200  HEM200      0.0000
     20  CAB       21.6760   -0.2090    9.4270 C.2   200  HEM200      0.0000
     21  CBB       22.3630   -0.0230    8.3030 C.2   200  HEM200      0.0000
     22  C1C       17.8190    0.4810   11.3750 C.ar  200  HEM200      0.0000
     23  C2C       16.7430   -0.4820   11.3850 C.ar  200  HEM200      0.0000
     24  C3C       15.7690   -0.0050   12.1810 C.ar  200  HEM200      0.0000
     25  C4C       16.2190    1.2600   12.7070 C.ar  200  HEM200      0.0000
     26  CMC       16.7560   -1.7970   10.5810 C.3   200  HEM200      0.0000
     27  CAC       14.4100   -0.6490   12.5420 C.2   200  HEM200      0.0000
     28  CBC       14.1540   -1.9350   12.2850 C.2   200  HEM200      0.0000
     29  C1D       15.7790    3.4010   13.7910 C.2   200  HEM200      0.0000
     30  C2D       14.7590    4.3710   14.1020 C.2   200  HEM200      0.0000
     31  C3D       15.4950    5.7030   14.2760 C.2   200  HEM200      0.0000
     32  C4D       16.8970    5.3930   14.0420 C.2   200  HEM200      0.0000
     33  CMD       13.2440    4.0810   14.2340 C.3   200  HEM200      0.0000
     34  CAD       14.8420    7.0670   14.6170 C.3   200  HEM200      0.0000
     35  CBD       15.3090    7.5490   15.9850 C.3   200  HEM200      0.0000
     36  CGD       14.3180    7.1340   17.0390 C.2   200  HEM200      0.0000
     37  O1D       13.1950    6.7050   16.6800 O.co2 200  HEM200      0.0000
     38  O2D       14.6550    7.2200   18.2460 O.co2 200  HEM200      0.0000
     39  NA        19.6810    4.7440   13.2570 N.ar  200  HEM200      0.0000
     40  NB        20.1440    2.2580   11.7960 N.2   200  HEM200      0.0000
     41  NC        17.4710    1.5330   12.1950 N.ar  200  HEM200      0.0000
     42  ND        17.0180    4.0320   13.7610 N.2   200  HEM200      0.0000
     43 FE         18.5810    3.1460   12.7080 Fe    200  HEM200      0.0000
@<TRIPOS>BOND
     1    21    20    2
     2    20    17    1
     3    17    16    2
     4    17    18    1
     5    26    23    1
     6    19    16    1
     7     3    18    2
     8     3    22    1
     9    16    15    1
    10    18    40    1
    11    22    23   ar
    12    22    41   ar
    13    23    24   ar
    14    15    40    2
    15    15     2    1
    16    40    43    1
    17    24    27    1
    18    24    25   ar
    19    41    25   ar
    20    41    43    1
    21    28    27    2
    22     2     8    2
    23    25     4    1
    24    43    39    1
    25    43    42    1
    26     8    39   ar
    27     8     7   ar
    28    39     5   ar
    29     9     7    1
    30     7     6   ar
    31     4    29    2
    32     5     6   ar
    33     5     1    2
    34    42    29    1
    35    42    32    2
    36    29    30    1
    37     6    10    1
    38    32     1    1
    39    32    31    1
    40    30    33    1
    41    30    31    2
    42    10    11    1
    43    31    34    1
    44    34    35    1
    45    14    12   ar
    46    11    12    1
    47    35    36    1
    48    12    13   ar
    49    37    36   ar
    50    36    38   ar
