@<TRIPOS>MOLECULE
3lai_HEM_A_1.pdb
 43 50 0 0 0
SMALL
GASTEIGER

@<TRIPOS>ATOM
      1  CHA      -19.2250   13.4140  -35.3890 C.2   200  HEM200      0.0000
      2  CHB      -23.4310   15.8290  -35.5050 C.2   200  HEM200      0.0000
      3  CHC      -21.4270   19.1230  -38.3910 C.2   200  HEM200      0.0000
      4  CHD      -17.2370   17.7010  -36.4640 C.2   200  HEM200      0.0000
      5  C1A      -20.5650   13.7180  -35.2900 C.2   200  HEM200      0.0000
      6  C2A      -21.6030   12.8120  -34.8530 C.2   200  HEM200      0.0000
      7  C3A      -22.7660   13.4670  -34.8810 C.2   200  HEM200      0.0000
      8  C4A      -22.5000   14.8240  -35.3340 C.2   200  HEM200      0.0000
      9  CMA      -24.1540   12.8890  -34.5010 C.3   200  HEM200      0.0000
     10  CAA      -21.3500   11.3390  -34.4570 C.3   200  HEM200      0.0000
     11  CBA      -21.5070   11.1160  -32.9620 C.3   200  HEM200      0.0000
     12  CGA      -21.4760    9.6230  -32.7720 C.2   200  HEM200      0.0000
     13  O1A      -21.1570    9.1560  -31.6510 O.co2 200  HEM200      0.0000
     14  O2A      -21.7600    8.9040  -33.7670 O.co2 200  HEM200      0.0000
     15  C1B      -23.3220   16.8720  -36.3980 C.ar  200  HEM200      0.0000
     16  C2B      -24.3890   17.6480  -37.0060 C.ar  200  HEM200      0.0000
     17  C3B      -23.8260   18.5450  -37.8110 C.ar  200  HEM200      0.0000
     18  C4B      -22.3880   18.4010  -37.7280 C.ar  200  HEM200      0.0000
     19  CMB      -25.9150   17.4880  -36.8040 C.3   200  HEM200      0.0000
     20  CAB      -24.5830   19.5870  -38.6470 C.2   200  HEM200      0.0000
     21  CBB      -24.0410   20.0360  -39.7810 C.2   200  HEM200      0.0000
     22  C1C      -20.0900   19.0840  -38.0640 C.2   200  HEM200      0.0000
     23  C2C      -19.0650   20.0400  -38.4540 C.2   200  HEM200      0.0000
     24  C3C      -17.9060   19.6300  -37.9350 C.2   200  HEM200      0.0000
     25  C4C      -18.1620   18.4260  -37.1740 C.2   200  HEM200      0.0000
     26  CMC      -19.2820   21.2810  -39.3420 C.3   200  HEM200      0.0000
     27  CAC      -16.5250   20.3070  -38.0240 C.2   200  HEM200      0.0000
     28  CBC      -16.4240   21.6270  -38.2000 C.2   200  HEM200      0.0000
     29  C1D      -17.3240   16.3610  -36.1860 C.ar  200  HEM200      0.0000
     30  C2D      -16.2190   15.4420  -36.1530 C.ar  200  HEM200      0.0000
     31  C3D      -16.8280   14.0780  -35.8050 C.ar  200  HEM200      0.0000
     32  C4D      -18.2480   14.3290  -35.6860 C.ar  200  HEM200      0.0000
     33  CMD      -14.7460   15.8050  -36.4130 C.3   200  HEM200      0.0000
     34  CAD      -16.0750   12.7430  -35.6610 C.3   200  HEM200      0.0000
     35  CBD      -16.1570   12.2150  -34.2330 C.3   200  HEM200      0.0000
     36  CGD      -14.8930   12.6150  -33.4900 C.2   200  HEM200      0.0000
     37  O1D      -14.8290   12.3520  -32.2670 O.co2 200  HEM200      0.0000
     38  O2D      -13.9520   13.2090  -34.0990 O.co2 200  HEM200      0.0000
     39  NA       -21.1440   14.9360  -35.5690 N.2   200  HEM200      0.0000
     40  NB       -22.1270   17.3670  -36.8680 N.ar  200  HEM200      0.0000
     41  NC       -19.4970   18.1210  -37.2760 N.2   200  HEM200      0.0000
     42  ND       -18.4860   15.6720  -35.9150 N.ar  200  HEM200      0.0000
     43 FE        -20.2560   16.5710  -36.4010 Fe    200  HEM200      0.0000
@<TRIPOS>BOND
     1    21    20    2
     2    26    23    1
     3    20    17    1
     4    23    22    1
     5    23    24    2
     6     3    22    2
     7     3    18    1
     8    28    27    2
     9    22    41    1
    10    27    24    1
    11    24    25    1
    12    17    18   ar
    13    17    16   ar
    14    18    40   ar
    15    41    25    2
    16    41    43    1
    17    25     4    1
    18    16    19    1
    19    16    15   ar
    20    40    43    1
    21    40    15   ar
    22     4    29    2
    23    33    30    1
    24    43    42    1
    25    43    39    1
    26    15     2    1
    27    29    30   ar
    28    29    42   ar
    29    30    31   ar
    30    42    32   ar
    31    31    32   ar
    32    31    34    1
    33    32     1    2
    34    34    35    1
    35    39     8    1
    36    39     5    2
    37     2     8    2
    38     1     5    1
    39     8     7    1
    40     5     6    1
    41     7     6    2
    42     7     9    1
    43     6    10    1
    44    10    11    1
    45    35    36    1
    46    38    36   ar
    47    14    12   ar
    48    36    37   ar
    49    11    12    1
    50    12    13   ar
