@<TRIPOS>MOLECULE
3laj_ARG_A_1.pdb
 12 11 0 0 0
SMALL
GASTEIGER

@<TRIPOS>ATOM
      1  N        -25.2780  -18.8940  -51.4480 N.3   200  ARG200     -0.1208
      2  CA       -26.5030  -19.1280  -52.2180 C.3   200  ARG200      0.1944
      3  C        -26.4950  -20.4850  -52.9160 C.2   200  ARG200      0.3819
      4  O        -27.5610  -21.0850  -53.2570 O.co2 200  ARG200     -0.2441
      5  CB       -26.6760  -18.0250  -53.2540 C.3   200  ARG200      0.0343
      6  CG       -25.7020  -18.1030  -54.4140 C.3   200  ARG200      0.0490
      7  CD       -26.1080  -17.0400  -55.4110 C.3   200  ARG200      0.2205
      8  NE       -25.3850  -17.0710  -56.6770 N.pl3 200  ARG200     -0.0865
      9  CZ       -25.8920  -17.5330  -57.8170 C.cat 200  ARG200      0.5346
     10  NH1      -25.1580  -17.4990  -58.9330 N.pl3 200  ARG200      0.1354
     11  NH2      -27.1300  -18.0240  -57.8390 N.pl3 200  ARG200      0.1354
     12  OXT      -25.3760  -20.9770  -53.1520 O.co2 200  ARG200     -0.2441
@<TRIPOS>BOND
     1    10     9    1
     2    11     9    1
     3     9     8    2
     4     8     7    1
     5     7     6    1
     6     6     5    1
     7     4     3   ar
     8     5     2    1
     9    12     3   ar
    10     3     2    1
    11     2     1    1
