@<TRIPOS>MOLECULE
3lak_KR1_A_1.pdb
 31 33 0 0 0
SMALL
GASTEIGER

@<TRIPOS>ATOM
      1  C1         9.7770   10.6110   22.4320 C.1   701  KR1701      0.1004
      2  F1         4.6400    7.0660   17.5350 F     701  KR1701     -0.1692
      3  N1         9.7620    9.9520   23.4440 N.1   701  KR1701     -0.1908
      4  O1         8.9660    9.9400   17.3500 O.3   701  KR1701     -0.2120
      5  C2        10.0620   12.8890   21.3840 C.ar  701  KR1701      0.0060
      6  N2         8.6310   13.2370   13.8250 N.2   701  KR1701     -0.2456
      7  O2        10.8860   13.6750   13.4630 O.2   701  KR1701     -0.2088
      8  C3         9.7760   11.4600   21.2440 C.ar  701  KR1701      0.0679
      9  N3         7.7760   12.0520   15.7350 N.am  701  KR1701     -0.2020
     10  O3         6.3430   12.8390   14.1040 O.2   701  KR1701     -0.1919
     11  C4         9.4910   10.8990   19.9710 C.ar  701  KR1701      0.0088
     12  N4         6.3930    7.6350   13.1420 N.pl3 701  KR1701     -0.0976
     13  C5         9.4970   11.7860   18.8200 C.ar  701  KR1701      0.0136
     14  N5         5.5630    7.4840   15.3490 N.2   701  KR1701     -0.3596
     15  C6         9.7830   13.2250   18.9850 C.ar  701  KR1701     -0.0057
     16  C7        10.0680   13.7540   20.2510 C.ar  701  KR1701     -0.0214
     17  C8         9.2020   11.2000   17.4890 C.3   701  KR1701      0.2110
     18  C9         9.1530   11.9210   16.2220 C.2   701  KR1701      0.0829
     19  C10       10.3810   15.2820   20.3890 C.3   701  KR1701      0.0310
     20  C11       10.2780   12.4310   15.5290 C.2   701  KR1701      0.0858
     21  C12        9.9930   13.1460   14.2310 C.1   701  KR1701      0.2131
     22  C13        7.5330   12.7270   14.5230 C.1   701  KR1701      0.2826
     23  C14       11.7500   12.3230   15.9890 C.3   701  KR1701      0.0356
     24  C15       12.6530   11.5790   14.9090 C.3   701  KR1701      0.0055
     25  C16       12.3270   13.7000   16.2910 C.3   701  KR1701      0.0055
     26  C17        6.5260   11.5410   16.3840 C.3   701  KR1701      0.1314
     27  C18        6.1860   10.0890   16.0160 C.2   701  KR1701     -0.0100
     28  C19        6.4960    9.5540   14.6540 C.3   701  KR1701      0.1020
     29  C20        6.1550    8.2210   14.3770 C.2   701  KR1701      0.2033
     30  C21        5.2560    7.9280   16.6250 C.2   701  KR1701      0.2714
     31  C22        5.5470    9.2300   17.0100 C.2   701  KR1701      0.0567
@<TRIPOS>BOND
     1    12    29    1
     2     7    21    2
     3     6    21    2
     4     6    22    2
     5    10    22    2
     6    21    20    1
     7    29    28    1
     8    29    14    2
     9    22     9   am
    10    28    27    1
    11    24    23    1
    12    14    30    2
    13    20    23    1
    14    20    18    2
    15     9    18    1
    16     9    26    1
    17    23    25    1
    18    27    26    1
    19    27    31    2
    20    18    17    1
    21    30    31    1
    22    30     2    1
    23     4    17    1
    24    17    13    1
    25    13    15   ar
    26    13    11   ar
    27    15    16   ar
    28    11     8   ar
    29    16    19    1
    30    16     5   ar
    31     8     5   ar
    32     8     1    1
    33     1     3    3
