@<TRIPOS>MOLECULE
3lal_KRV_A_1.pdb
 24 25 0 0 0
SMALL
GASTEIGER

@<TRIPOS>ATOM
      1  C1         6.6360   11.7730   16.6360 C.3   561  KRV561      0.1092
      2  C2         6.1900   10.3340   16.2550 C.3   561  KRV561      0.0245
      3  N8         7.8530   12.2330   15.8290 N.am  561  KRV561     -0.2019
      4  C9         7.6070   12.7290   14.5950 C.1   561  KRV561      0.2826
      5  N10        8.6390   13.1690   13.8170 N.2   561  KRV561     -0.2456
      6  C11        9.9500   13.1340   14.1880 C.1   561  KRV561      0.2134
      7  C12       10.3010   12.5760   15.5650 C.2   561  KRV561      0.0902
      8  C13        9.1840   12.1400   16.3200 C.2   561  KRV561      0.1094
      9  C14        9.3260   11.5570   17.7120 C.2   561  KRV561      0.2102
     10  O15        9.0990   10.3410   17.7730 O.2   561  KRV561     -0.2852
     11  C16        9.6780   12.2990   18.9930 C.ar  561  KRV561      0.0406
     12  C17        9.7150   11.5230   20.1940 C.ar  561  KRV561      0.0135
     13  C18       10.0110   12.1120   21.4400 C.ar  561  KRV561      0.0682
     14  C19       10.0030   11.2530   22.6040 C.1   561  KRV561      0.1004
     15  N20        9.9890   10.5350   23.5190 N.1   561  KRV561     -0.1908
     16  C21       10.3110   13.5360   21.5130 C.ar  561  KRV561      0.0060
     17  C22       10.2900   14.3350   20.3000 C.ar  561  KRV561     -0.0211
     18  C23        9.9750   13.7040   19.0480 C.ar  561  KRV561     -0.0010
     19  C24       10.6020   15.8370   20.3130 C.3   561  KRV561      0.0310
     20  C25       11.7660   12.5070   16.0270 C.3   561  KRV561      0.0359
     21  C26       12.3180   13.9480   16.2250 C.3   561  KRV561      0.0055
     22  C27       12.6680   11.7040   15.0370 C.3   561  KRV561      0.0055
     23  O28       10.8180   13.5560   13.4130 O.2   561  KRV561     -0.2088
     24  O29        6.4630   12.8160   14.1360 O.2   561  KRV561     -0.1919
@<TRIPOS>BOND
     1    23     6    2
     2     5     6    2
     3     5     4    2
     4    24     4    2
     5     6     7    1
     6     4     3   am
     7    22    20    1
     8     7    20    1
     9     7     8    2
    10     3     8    1
    11     3     1    1
    12    20    21    1
    13     2     1    1
    14     8     9    1
    15     9    10    2
    16     9    11    1
    17    11    18   ar
    18    11    12   ar
    19    18    17   ar
    20    12    13   ar
    21    17    19    1
    22    17    16   ar
    23    13    16   ar
    24    13    14    1
    25    14    15    3
