@<TRIPOS>MOLECULE
3lam_KRP_A_1.pdb
 25 26 0 0 0
SMALL
GASTEIGER

@<TRIPOS>ATOM
      1  C1         6.3060   10.6090   15.5010 C.3   561  KRP561      0.0227
      2  C2         6.8960    9.3000   16.0390 C.3   561  KRP561      0.0019
      3  C4         7.0050   11.8980   16.0920 C.3   561  KRP561      0.1091
      4  N5         8.3090   12.3400   15.3240 N.am  561  KRP561     -0.2019
      5  C6         9.6560   12.2910   15.9250 C.2   561  KRP561      0.1094
      6  C7         9.6790   11.7310   17.3840 C.2   561  KRP561      0.2102
      7  O8         9.4550   10.5420   17.5130 O.2   561  KRP561     -0.2852
      8  C9         9.9360   12.5970   18.6470 C.ar  561  KRP561      0.0406
      9  C10        9.8880   11.9800   19.9690 C.ar  561  KRP561      0.0135
     10  C11       10.1130   12.8040   21.1500 C.ar  561  KRP561      0.0682
     11  C12       10.0490   12.2460   22.4330 C.1   561  KRP561      0.1004
     12  N13        9.9400   11.8020   23.4890 N.1   561  KRP561     -0.1908
     13  C14       10.3920   14.2130   21.0400 C.ar  561  KRP561      0.0060
     14  C15       10.4520   14.8420   19.7530 C.ar  561  KRP561     -0.0211
     15  C16       10.7490   16.3340   19.6340 C.3   561  KRP561      0.0310
     16  C17       10.2210   14.0460   18.5630 C.ar  561  KRP561     -0.0010
     17  C18       10.8100   12.6960   15.1910 C.2   561  KRP561      0.0902
     18  C19       12.2880   12.6700   15.7380 C.3   561  KRP561      0.0359
     19  C20       12.9390   14.1040   15.7360 C.3   561  KRP561      0.0055
     20  C21       13.1670   11.7060   14.8710 C.3   561  KRP561      0.0055
     21  C22       10.4700   13.2110   13.7460 C.1   561  KRP561      0.2134
     22  O23       11.3110   13.6080   12.9690 O.2   561  KRP561     -0.2088
     23  N24        9.1930   13.2210   13.3150 N.2   561  KRP561     -0.2456
     24  C25        8.1160   12.8200   14.0510 C.1   561  KRP561      0.2826
     25  O26        6.9850   12.8910   13.4980 O.2   561  KRP561     -0.1919
@<TRIPOS>BOND
     1    22    21    2
     2    23    21    2
     3    23    24    2
     4    25    24    2
     5    21    17    1
     6    24     4   am
     7    20    18    1
     8    17    18    1
     9    17     5    2
    10     4     5    1
    11     4     3    1
    12     1     2    1
    13     1     3    1
    14    19    18    1
    15     5     6    1
    16     6     7    2
    17     6     8    1
    18    16     8   ar
    19    16    14   ar
    20     8     9   ar
    21    15    14    1
    22    14    13   ar
    23     9    10   ar
    24    13    10   ar
    25    10    11    1
    26    11    12    3
