@<TRIPOS>MOLECULE
3lan_KBT_A_1.pdb
 26 27 0 0 0
SMALL
GASTEIGER

@<TRIPOS>ATOM
      1  C1         6.6540   10.2910   16.0940 C.3   561  KBT561      0.0227
      2  C2         6.0340    9.5920   17.3160 C.3   561  KBT561      0.0018
      3  C3         5.6690    8.1410   16.9450 C.3   561  KBT561      0.0001
      4  C4         7.0190   11.7460   16.4800 C.3   561  KBT561      0.1091
      5  N5         8.2520   12.2250   15.7100 N.am  561  KBT561     -0.2019
      6  C6         9.5730   12.1940   16.2580 C.2   561  KBT561      0.1094
      7  C7         9.6430   11.6580   17.6840 C.2   561  KBT561      0.2102
      8  O8         9.4480   10.4590   17.8200 O.2   561  KBT561     -0.2852
      9  C9         9.9010   12.5270   18.9080 C.ar  561  KBT561      0.0406
     10  C10        9.8790   11.9150   20.1960 C.ar  561  KBT561      0.0135
     11  C11       10.0890   12.7150   21.3590 C.ar  561  KBT561      0.0682
     12  C12       10.0320   12.1070   22.6320 C.1   561  KBT561      0.1004
     13  N13        9.9510   11.6150   23.6670 N.1   561  KBT561     -0.1908
     14  C14       10.3330   14.1290   21.2550 C.ar  561  KBT561      0.0060
     15  C15       10.3650   14.7480   19.9670 C.ar  561  KBT561     -0.0211
     16  C16       10.6220   16.2500   19.8160 C.3   561  KBT561      0.0310
     17  C17       10.1410   13.9510   18.8060 C.ar  561  KBT561     -0.0010
     18  C18       10.6870   12.6420   15.5240 C.2   561  KBT561      0.0902
     19  C19       12.1430   12.6460   16.0310 C.3   561  KBT561      0.0359
     20  C20       12.7560   14.0890   16.0320 C.3   561  KBT561      0.0055
     21  C21       13.0140   11.6640   15.1560 C.3   561  KBT561      0.0055
     22  C22       10.3390   13.1470   14.1140 C.1   561  KBT561      0.2134
     23  O23       11.1820   13.5750   13.3420 O.2   561  KBT561     -0.2088
     24  N24        9.0530   13.1270   13.7110 N.2   561  KBT561     -0.2456
     25  C25        8.0270   12.6800   14.4650 C.1   561  KBT561      0.2826
     26  O26        6.9020   12.7200   13.9650 O.2   561  KBT561     -0.1919
@<TRIPOS>BOND
     1    23    22    2
     2    24    22    2
     3    24    25    2
     4    26    25    2
     5    22    18    1
     6    25     5   am
     7    21    19    1
     8    18    19    1
     9    18     6    2
    10     5     6    1
    11     5     4    1
    12    19    20    1
    13     1     4    1
    14     1     2    1
    15     6     7    1
    16     3     2    1
    17     7     8    2
    18     7     9    1
    19    17     9   ar
    20    17    15   ar
    21     9    10   ar
    22    16    15    1
    23    15    14   ar
    24    10    11   ar
    25    14    11   ar
    26    11    12    1
    27    12    13    3
