@<TRIPOS>MOLECULE
3lap_GGB_A_1.pdb
 12 11 0 0 0
SMALL
GASTEIGER

@<TRIPOS>ATOM
      1  N         -3.5960   -8.1200  -49.2550 N.3   200  GGB200     -0.1158
      2  CA        -3.9500   -6.9570  -48.4810 C.3   200  GGB200      0.2195
      3  CB        -4.9290   -7.2280  -47.3710 C.2   200  GGB200      0.0491
      4  CG        -4.4340   -8.0540  -46.2230 C.2   200  GGB200      0.2303
      5  C         -2.7330   -6.2560  -47.9970 C.2   200  GGB200      0.3861
      6  OD        -5.3760   -8.3440  -45.2520 O.2   200  GGB200     -0.2801
      7  NE        -5.1190   -9.1320  -44.2520 N.pl3 200  GGB200      0.1357
      8  CZ        -4.9480   -8.5630  -42.9580 C.cat 200  GGB200      0.5751
      9  NH1       -4.7430   -7.2490  -42.8420 N.pl3 200  GGB200      0.1387
     10  NH2       -4.8260   -9.3620  -41.9120 N.pl3 200  GGB200      0.1387
     11  OA1       -2.7320   -5.0530  -47.7230 O.co2 200  GGB200     -0.2437
     12  OA2       -1.6420   -7.0420  -47.7130 O.co2 200  GGB200     -0.2437
@<TRIPOS>BOND
     1     1     2    1
     2     2     5    1
     3     2     3    1
     4     5    11   ar
     5     5    12   ar
     6     3     4    2
     7     4     6    1
     8     6     7    1
     9     7     8    2
    10     8     9    1
    11     8    10    1
