@<TRIPOS>MOLECULE
3lau_OFI_A_1.pdb
 22 24 0 0 0
SMALL
GASTEIGER

@<TRIPOS>ATOM
      1  C1        -5.5510   -8.0930   18.7460 C.2     1  OFI1        0.1061
      2  C2        -5.2880   -8.4740   17.3670 C.2     1  OFI1        0.1344
      3  C3        -5.2240   -9.2830   19.5620 C.2     1  OFI1        0.3963
      4  C4        -6.0070   -6.7830   18.9720 C.2     1  OFI1       -0.0122
      5  C5        -5.4820   -7.5790   16.3160 C.2     1  OFI1        0.0193
      6  N6        -4.8640   -9.7810   17.4600 N.2     1  OFI1       -0.0339
      7  N7        -4.8320  -10.2290   18.7220 N.2     1  OFI1        0.0846
      8  N8        -5.3270   -9.3550   21.0430 N.am    1  OFI1        0.0340
      9  C9        -6.2010   -5.8750   17.8880 C.3     1  OFI1        0.0527
     10  C10       -5.9380   -6.2550   16.5520 C.2     1  OFI1       -0.0162
     11  C11       -6.2740   -8.8930   21.8910 C.2     1  OFI1        0.3525
     12  C12       -6.1250   -5.2810   15.4280 C.ar    1  OFI1       -0.0034
     13  C13       -5.9200   -9.2000   23.3530 C.3     1  OFI1        0.1167
     14  O14       -7.3020   -8.2840   21.5910 O.2     1  OFI1       -0.2429
     15  C15       -7.3470   -5.1670   14.7320 C.ar    1  OFI1        0.0030
     16  C16       -5.0560   -4.4360   15.0370 C.ar    1  OFI1        0.0030
     17  C17       -7.0780   -9.8540   24.1110 C.3     1  OFI1        0.0122
     18  C18       -7.5000   -4.2320   13.6750 C.ar    1  OFI1        0.0420
     19  C19       -5.1990   -3.5000   13.9830 C.ar    1  OFI1        0.0420
     20  C20       -6.7090  -10.1510   25.5710 C.3     1  OFI1        0.0006
     21  C21       -6.4270   -3.3950   13.2980 C.ar    1  OFI1        0.1957
     22  O22       -6.6030   -2.4940   12.2730 O.3     1  OFI1       -0.2866
@<TRIPOS>BOND
     1    22    21    1
     2    21    18   ar
     3    21    19   ar
     4    18    15   ar
     5    19    16   ar
     6    15    12   ar
     7    16    12   ar
     8    12    10    1
     9     5    10    2
    10     5     2    1
    11    10     9    1
    12     2     6    2
    13     2     1    1
    14     6     7    1
    15     9     4    1
    16     7     3    2
    17     1     4    2
    18     1     3    1
    19     3     8    1
    20     8    11   am
    21    14    11    2
    22    11    13    1
    23    13    17    1
    24    17    20    1
