@<TRIPOS>MOLECULE
3law_GNP_A_1.pdb
 32 34 0 0 0
SMALL
GASTEIGER

@<TRIPOS>ATOM
      1  PG        18.9160    8.6300   20.3660 P.3   1400  GNP1400     0.4884
      2  O1G       19.8360    8.2210   19.2240 O.2   1400  GNP1400    -0.2331
      3  O2G       17.6580    9.4220   19.9770 O.3   1400  GNP1400    -0.1240
      4  O3G       19.8410    9.2370   21.4250 O.3   1400  GNP1400    -0.1240
      5  N3B       18.3570    7.2930   21.0420 N.3   1400  GNP1400    -0.0163
      6  PB        17.4320    7.3050   22.3330 P.3   1400  GNP1400     0.4669
      7  O1B       18.2750    7.2070   23.5490 O.3   1400  GNP1400    -0.1253
      8  O2B       16.4890    8.4540   22.2360 O.2   1400  GNP1400    -0.2351
      9  O3A       16.6400    6.0120   22.2850 O.3   1400  GNP1400    -0.2360
     10  PA        15.4280    5.8500   21.3900 P.3   1400  GNP1400     0.2220
     11  O1A       14.2650    6.4960   22.0480 O.3   1400  GNP1400    -0.4370
     12  O2A       15.7640    6.2710   20.0080 O.2   1400  GNP1400    -0.5170
     13  O5'       15.1070    4.3090   21.3760 O.3   1400  GNP1400    -0.3111
     14  C5'       16.0280    3.3520   20.8650 C.3   1400  GNP1400     0.1813
     15  C4'       15.3070    2.0410   20.5780 C.3   1400  GNP1400     0.1799
     16  O4'       14.7790    1.3950   21.7870 O.3   1400  GNP1400    -0.3326
     17  C3'       14.1160    2.1870   19.6650 C.3   1400  GNP1400     0.2158
     18  O3'       13.9740    1.0020   18.9150 O.3   1400  GNP1400    -0.2175
     19  C2'       12.9810    2.2990   20.6690 C.3   1400  GNP1400     0.2310
     20  O2'       11.7380    2.0290   20.0610 O.3   1400  GNP1400    -0.2158
     21  C1'       13.3750    1.2400   21.6900 C.3   1400  GNP1400     0.2293
     22  N9        12.8350    1.4230   23.0490 N.pl3 1400  GNP1400    -0.2354
     23  C8        12.9310    2.5750   23.8030 C.3   1400  GNP1400     0.2246
     24  N7        12.3970    2.4730   24.9820 N.2   1400  GNP1400    -0.2322
     25  C5        11.9310    1.1660   25.0380 C.2   1400  GNP1400     0.2182
     26  C6        11.2520    0.4910   26.0830 C.1   1400  GNP1400     0.2372
     27  O6        10.9430    0.9320   27.1960 O.2   1400  GNP1400    -0.2069
     28  N1        10.9120   -0.8220   25.7670 N.2   1400  GNP1400    -0.2485
     29  C2        11.2100   -1.4220   24.5740 C.1   1400  GNP1400     0.2531
     30  N2        10.7940   -2.7000   24.4620 N.pl3 1400  GNP1400    -0.0226
     31  N3        11.8560   -0.7960   23.5740 N.2   1400  GNP1400    -0.3074
     32  C4        12.1820    0.4980   23.8630 C.2   1400  GNP1400     0.2300
@<TRIPOS>BOND
     1    18    17    1
     2     2     1    2
     3    17    15    1
     4    17    19    1
     5     3     1    1
     6    12    10    2
     7    20    19    1
     8     1     5    1
     9     1     4    1
    10    15    14    1
    11    15    16    1
    12    19    21    1
    13    14    13    1
    14     5     6    1
    15    13    10    1
    16    10    11    1
    17    10     9    1
    18    21    16    1
    19    21    22    1
    20     8     6    2
    21     9     6    1
    22     6     7    1
    23    22    23    1
    24    22    32    1
    25    31    32    2
    26    31    29    2
    27    23    24    1
    28    32    25    1
    29    30    29    1
    30    29    28    2
    31    24    25    2
    32    25    26    1
    33    28    26    2
    34    26    27    2
