@<TRIPOS>MOLECULE
3lb0_CIT_A_1.pdb
 13 12 0 0 0
SMALL
GASTEIGER

@<TRIPOS>ATOM
      1  C1        12.3320    3.6320    6.2690 C.2   253  CIT253      0.3680
      2  O1        12.8500    4.3940    7.1180 O.co2 253  CIT253     -0.2455
      3  O2        11.6620    2.6350    6.6400 O.co2 253  CIT253     -0.2455
      4  C2        12.5170    3.9680    4.8170 C.3   253  CIT253      0.1560
      5  C3        11.9920    2.8790    3.8810 C.3   253  CIT253      0.2402
      6  O7        10.5740    2.6620    4.0770 O.3   253  CIT253     -0.2129
      7  C4        12.6890    1.5320    4.0040 C.3   253  CIT253      0.1560
      8  C5        12.4140    0.6190    2.8070 C.2   253  CIT253      0.3680
      9  O3        11.5670    0.8940    1.9040 O.co2 253  CIT253     -0.2455
     10  O4        13.0620   -0.4460    2.6890 O.co2 253  CIT253     -0.2455
     11  C6        12.2110    3.4140    2.4860 C.2   253  CIT253      0.3927
     12  O5        13.3430    3.3070    1.9300 O.co2 253  CIT253     -0.2429
     13  O6        11.2370    3.9460    1.9040 O.co2 253  CIT253     -0.2429
@<TRIPOS>BOND
     1     9     8   ar
     2    13    11   ar
     3    12    11   ar
     4    11     5    1
     5    10     8   ar
     6     8     7    1
     7     5     7    1
     8     5     6    1
     9     5     4    1
    10     4     1    1
    11     1     3   ar
    12     1     2   ar
