@<TRIPOS>MOLECULE
3lb1_HEM_A_1.pdb
 43 50 0 0 0
SMALL
GASTEIGER

@<TRIPOS>ATOM
      1  CHA        7.3610    4.7460  -11.9770 C.2   139  HEM139      0.0000
      2  CHB        8.5620    0.2830  -10.4060 C.2   139  HEM139      0.0000
      3  CHC        4.5600   -1.4760  -12.5190 C.2   139  HEM139      0.0000
      4  CHD        3.2760    2.9410  -14.0100 C.2   139  HEM139      0.0000
      5  C1A        8.0650    3.6910  -11.4250 C.2   139  HEM139      0.0000
      6  C2A        9.3940    3.7610  -10.8370 C.2   139  HEM139      0.0000
      7  C3A        9.7300    2.5360  -10.4050 C.2   139  HEM139      0.0000
      8  C4A        8.6240    1.6360  -10.6950 C.2   139  HEM139      0.0000
      9  CMA       11.0580    2.1440   -9.7140 C.3   139  HEM139      0.0000
     10  CAA       10.2630    5.0350  -10.7440 C.3   139  HEM139      0.0000
     11  CBA       11.0440    5.1730  -12.0480 C.3   139  HEM139      0.0000
     12  CGA       11.8330    6.4620  -12.1000 C.2   139  HEM139      0.0000
     13  O1A       11.2980    7.5330  -11.7290 O.co2 139  HEM139      0.0000
     14  O2A       13.0090    6.4280  -12.5400 O.co2 139  HEM139      0.0000
     15  C1B        7.6040   -0.6030  -10.8610 C.ar  139  HEM139      0.0000
     16  C2B        7.6000   -2.0460  -10.7030 C.ar  139  HEM139      0.0000
     17  C3B        6.4900   -2.5180  -11.2870 C.ar  139  HEM139      0.0000
     18  C4B        5.7560   -1.3950  -11.8310 C.ar  139  HEM139      0.0000
     19  CMB        8.6840   -2.8790   -9.9850 C.3   139  HEM139      0.0000
     20  CAB        6.0310   -3.9880  -11.4090 C.2   139  HEM139      0.0000
     21  CBB        6.3570   -4.9210  -10.5080 C.2   139  HEM139      0.0000
     22  C1C        3.8710   -0.4510  -13.1220 C.2   139  HEM139      0.0000
     23  C2C        2.6620   -0.5860  -13.9090 C.2   139  HEM139      0.0000
     24  C3C        2.3110    0.6310  -14.3320 C.2   139  HEM139      0.0000
     25  C4C        3.2800    1.5780  -13.8120 C.2   139  HEM139      0.0000
     26  CMC        1.9420   -1.9240  -14.1930 C.3   139  HEM139      0.0000
     27  CAC        1.0750    1.0040  -15.1880 C.2   139  HEM139      0.0000
     28  CBC        1.0030    0.7170  -16.4870 C.2   139  HEM139      0.0000
     29  C1D        4.2540    3.8370  -13.6310 C.ar  139  HEM139      0.0000
     30  C2D        4.2520    5.2430  -13.9620 C.ar  139  HEM139      0.0000
     31  C3D        5.5220    5.8140  -13.3310 C.ar  139  HEM139      0.0000
     32  C4D        6.1710    4.6950  -12.6720 C.ar  139  HEM139      0.0000
     33  CMD        3.2000    6.0320  -14.7720 C.3   139  HEM139      0.0000
     34  CAD        5.9730    7.2880  -13.4090 C.3   139  HEM139      0.0000
     35  CBD        6.8820    7.4650  -14.6190 C.3   139  HEM139      0.0000
     36  CGD        8.2660    7.0410  -14.2050 C.2   139  HEM139      0.0000
     37  O1D        8.7570    6.0140  -14.7290 O.co2 139  HEM139      0.0000
     38  O2D        8.8830    7.7150  -13.3340 O.co2 139  HEM139      0.0000
     39  NA         7.6330    2.3820  -11.3160 N.2   139  HEM139      0.0000
     40  NB         6.4640   -0.2440  -11.5570 N.ar  139  HEM139      0.0000
     41  NC         4.2220    0.8790  -13.0910 N.2   139  HEM139      0.0000
     42  ND         5.3900    3.5520  -12.8680 N.ar  139  HEM139      0.0000
     43 FE          5.7670    1.7010  -11.9460 Fe    139  HEM139      0.0000
@<TRIPOS>BOND
     1    28    27    2
     2    27    24    1
     3    33    30    1
     4    37    36   ar
     5    35    36    1
     6    35    34    1
     7    24    23    2
     8    24    25    1
     9    36    38   ar
    10    26    23    1
    11     4    25    1
    12     4    29    2
    13    30    29   ar
    14    30    31   ar
    15    23    22    1
    16    25    41    2
    17    29    42   ar
    18    34    31    1
    19    31    32   ar
    20    22    41    1
    21    22     3    2
    22    41    43    1
    23    42    32   ar
    24    42    43    1
    25    32     1    2
    26    14    12   ar
    27     3    18    1
    28    12    11    1
    29    12    13   ar
    30    11    10    1
    31     1     5    1
    32    43    40    1
    33    43    39    1
    34    18    40   ar
    35    18    17   ar
    36    40    15   ar
    37     5    39    2
    38     5     6    1
    39    20    17    1
    40    20    21    2
    41    39     8    1
    42    17    16   ar
    43    15    16   ar
    44    15     2    1
    45     6    10    1
    46     6     7    2
    47    16    19    1
    48     8     2    2
    49     8     7    1
    50     7     9    1
