@<TRIPOS>MOLECULE
3lb2_HEM_A_1.pdb
 43 50 0 0 0
SMALL
GASTEIGER

@<TRIPOS>ATOM
      1  CHA        7.4200    4.7710  -12.2450 C.2   139  HEM139      0.0000
      2  CHB        8.5160    0.3640  -10.5600 C.2   139  HEM139      0.0000
      3  CHC        4.5880   -1.4090  -12.7210 C.2   139  HEM139      0.0000
      4  CHD        3.3530    2.9980  -14.2440 C.2   139  HEM139      0.0000
      5  C1A        8.0970    3.7230  -11.6570 C.2   139  HEM139      0.0000
      6  C2A        9.4120    3.7980  -11.0490 C.2   139  HEM139      0.0000
      7  C3A        9.7170    2.5770  -10.5790 C.2   139  HEM139      0.0000
      8  C4A        8.6020    1.6990  -10.8820 C.2   139  HEM139      0.0000
      9  CMA       11.0080    2.1530   -9.8390 C.3   139  HEM139      0.0000
     10  CAA       10.2760    5.0770  -10.9710 C.3   139  HEM139      0.0000
     11  CBA       11.2420    5.1360  -12.1530 C.3   139  HEM139      0.0000
     12  CGA       12.2700    6.2300  -11.9790 C.2   139  HEM139      0.0000
     13  O1A       12.6150    6.5910  -10.8210 O.co2 139  HEM139      0.0000
     14  O2A       12.7630    6.7410  -13.0180 O.co2 139  HEM139      0.0000
     15  C1B        7.5690   -0.5180  -11.0160 C.ar  139  HEM139      0.0000
     16  C2B        7.5850   -1.9530  -10.8330 C.ar  139  HEM139      0.0000
     17  C3B        6.4880   -2.4440  -11.4320 C.ar  139  HEM139      0.0000
     18  C4B        5.7630   -1.3280  -12.0070 C.ar  139  HEM139      0.0000
     19  CMB        8.6930   -2.7270  -10.0880 C.3   139  HEM139      0.0000
     20  CAB        6.0320   -3.9130  -11.5420 C.2   139  HEM139      0.0000
     21  CBB        6.3110   -4.8540  -10.6330 C.2   139  HEM139      0.0000
     22  C1C        3.9260   -0.3800  -13.3530 C.2   139  HEM139      0.0000
     23  C2C        2.7360   -0.5130  -14.1690 C.2   139  HEM139      0.0000
     24  C3C        2.4050    0.7130  -14.5990 C.2   139  HEM139      0.0000
     25  C4C        3.3570    1.6440  -14.0540 C.2   139  HEM139      0.0000
     26  CMC        2.0150   -1.8460  -14.4640 C.3   139  HEM139      0.0000
     27  CAC        1.2290    1.1770  -15.4800 C.2   139  HEM139      0.0000
     28  CBC        0.6280    0.3930  -16.3710 C.2   139  HEM139      0.0000
     29  C1D        4.3250    3.8730  -13.8350 C.ar  139  HEM139      0.0000
     30  C2D        4.2890    5.2720  -14.1450 C.ar  139  HEM139      0.0000
     31  C3D        5.5550    5.8440  -13.5340 C.ar  139  HEM139      0.0000
     32  C4D        6.2220    4.7140  -12.9140 C.ar  139  HEM139      0.0000
     33  CMD        3.2020    6.0290  -14.9290 C.3   139  HEM139      0.0000
     34  CAD        5.9970    7.3200  -13.5740 C.3   139  HEM139      0.0000
     35  CBD        6.2490    7.7860  -15.0000 C.3   139  HEM139      0.0000
     36  CGD        7.5050    7.1720  -15.5560 C.2   139  HEM139      0.0000
     37  O1D        8.5520    7.1710  -14.8530 O.co2 139  HEM139      0.0000
     38  O2D        7.4560    6.6900  -16.7170 O.co2 139  HEM139      0.0000
     39  NA         7.6320    2.4300  -11.5340 N.2   139  HEM139      0.0000
     40  NB         6.4400   -0.1650  -11.7250 N.ar  139  HEM139      0.0000
     41  NC         4.2800    0.9510  -13.3100 N.2   139  HEM139      0.0000
     42  ND         5.4650    3.5620  -13.0970 N.ar  139  HEM139      0.0000
     43 FE          5.8120    1.7470  -12.1860 Fe    139  HEM139      0.0000
@<TRIPOS>BOND
     1    38    36   ar
     2    28    27    2
     3    36    35    1
     4    36    37   ar
     5    27    24    1
     6    35    34    1
     7    33    30    1
     8    24    23    2
     9    24    25    1
    10    26    23    1
    11     4    25    1
    12     4    29    2
    13    23    22    1
    14    30    29   ar
    15    30    31   ar
    16    25    41    2
    17    29    42   ar
    18    34    31    1
    19    31    32   ar
    20    22    41    1
    21    22     3    2
    22    41    43    1
    23    42    32   ar
    24    42    43    1
    25    14    12   ar
    26    32     1    2
    27     3    18    1
    28     1     5    1
    29    43    40    1
    30    43    39    1
    31    11    12    1
    32    11    10    1
    33    18    40   ar
    34    18    17   ar
    35    12    13   ar
    36    40    15   ar
    37     5    39    2
    38     5     6    1
    39    20    17    1
    40    20    21    2
    41    39     8    1
    42    17    16   ar
    43     6    10    1
    44     6     7    2
    45    15    16   ar
    46    15     2    1
    47     8     7    1
    48     8     2    2
    49    16    19    1
    50     7     9    1
