@<TRIPOS>MOLECULE
3lb3_HEM_A_1.pdb
 43 50 0 0 0
SMALL
GASTEIGER

@<TRIPOS>ATOM
      1  CHA        7.6700    4.7770  -11.7600 C.2   139  HEM139      0.0000
      2  CHB        8.7300    0.3200  -10.1480 C.2   139  HEM139      0.0000
      3  CHC        4.7900   -1.4060  -12.3910 C.2   139  HEM139      0.0000
      4  CHD        3.5600    3.0780  -13.7620 C.2   139  HEM139      0.0000
      5  C1A        8.3250    3.6990  -11.1940 C.2   139  HEM139      0.0000
      6  C2A        9.6530    3.7490  -10.6310 C.2   139  HEM139      0.0000
      7  C3A        9.9660    2.5260  -10.1780 C.2   139  HEM139      0.0000
      8  C4A        8.8360    1.6570  -10.4480 C.2   139  HEM139      0.0000
      9  CMA       11.2910    2.1180   -9.4970 C.3   139  HEM139      0.0000
     10  CAA       10.5320    5.0180  -10.5750 C.3   139  HEM139      0.0000
     11  CBA       11.3180    5.1380  -11.8790 C.3   139  HEM139      0.0000
     12  CGA       12.0670    6.4420  -11.8630 C.2   139  HEM139      0.0000
     13  O1A       11.4340    7.5170  -12.0110 O.co2 139  HEM139      0.0000
     14  O2A       13.3060    6.4200  -11.6890 O.co2 139  HEM139      0.0000
     15  C1B        7.7830   -0.5430  -10.6480 C.ar  139  HEM139      0.0000
     16  C2B        7.8080   -1.9820  -10.5300 C.ar  139  HEM139      0.0000
     17  C3B        6.7150   -2.4740  -11.1410 C.ar  139  HEM139      0.0000
     18  C4B        5.9700   -1.3460  -11.6770 C.ar  139  HEM139      0.0000
     19  CMB        8.9060   -2.7760   -9.8070 C.3   139  HEM139      0.0000
     20  CAB        6.2830   -3.9560  -11.3020 C.2   139  HEM139      0.0000
     21  CBB        6.6100   -4.9190  -10.4350 C.2   139  HEM139      0.0000
     22  C1C        4.1290   -0.3480  -12.9700 C.2   139  HEM139      0.0000
     23  C2C        2.9250   -0.4340  -13.7820 C.2   139  HEM139      0.0000
     24  C3C        2.5990    0.8110  -14.1640 C.2   139  HEM139      0.0000
     25  C4C        3.5700    1.7130  -13.5930 C.2   139  HEM139      0.0000
     26  CMC        2.2010   -1.7540  -14.1140 C.3   139  HEM139      0.0000
     27  CAC        1.4060    1.3300  -15.0130 C.2   139  HEM139      0.0000
     28  CBC        0.8690    0.6570  -16.0260 C.2   139  HEM139      0.0000
     29  C1D        4.5600    3.9460  -13.3940 C.ar  139  HEM139      0.0000
     30  C2D        4.5790    5.3470  -13.7230 C.ar  139  HEM139      0.0000
     31  C3D        5.8620    5.8870  -13.0970 C.ar  139  HEM139      0.0000
     32  C4D        6.4860    4.7510  -12.4490 C.ar  139  HEM139      0.0000
     33  CMD        3.5330    6.1330  -14.5390 C.3   139  HEM139      0.0000
     34  CAD        6.3590    7.3380  -13.1810 C.3   139  HEM139      0.0000
     35  CBD        6.7560    7.6100  -14.6340 C.3   139  HEM139      0.0000
     36  CGD        8.2540    7.6380  -14.7980 C.2   139  HEM139      0.0000
     37  O1D        8.9700    6.9890  -13.9930 O.co2 139  HEM139      0.0000
     38  O2D        8.7440    8.3070  -15.7500 O.co2 139  HEM139      0.0000
     39  NA         7.8510    2.4050  -11.0660 N.2   139  HEM139      0.0000
     40  NB         6.6420   -0.1890  -11.3530 N.ar  139  HEM139      0.0000
     41  NC         4.4980    0.9790  -12.8890 N.2   139  HEM139      0.0000
     42  ND         5.6870    3.6320  -12.6280 N.ar  139  HEM139      0.0000
     43 FE          6.0100    1.7680  -11.7790 Fe    139  HEM139      0.0000
@<TRIPOS>BOND
     1    28    27    2
     2    38    36   ar
     3    27    24    1
     4    36    35    1
     5    36    37   ar
     6    35    34    1
     7    33    30    1
     8    24    23    2
     9    24    25    1
    10    26    23    1
    11    23    22    1
    12     4    25    1
    13     4    29    2
    14    30    29   ar
    15    30    31   ar
    16    25    41    2
    17    29    42   ar
    18    34    31    1
    19    31    32   ar
    20    22    41    1
    21    22     3    2
    22    41    43    1
    23    42    32   ar
    24    42    43    1
    25    32     1    2
    26     3    18    1
    27    13    12   ar
    28    11    12    1
    29    11    10    1
    30    12    14   ar
    31    43    40    1
    32    43    39    1
    33     1     5    1
    34    18    40   ar
    35    18    17   ar
    36    40    15   ar
    37    20    17    1
    38    20    21    2
    39     5    39    2
    40     5     6    1
    41    17    16   ar
    42    39     8    1
    43    15    16   ar
    44    15     2    1
    45     6    10    1
    46     6     7    2
    47    16    19    1
    48     8     7    1
    49     8     2    2
    50     7     9    1
