@<TRIPOS>MOLECULE
3lb4_HEM_A_1.pdb
 43 50 0 0 0
SMALL
GASTEIGER

@<TRIPOS>ATOM
      1  CHA       -8.0470   29.2920   22.6670 C.2   139  HEM139      0.0000
      2  CHB       -9.2530   33.7390   24.0760 C.2   139  HEM139      0.0000
      3  CHC       -5.2890   35.5700   22.0370 C.2   139  HEM139      0.0000
      4  CHD       -3.9000   31.1030   20.8420 C.2   139  HEM139      0.0000
      5  C1A       -8.7080   30.3790   23.1790 C.2   139  HEM139      0.0000
      6  C2A      -10.0180   30.2840   23.7750 C.2   139  HEM139      0.0000
      7  C3A      -10.3660   31.5160   24.1590 C.2   139  HEM139      0.0000
      8  C4A       -9.2620   32.3860   23.8110 C.2   139  HEM139      0.0000
      9  CMA      -11.6750   31.9310   24.8580 C.3   139  HEM139      0.0000
     10  CAA      -10.8500   28.9880   23.9330 C.3   139  HEM139      0.0000
     11  CBA      -11.7630   28.7460   22.7370 C.3   139  HEM139      0.0000
     12  CGA      -12.6270   27.5580   23.0780 C.2   139  HEM139      0.0000
     13  O1A      -12.6660   26.6020   22.2620 O.co2 139  HEM139      0.0000
     14  O2A      -13.2760   27.5590   24.1660 O.co2 139  HEM139      0.0000
     15  C1B       -8.3200   34.6210   23.6320 C.ar  139  HEM139      0.0000
     16  C2B       -8.3890   36.0560   23.7610 C.ar  139  HEM139      0.0000
     17  C3B       -7.2930   36.5660   23.1930 C.ar  139  HEM139      0.0000
     18  C4B       -6.4820   35.4650   22.6980 C.ar  139  HEM139      0.0000
     19  CMB       -9.5780   36.7950   24.4100 C.3   139  HEM139      0.0000
     20  CAB       -6.8710   38.0470   23.0230 C.2   139  HEM139      0.0000
     21  CBB       -7.1710   39.0530   23.8580 C.2   139  HEM139      0.0000
     22  C1C       -4.5800   34.5290   21.4910 C.2   139  HEM139      0.0000
     23  C2C       -3.4050   34.6680   20.6490 C.2   139  HEM139      0.0000
     24  C3C       -3.0310   33.4000   20.3200 C.2   139  HEM139      0.0000
     25  C4C       -3.9620   32.4800   20.9260 C.2   139  HEM139      0.0000
     26  CMC       -2.7340   36.0070   20.2660 C.3   139  HEM139      0.0000
     27  CAC       -1.8440   32.9280   19.4470 C.2   139  HEM139      0.0000
     28  CBC       -1.3030   33.7510   18.5570 C.2   139  HEM139      0.0000
     29  C1D       -4.8650   30.1990   21.2080 C.ar  139  HEM139      0.0000
     30  C2D       -4.8290   28.7870   20.9220 C.ar  139  HEM139      0.0000
     31  C3D       -6.1190   28.2260   21.4780 C.ar  139  HEM139      0.0000
     32  C4D       -6.8350   29.3550   22.0410 C.ar  139  HEM139      0.0000
     33  CMD       -3.6960   28.0270   20.1980 C.3   139  HEM139      0.0000
     34  CAD       -6.5590   26.7610   21.4470 C.3   139  HEM139      0.0000
     35  CBD       -6.8730   26.4300   19.9930 C.3   139  HEM139      0.0000
     36  CGD       -8.3340   26.6410   19.7040 C.2   139  HEM139      0.0000
     37  O1D       -9.1220   27.0160   20.6160 O.co2 139  HEM139      0.0000
     38  O2D       -8.7270   26.4220   18.5250 O.co2 139  HEM139      0.0000
     39  NA        -8.2040   31.6830   23.1930 N.2   139  HEM139      0.0000
     40  NB        -7.1570   34.3060   22.9830 N.ar  139  HEM139      0.0000
     41  NC        -4.9050   33.2020   21.6250 N.2   139  HEM139      0.0000
     42  ND        -6.0530   30.4730   21.8690 N.ar  139  HEM139      0.0000
     43 FE         -6.4840   32.4010   22.5390 Fe    139  HEM139      0.0000
@<TRIPOS>BOND
     1    38    36   ar
     2    28    27    2
     3    27    24    1
     4    36    35    1
     5    36    37   ar
     6    35    34    1
     7    33    30    1
     8    26    23    1
     9    24    23    2
    10    24    25    1
    11    23    22    1
    12     4    25    1
    13     4    29    2
    14    30    29   ar
    15    30    31   ar
    16    25    41    2
    17    29    42   ar
    18    34    31    1
    19    31    32   ar
    20    22    41    1
    21    22     3    2
    22    41    43    1
    23    42    32   ar
    24    42    43    1
    25     3    18    1
    26    32     1    2
    27    13    12   ar
    28    43    40    1
    29    43    39    1
    30     1     5    1
    31    18    40   ar
    32    18    17   ar
    33    11    12    1
    34    11    10    1
    35    40    15   ar
    36    20    17    1
    37    20    21    2
    38    12    14   ar
    39     5    39    2
    40     5     6    1
    41    17    16   ar
    42    39     8    1
    43    15    16   ar
    44    15     2    1
    45    16    19    1
    46     6    10    1
    47     6     7    2
    48     8     2    2
    49     8     7    1
    50     7     9    1
