@<TRIPOS>MOLECULE
3lba_HPA_A_1.pdb
 10 11 0 0 0
SMALL
GASTEIGER

@<TRIPOS>ATOM
      1  N1       -12.3430  -38.1720    6.1270 N.2   290  HPA290     -0.1726
      2  C2       -11.4660  -37.9390    5.0500 C.3   290  HPA290      0.2725
      3  N3       -11.6080  -36.6780    4.4590 N.2   290  HPA290     -0.1902
      4  C4       -12.5160  -35.7330    4.9020 C.1   290  HPA290      0.0598
      5  C5       -13.3370  -35.9970    6.0000 C.2   290  HPA290      0.2226
      6  C6       -13.2600  -37.2420    6.6200 C.1   290  HPA290      0.1796
      7  O6       -14.0480  -37.4670    7.5990 O.2   290  HPA290     -0.2200
      8  N7       -14.1320  -34.8960    6.2580 N.2   290  HPA290     -0.2230
      9  C8       -13.8000  -33.9670    5.3050 C.3   290  HPA290      0.2622
     10  N9       -12.8160  -34.4580    4.5150 N.2   290  HPA290     -0.1910
@<TRIPOS>BOND
     1     3     4    2
     2     3     2    1
     3    10     4    2
     4    10     9    1
     5     4     5    1
     6     2     1    1
     7     9     8    1
     8     5     8    2
     9     5     6    1
    10     1     6    2
    11     6     7    2
