@<TRIPOS>MOLECULE
3lbc_LAI_A_1.pdb
 10 9 0 0 0
SMALL
GASTEIGER

@<TRIPOS>ATOM
      1  O1       -31.5350  -77.5620  -34.7890 O.3   1550  LAI1550    -0.2175
      2  C2       -32.5270  -76.9780  -33.9450 C.3   1550  LAI1550     0.2175
      3  C4       -31.8350  -76.3600  -32.7240 C.3   1550  LAI1550     0.2175
      4  C6       -32.8640  -75.7190  -31.7960 C.3   1550  LAI1550     0.2175
      5  C8       -32.1260  -75.1060  -30.5790 C.3   1550  LAI1550     0.2175
      6  C10      -33.0820  -74.4500  -29.6280 C.3   1550  LAI1550     0.2175
      7  O14      -31.1340  -77.3850  -32.0090 O.3   1550  LAI1550    -0.2175
      8  O16      -33.5740  -74.6890  -32.5030 O.3   1550  LAI1550    -0.2175
      9  O18      -31.1500  -74.1310  -30.9890 O.3   1550  LAI1550    -0.2175
     10  O20      -33.1870  -73.2200  -29.7740 O.3   1550  LAI1550    -0.2175
@<TRIPOS>BOND
     1     1     2    1
     2     2     3    1
     3     3     7    1
     4     3     4    1
     5     8     4    1
     6     4     5    1
     7     9     5    1
     8     5     6    1
     9    10     6    1
