@<TRIPOS>MOLECULE
3lbd_REA_A_1.pdb
 22 22 0 0 0
SMALL
GASTEIGER

@<TRIPOS>ATOM
      1  C1        43.5280   13.7960   81.1740 C.3   424  REA424      0.0183
      2  C2        44.8090   14.5190   80.6580 C.3   424  REA424      0.0044
      3  C3        44.7550   16.0250   80.6630 C.3   424  REA424      0.0047
      4  C4        44.4620   16.5960   82.0150 C.3   424  REA424      0.0217
      5  C5        43.3120   15.8800   82.7280 C.2   424  REA424     -0.0479
      6  C6        42.8830   14.6150   82.3740 C.2   424  REA424     -0.0307
      7  C7        41.7960   13.8650   83.0600 C.2   424  REA424     -0.0052
      8  C8        40.7350   14.2970   83.7710 C.2   424  REA424     -0.0046
      9  C9        39.8120   13.4090   84.4270 C.2   424  REA424     -0.0219
     10  C10       38.7770   13.8970   85.1470 C.2   424  REA424     -0.0043
     11  C11       38.4090   15.2850   85.3610 C.2   424  REA424     -0.0006
     12  C12       37.3180   15.4760   86.1320 C.2   424  REA424     -0.0041
     13  C13       36.6950   16.7570   86.4220 C.2   424  REA424     -0.0153
     14  C14       35.5770   16.7340   87.1920 C.2   424  REA424      0.0819
     15  C15       34.6610   17.8050   87.6290 C.2   424  REA424      0.3876
     16  C16       43.9430   12.3900   81.6550 C.3   424  REA424      0.0043
     17  C17       42.4910   13.6750   80.0110 C.3   424  REA424      0.0043
     18  C18       42.7630   16.7680   83.8460 C.3   424  REA424      0.0260
     19  C19       40.0350   11.8970   84.3040 C.3   424  REA424      0.0310
     20  C20       37.2930   18.0370   85.8200 C.3   424  REA424      0.0312
     21  O1        33.7180   17.5040   88.3710 O.co2 424  REA424     -0.2406
     22  O2        34.7960   18.9750   87.2310 O.co2 424  REA424     -0.2406
@<TRIPOS>BOND
     1    17     1    1
     2     2     3    1
     3     2     1    1
     4     3     4    1
     5     1    16    1
     6     1     6    1
     7     4     5    1
     8     6     5    2
     9     6     7    1
    10     5    18    1
    11     7     8    2
    12     8     9    1
    13    19     9    1
    14     9    10    2
    15    10    11    1
    16    11    12    2
    17    20    13    1
    18    12    13    1
    19    13    14    2
    20    14    15    1
    21    22    15   ar
    22    15    21   ar
