@<TRIPOS>MOLECULE
3lbe_COA_A_1.pdb
 48 50 0 0 0
SMALL
GASTEIGER

@<TRIPOS>ATOM
      1  N1A       36.4840   18.8030    5.9590 N.2   130  COA130      0.0021
      2  C2A       36.1060   18.0000    7.0200 C.3   130  COA130      0.5254
      3  N3A       37.0530   17.2350    7.6790 N.2   130  COA130     -0.0055
      4  C4A       38.3540   17.2740    7.2840 C.2   130  COA130      0.3518
      5  C5A       38.7540   18.0680    6.2180 C.2   130  COA130      0.2526
      6  C6A       37.8060   18.8410    5.5520 C.2   130  COA130      0.4393
      7  N6A       38.1470   19.5170    4.4560 N.pl3 130  COA130      0.2180
      8  N7A       40.0920   17.9060    6.0560 N.2   130  COA130     -0.2095
      9  C8A       40.5460   17.0310    6.9770 C.3   130  COA130      0.3377
     10  N9A       39.4750   16.6300    7.7370 N.pl3 130  COA130     -0.1439
     11  C1B       39.5090   15.7620    8.9200 C.3   130  COA130      0.3185
     12  C2B       40.1270   14.4230    8.5710 C.3   130  COA130      0.2543
     13  O2B       39.1340   13.5280    8.1170 O.3   130  COA130     -0.2131
     14  C3B       40.7270   13.9940    9.8900 C.3   130  COA130      0.1928
     15  O3B       39.7230   13.4100   10.6750 O.3   130  COA130     -0.2673
     16  P3B       39.8180   11.8840   11.1770 P.3   130  COA130      0.5327
     17  O7A       38.4240   11.3510   11.4330 O.3   130  COA130     -0.1145
     18  O8A       40.5130   11.0440   10.1270 O.2   130  COA130     -0.2224
     19  O9A       40.5990   11.8780   12.4720 O.3   130  COA130     -0.1145
     20  C4B       41.0730   15.3010   10.5790 C.3   130  COA130      0.1795
     21  O4B       40.3170   16.3190    9.9390 O.3   130  COA130     -0.3136
     22  C5B       42.5600   15.6130   10.4870 C.3   130  COA130      0.1812
     23  O5B       42.9810   15.4390    9.1520 O.3   130  COA130     -0.3112
     24  P1A       44.5330   15.6140    8.7940 P.3   130  COA130      0.2189
     25  O1A       44.8010   15.1510    7.3850 O.2   130  COA130     -0.5170
     26  O2A       45.3890   14.8680    9.7830 O.3   130  COA130     -0.4371
     27  O3A       44.8310   17.1850    8.9300 O.3   130  COA130     -0.2703
     28  P2A       44.1330   18.3990    8.1350 P.3   130  COA130      0.2188
     29  O4A       43.3920   17.9340    6.9020 O.2   130  COA130     -0.5170
     30  O5A       45.2580   19.3520    7.8130 O.3   130  COA130     -0.4371
     31  O6A       43.0930   18.9990    9.2150 O.3   130  COA130     -0.3138
     32  CBP       42.9570   20.1480   11.3030 C.3   130  COA130      0.0645
     33  CCP       43.2660   20.2740    9.8100 C.3   130  COA130      0.1519
     34  CDP       42.9360   21.5250   11.9650 C.3   130  COA130      0.0056
     35  CEP       41.5780   19.5150   11.4710 C.3   130  COA130      0.0056
     36  CAP       44.0360   19.2730   11.9520 C.3   130  COA130      0.2312
     37  OAP       45.3140   19.8480   11.7570 O.3   130  COA130     -0.2131
     38  C9P       43.7800   19.0780   13.4300 C.2   130  COA130      0.2719
     39  O9P       42.8870   18.0810   13.8350 O.2   130  COA130     -0.2706
     40  N8P       44.4020   19.8700   14.3100 N.am  130  COA130     -0.2028
     41  C7P       44.0960   19.8190   15.7370 C.3   130  COA130      0.1248
     42  C6P       43.0110   20.8230   16.1420 C.3   130  COA130      0.1102
     43  C5P       42.8830   20.9220   17.6550 C.2   130  COA130      0.2432
     44  O5P       43.0170   19.9260   18.3850 O.2   130  COA130     -0.2733
     45  N4P       42.6180   22.1260   18.1570 N.am  130  COA130     -0.2044
     46  C3P       42.5200   22.3470   19.5950 C.3   130  COA130      0.1276
     47  C2P       41.2610   21.7230   20.2070 C.3   130  COA130      0.0920
     48  S1P       39.7140   22.2740   19.4470 S.3   130  COA130     -0.0802
@<TRIPOS>BOND
     1     7     6    1
     2     6     1    2
     3     6     5    1
     4     1     2    1
     5     8     5    2
     6     8     9    1
     7     5     4    1
     8    29    28    2
     9     9    10    1
    10     2     3    1
    11     4     3    2
    12     4    10    1
    13    25    24    2
    14    10    11    1
    15    30    28    1
    16    13    12    1
    17    28    27    1
    18    28    31    1
    19    12    11    1
    20    12    14    1
    21    24    27    1
    22    24    23    1
    23    24    26    1
    24    11    21    1
    25    23    22    1
    26    31    33    1
    27    33    32    1
    28    14    20    1
    29    14    15    1
    30    21    20    1
    31    18    16    2
    32    22    20    1
    33    15    16    1
    34    16    17    1
    35    16    19    1
    36    32    35    1
    37    32    36    1
    38    32    34    1
    39    37    36    1
    40    36    38    1
    41    38    39    2
    42    38    40   am
    43    40    41    1
    44    41    42    1
    45    42    43    1
    46    43    45   am
    47    43    44    2
    48    45    46    1
    49    48    47    1
    50    46    47    1
