@<TRIPOS>MOLECULE
3lbf_SAH_A_1.pdb
 26 28 0 0 0
SMALL
GASTEIGER

@<TRIPOS>ATOM
      1  N         -3.4050    0.5050    2.7400 N.3   300  SAH300     -0.1208
      2  CA        -4.3340    0.6000    3.9100 C.3   300  SAH300      0.1952
      3  CB        -4.8620    2.0130    4.0380 C.3   300  SAH300      0.0422
      4  CG        -3.7520    2.8980    4.5860 C.3   300  SAH300      0.0597
      5  SD        -4.3810    4.1860    5.6060 S.3   300  SAH300     -0.1375
      6  C         -5.5190   -0.3140    3.7850 C.2   300  SAH300      0.3819
      7  O         -5.7310   -0.9600    2.7670 O.co2 300  SAH300     -0.2441
      8  OXT       -6.3030   -0.4180    4.7280 O.co2 300  SAH300     -0.2441
      9  C5'       -2.8510    4.9850    5.9690 C.3   300  SAH300      0.0899
     10  C4'       -2.1570    4.1340    7.0210 C.3   300  SAH300      0.1630
     11  O4'       -0.8060    4.5250    7.1500 O.3   300  SAH300     -0.3153
     12  C3'       -2.7870    4.3080    8.3900 C.3   300  SAH300      0.2168
     13  O3'       -3.1660    3.0010    8.8700 O.3   300  SAH300     -0.2175
     14  C2'       -1.7050    4.9510    9.2410 C.3   300  SAH300      0.2569
     15  O2'       -1.6820    4.4600   10.5880 O.3   300  SAH300     -0.2130
     16  C1'       -0.4530    4.4720    8.5380 C.3   300  SAH300      0.3185
     17  N9         0.7870    5.2210    8.8640 N.pl3 300  SAH300     -0.1439
     18  C8         0.9410    6.5490    9.0620 C.3   300  SAH300      0.3377
     19  N7         2.2350    6.8460    9.3320 N.2   300  SAH300     -0.2095
     20  C5         2.9260    5.6870    9.3030 C.2   300  SAH300      0.2526
     21  C6         4.3280    5.2730    9.4950 C.2   300  SAH300      0.4393
     22  N6         5.2630    6.2000    9.7810 N.pl3 300  SAH300      0.2180
     23  N1         4.6370    3.9590    9.3600 N.2   300  SAH300      0.0021
     24  C2         3.6940    3.0430    9.0590 C.3   300  SAH300      0.5254
     25  N3         2.4070    3.3550    8.8820 N.2   300  SAH300     -0.0055
     26  C4         1.9690    4.6330    8.9910 C.2   300  SAH300      0.3518
@<TRIPOS>BOND
     1     1     2    1
     2     7     6   ar
     3     6     2    1
     4     6     8   ar
     5     2     3    1
     6     3     4    1
     7     4     5    1
     8     5     9    1
     9     9    10    1
    10    10    11    1
    11    10    12    1
    12    11    16    1
    13    12    13    1
    14    12    14    1
    15    16    17    1
    16    16    14    1
    17    17    26    1
    18    17    18    1
    19    25    26    2
    20    25    24    1
    21    26    20    1
    22    24    23    1
    23    18    19    1
    24    14    15    1
    25    20    19    2
    26    20    21    1
    27    23    21    2
    28    21    22    1
