@<TRIPOS>MOLECULE
3lbg_8TX_A_1.pdb
 12 13 0 0 0
SMALL
GASTEIGER

@<TRIPOS>ATOM
      1  N1        29.9340   27.5010   36.2740 N.2   296  8TX296     -0.2289
      2  C2        29.0360   27.3070   37.2750 C.1   296  8TX296      0.3754
      3  O2        27.9140   27.6530   37.2610 O.2   296  8TX296     -0.1738
      4  N3        29.4640   26.6690   38.4450 N.2   296  8TX296     -0.2368
      5  C4        30.7140   26.2520   38.4560 C.1   296  8TX296      0.2075
      6  C5        31.6250   26.3750   37.4180 C.2   296  8TX296      0.3237
      7  C6        31.2390   27.0400   36.2100 C.1   296  8TX296      0.2603
      8  O6        31.9420   27.2330   35.2380 O.2   296  8TX296     -0.2051
      9  N7        32.7880   25.8200   37.7110 N.2   296  8TX296     -0.3081
     10  C8        32.6290   25.3290   38.9870 C.1   296  8TX296      0.1914
     11  S8        33.7440   24.5990   39.8660 S.2   296  8TX296      0.0582
     12  N9        31.3650   25.5700   39.4470 N.2   296  8TX296     -0.2639
@<TRIPOS>BOND
     1     8     7    2
     2     7     1    2
     3     7     6    1
     4     1     2    2
     5     3     2    2
     6     2     4    2
     7     6     9    2
     8     6     5    1
     9     9    10    2
    10     4     5    2
    11     5    12    2
    12    10    12    2
    13    10    11    2
