@<TRIPOS>MOLECULE
3lbh_GNP_A_1.pdb
 32 34 0 0 0
SMALL
GASTEIGER

@<TRIPOS>ATOM
      1  PG        -9.4900   64.5830  -67.4980 P.3   528  GNP528      0.4884
      2  O1G       -8.5580   64.1430  -66.3830 O.3   528  GNP528     -0.1240
      3  O2G      -10.4950   65.5620  -66.9880 O.3   528  GNP528     -0.1240
      4  O3G      -10.1180   63.3360  -68.0780 O.2   528  GNP528     -0.2331
      5  N3B       -8.5890   65.2730  -68.6810 N.3   528  GNP528     -0.0163
      6  PB        -9.0890   65.8460  -70.1160 P.3   528  GNP528      0.4669
      7  O1B       -9.5370   64.7650  -71.0420 O.2   528  GNP528     -0.2351
      8  O2B      -10.1560   66.8400  -69.9340 O.3   528  GNP528     -0.1253
      9  O3A       -7.8570   66.5560  -70.7490 O.3   528  GNP528     -0.2360
     10  PA        -7.5420   68.0750  -70.7470 P.3   528  GNP528      0.2220
     11  O1A       -8.4840   68.8330  -71.6070 O.2   528  GNP528     -0.5170
     12  O2A       -7.3900   68.6030  -69.3700 O.3   528  GNP528     -0.4370
     13  O5'       -6.1350   68.1820  -71.4310 O.3   528  GNP528     -0.3111
     14  C5'       -4.9890   67.4380  -70.9150 C.3   528  GNP528      0.1813
     15  C4'       -3.7230   68.0720  -71.4440 C.3   528  GNP528      0.1799
     16  O4'       -3.6760   67.8940  -72.8820 O.3   528  GNP528     -0.3326
     17  C3'       -3.6400   69.5830  -71.1980 C.3   528  GNP528      0.2158
     18  O3'       -2.2860   69.9430  -70.9060 O.3   528  GNP528     -0.2175
     19  C2'       -4.0890   70.1830  -72.5330 C.3   528  GNP528      0.2310
     20  O2'       -3.5180   71.4400  -72.8100 O.3   528  GNP528     -0.2158
     21  C1'       -3.5560   69.1520  -73.5250 C.3   528  GNP528      0.2293
     22  N9        -4.3500   69.1330  -74.7370 N.pl3 528  GNP528     -0.2354
     23  C8        -5.7110   68.9450  -74.7830 C.3   528  GNP528      0.2246
     24  N7        -6.1840   68.9840  -75.9970 N.2   528  GNP528     -0.2322
     25  C5        -5.0680   69.2170  -76.8020 C.2   528  GNP528      0.2182
     26  C6        -4.9500   69.3630  -78.2090 C.1   528  GNP528      0.2372
     27  O6        -5.8400   69.3270  -79.0650 O.2   528  GNP528     -0.2069
     28  N1        -3.6450   69.6100  -78.6190 N.2   528  GNP528     -0.2485
     29  C2        -2.5790   69.6780  -77.7660 C.1   528  GNP528      0.2531
     30  N2        -1.3790   69.9020  -78.3160 N.pl3 528  GNP528     -0.0226
     31  N3        -2.6680   69.5430  -76.4480 N.2   528  GNP528     -0.3074
     32  C4        -3.9360   69.3170  -76.0400 C.2   528  GNP528      0.2300
@<TRIPOS>BOND
     1    27    26    2
     2    28    26    2
     3    28    29    2
     4    30    29    1
     5    26    25    1
     6    29    31    2
     7    25    32    1
     8    25    24    2
     9    31    32    2
    10    32    22    1
    11    24    23    1
    12    23    22    1
    13    22    21    1
    14    21    16    1
    15    21    19    1
    16    16    15    1
    17    20    19    1
    18    19    17    1
    19    11    10    2
    20    15    17    1
    21    15    14    1
    22    13    14    1
    23    13    10    1
    24    17    18    1
    25     7     6    2
    26     9    10    1
    27     9     6    1
    28    10    12    1
    29     6     8    1
    30     6     5    1
    31     5     1    1
    32     4     1    2
    33     1     3    1
    34     1     2    1
