@<TRIPOS>MOLECULE
3lbi_GNP_A_1.pdb
 32 34 0 0 0
SMALL
GASTEIGER

@<TRIPOS>ATOM
      1  PG        -9.5940   64.6790  -67.3540 P.3   528  GNP528      0.4884
      2  O1G       -8.7050   64.2060  -66.2210 O.3   528  GNP528     -0.1240
      3  O2G      -10.5850   65.6840  -66.8630 O.3   528  GNP528     -0.1240
      4  O3G      -10.2450   63.4340  -67.9050 O.2   528  GNP528     -0.2331
      5  N3B       -8.7030   65.3330  -68.5470 N.3   528  GNP528     -0.0163
      6  PB        -9.1570   65.8910  -69.9980 P.3   528  GNP528      0.4669
      7  O1B       -9.5490   64.7940  -70.9050 O.2   528  GNP528     -0.2351
      8  O2B      -10.1780   66.9460  -69.8530 O.3   528  GNP528     -0.1253
      9  O3A       -7.9480   66.5760  -70.6430 O.3   528  GNP528     -0.2360
     10  PA        -7.6190   68.0920  -70.6000 P.3   528  GNP528      0.2220
     11  O1A       -8.5760   68.8470  -71.4440 O.2   528  GNP528     -0.5170
     12  O2A       -7.4240   68.5950  -69.2200 O.3   528  GNP528     -0.4370
     13  O5'       -6.2310   68.2430  -71.3250 O.3   528  GNP528     -0.3111
     14  C5'       -5.0660   67.5620  -70.8060 C.3   528  GNP528      0.1813
     15  C4'       -3.8030   68.1840  -71.3650 C.3   528  GNP528      0.1799
     16  O4'       -3.7610   67.9630  -72.8000 O.3   528  GNP528     -0.3326
     17  C3'       -3.7000   69.6960  -71.1600 C.3   528  GNP528      0.2158
     18  O3'       -2.3660   70.0650  -70.8360 O.3   528  GNP528     -0.2175
     19  C2'       -4.1060   70.2690  -72.5190 C.3   528  GNP528      0.2310
     20  O2'       -3.5130   71.5270  -72.7730 O.3   528  GNP528     -0.2158
     21  C1'       -3.5830   69.1960  -73.4740 C.3   528  GNP528      0.2293
     22  N9        -4.3920   69.1770  -74.6800 N.pl3 528  GNP528     -0.2354
     23  C8        -5.7550   69.0050  -74.7410 C.3   528  GNP528      0.2246
     24  N7        -6.2150   69.0580  -75.9550 N.2   528  GNP528     -0.2322
     25  C5        -5.1010   69.2860  -76.7480 C.2   528  GNP528      0.2182
     26  C6        -4.9910   69.4380  -78.1510 C.1   528  GNP528      0.2372
     27  O6        -5.8970   69.3900  -78.9950 O.2   528  GNP528     -0.2069
     28  N1        -3.6740   69.6580  -78.5530 N.2   528  GNP528     -0.2485
     29  C2        -2.6080   69.7260  -77.6830 C.1   528  GNP528      0.2531
     30  N2        -1.3980   69.9460  -78.2080 N.pl3 528  GNP528     -0.0226
     31  N3        -2.7020   69.5840  -76.3700 N.2   528  GNP528     -0.3074
     32  C4        -3.9720   69.3580  -75.9770 C.2   528  GNP528      0.2300
@<TRIPOS>BOND
     1    27    26    2
     2    28    26    2
     3    28    29    2
     4    30    29    1
     5    26    25    1
     6    29    31    2
     7    25    32    1
     8    25    24    2
     9    31    32    2
    10    32    22    1
    11    24    23    1
    12    23    22    1
    13    22    21    1
    14    21    16    1
    15    21    19    1
    16    16    15    1
    17    20    19    1
    18    19    17    1
    19    11    10    2
    20    15    17    1
    21    15    14    1
    22    13    14    1
    23    13    10    1
    24    17    18    1
    25     7     6    2
    26     9    10    1
    27     9     6    1
    28    10    12    1
    29     6     8    1
    30     6     5    1
    31     5     1    1
    32     4     1    2
    33     1     3    1
    34     1     2    1
