@<TRIPOS>MOLECULE
3lbj_WW8_E_1.pdb
 44 49 0 0 0
SMALL
GASTEIGER

@<TRIPOS>ATOM
      1  C1        15.4330   -6.5810    4.9840 C.ar    1  WW81        0.0434
      2  C2        16.4450   -6.3180    5.9000 C.ar    1  WW81        0.0602
      3 CL3        16.9210   -7.5330    7.0300 Cl      1  WW81       -0.0822
      4  C4        17.0910   -5.0870    5.8940 C.ar    1  WW81        0.0116
      5  C5        16.7210   -4.0870    4.9890 C.ar    1  WW81        0.0032
      6  C6        15.7130   -4.3590    4.0730 C.ar    1  WW81        0.0299
      7  C7        15.0650   -5.5890    4.0970 C.ar    1  WW81        0.1322
      8  N8        14.1750   -5.6050    3.1360 N.2     1  WW81       -0.3975
      9  C9        14.1750   -4.4420    2.5120 C.2     1  WW81        0.1823
     10  C10       13.2140   -4.2420    1.3740 C.2     1  WW81        0.2785
     11  O11       12.9040   -5.2480    0.7270 O.2     1  WW81       -0.2671
     12  N12       12.6710   -3.0850    1.0600 N.am    1  WW81       -0.2726
     13  C13       12.8390   -1.8290    1.8120 C.3     1  WW81        0.1097
     14  C14       11.5690   -1.0950    1.4220 C.3     1  WW81        0.0791
     15  N15       11.6450    0.3280    1.7340 N.3     1  WW81       -0.2711
     16  C16       12.0730    0.7380    3.0620 C.3     1  WW81        0.0736
     17  C17       12.7070    2.1190    3.1440 C.3     1  WW81        0.0346
     18  C18       13.0530    2.2500    4.6170 C.3     1  WW81        0.0736
     19  N19       13.2080    3.6120    5.0680 N.3     1  WW81       -0.2703
     20  C20       13.4130    4.0040    6.4330 C.3     1  WW81        0.0897
     21  C21       14.5030    4.0160    4.5180 C.3     1  WW81        0.0897
     22  C22       10.8070    1.2150    0.9420 C.3     1  WW81        0.0896
     23  C23       11.3520   -1.4460   -0.0600 C.3     1  WW81        0.0392
     24  C24       11.7160   -2.9390   -0.0660 C.3     1  WW81        0.0953
     25  C25       15.1110   -3.5930    3.0880 C.2     1  WW81        0.0345
     26  C26       15.5830   -2.3260    2.7040 C.3     1  WW81        0.1249
     27  C27       15.7760   -1.1580    3.4410 C.2     1  WW81        0.0741
     28  C28       15.3500   -0.8220    4.7210 C.ar    1  WW81        0.0148
     29  C29       16.0340    0.1950    5.3760 C.ar    1  WW81        0.0012
     30  C30       15.6210    0.6210    6.6400 C.ar    1  WW81        0.0000
     31  C31       14.5210    0.0060    7.2570 C.ar    1  WW81        0.0000
     32  C32       13.8580   -1.0160    6.5800 C.ar    1  WW81        0.0000
     33  C33       14.2740   -1.4480    5.3270 C.ar    1  WW81        0.0012
     34  N34       16.3590   -0.2480    2.6450 N.2     1  WW81       -0.2549
     35  C35       16.6040   -0.8210    1.4760 C.3     1  WW81        0.2013
     36  N36       16.1620   -2.0590    1.5200 N.3     1  WW81       -0.2407
     37  C37       16.2950   -2.9700    0.3860 C.3     1  WW81        0.1012
     38  C38       17.3100   -4.0810    0.7390 C.ar    1  WW81       -0.0060
     39  C39       16.9410   -5.4090    0.6070 C.ar    1  WW81       -0.0021
     40  C40       17.8310   -6.4330    0.9180 C.ar    1  WW81        0.0111
     41  C41       19.1030   -6.1490    1.3930 C.ar    1  WW81        0.0577
     42 CL42       20.2250   -7.4080    1.7940 Cl      1  WW81       -0.0822
     43  C43       19.4720   -4.8300    1.5460 C.ar    1  WW81        0.0111
     44  C44       18.5750   -3.7920    1.2360 C.ar    1  WW81       -0.0021
@<TRIPOS>BOND
     1    24    23    1
     2    24    12    1
     3    23    14    1
     4    37    38    1
     5    37    36    1
     6    39    38   ar
     7    39    40   ar
     8    11    10    2
     9    38    44   ar
    10    40    41   ar
    11    22    15    1
    12    12    10   am
    13    12    13    1
    14    44    43   ar
    15    10     9    1
    16    41    43   ar
    17    41    42    1
    18    14    15    1
    19    14    13    1
    20    35    36    1
    21    35    34    1
    22    36    26    1
    23    15    16    1
    24     9    25    1
    25     9     8    2
    26    34    27    2
    27    26    25    1
    28    26    27    1
    29    16    17    1
    30    25     6    2
    31     8     7    2
    32    17    18    1
    33    27    28    1
    34     6     7   ar
    35     6     5   ar
    36     7     1   ar
    37    21    19    1
    38    18    19    1
    39    28    33   ar
    40    28    29   ar
    41     1     2   ar
    42     5     4   ar
    43    19    20    1
    44    33    32   ar
    45    29    30   ar
    46     4     2   ar
    47     2     3    1
    48    32    31   ar
    49    30    31   ar
