@<TRIPOS>MOLECULE
3lbk_K23_A_1.pdb
 32 36 0 0 0
SMALL
GASTEIGER

@<TRIPOS>ATOM
      1  C1        19.3890   15.1240    3.3630 C.2     1  K231        0.0386
      2 CL2        19.8380   13.7230    4.2620 Cl      1  K231       -0.0868
      3  C3        19.6630   16.3950    3.7780 C.2     1  K231       -0.0139
      4  C4        19.2800   17.4870    3.0140 C.3     1  K231        0.0549
      5  C5        18.6040   17.2920    1.8150 C.2     1  K231        0.0083
      6  C6        18.3430   15.9980    1.4010 C.2     1  K231        0.1106
      7  C7        18.7350   14.9180    2.1640 C.3     1  K231        0.0961
      8  N8        17.7030   16.0300    0.2640 N.2     1  K231       -0.3997
      9  C9        17.5480   17.2960   -0.1130 C.2     1  K231        0.2076
     10  C10       16.8080   17.5960   -1.4360 C.2     1  K231        0.4165
     11  O11       16.1340   16.6590   -1.9010 O.co2   1  K231       -0.2377
     12  O12       16.8590   18.7050   -1.9680 O.co2   1  K231       -0.2377
     13  C13       18.0530   18.1340    0.8610 C.2     1  K231        0.0326
     14  C14       18.1610   19.5260    0.9100 C.3     1  K231        0.1247
     15  C15       17.5110   20.4480    1.7510 C.2     1  K231        0.0741
     16  C16       16.5290   20.2190    2.7060 C.ar    1  K231        0.0148
     17  C17       16.5750   20.9180    3.8990 C.ar    1  K231        0.0012
     18  C18       15.6070   20.7620    4.8740 C.ar    1  K231        0.0000
     19  C19       14.5390   19.9150    4.6420 C.ar    1  K231        0.0000
     20  C20       14.4720   19.2340    3.4340 C.ar    1  K231        0.0000
     21  C21       15.4610   19.3910    2.4730 C.ar    1  K231        0.0012
     22  N22       17.9720   21.6750    1.4750 N.2     1  K231       -0.2549
     23  C23       18.8840   21.5630    0.5100 C.3     1  K231        0.2013
     24  N24       19.0050   20.2670    0.1910 N.3     1  K231       -0.2407
     25  C25       19.8810   19.7410   -0.8460 C.3     1  K231        0.1012
     26  C26       21.0330   18.9670   -0.2960 C.ar    1  K231       -0.0060
     27  C27       21.4040   17.8070   -0.9410 C.ar    1  K231       -0.0021
     28  C28       22.4660   17.0810   -0.4430 C.ar    1  K231        0.0111
     29  C29       23.1340   17.5120    0.6680 C.ar    1  K231        0.0577
     30 CL30       24.4730   16.6010    1.2070 Cl      1  K231       -0.0822
     31  C31       22.7740   18.6820    1.3270 C.ar    1  K231        0.0111
     32  C32       21.7000   19.4050    0.8330 C.ar    1  K231       -0.0021
@<TRIPOS>BOND
     1    12    10   ar
     2    11    10   ar
     3    10     9    1
     4    27    28   ar
     5    27    26   ar
     6    25    26    1
     7    25    24    1
     8    28    29   ar
     9    26    32   ar
    10     9     8    2
    11     9    13    1
    12    24    23    1
    13    24    14    1
    14     8     6    2
    15    23    22    1
    16    29    30    1
    17    29    31   ar
    18    32    31   ar
    19    13    14    1
    20    13     5    2
    21    14    15    1
    22     6     5    1
    23     6     7    1
    24    22    15    2
    25    15    16    1
    26     5     4    1
    27     7     1    1
    28    21    16   ar
    29    21    20   ar
    30    16    17   ar
    31     4     3    1
    32     1     3    2
    33     1     2    1
    34    20    19   ar
    35    17    18   ar
    36    19    18   ar
