@<TRIPOS>MOLECULE
3lbl_MI6_A_1.pdb
 31 34 0 0 0
SMALL
GASTEIGER

@<TRIPOS>ATOM
      1  C1       -13.6040    3.6600  -18.5500 C.2     1  MI61        0.1272
      2  C2       -12.8400    4.7960  -18.7890 C.2     1  MI61        0.0402
      3  C3       -11.7930    5.1400  -17.9500 C.2     1  MI61        0.0596
      4 CL4       -10.8820    6.5690  -18.3070 Cl      1  MI61       -0.0822
      5  C5       -11.5150    4.3300  -16.8510 C.2     1  MI61        0.0073
      6  C6       -12.2720    3.1770  -16.5990 C.2     1  MI61       -0.0174
      7  C7       -13.3360    2.8340  -17.4390 C.3     1  MI61        0.0924
      8  C8       -14.3840    1.7070  -17.5500 C.3     1  MI61        0.1341
      9  C9       -15.1480    2.1160  -18.7510 C.1     1  MI61        0.1801
     10  O10      -16.1070    1.4800  -19.1780 O.2     1  MI61       -0.2142
     11  N11      -14.6360    3.2170  -19.2730 N.2     1  MI61       -0.3404
     12  C12      -13.8270    0.2960  -17.8780 C.3     1  MI61        0.0897
     13  C13      -12.6350    0.3320  -18.8850 C.3     1  MI61        0.0185
     14  C14      -11.4510   -0.6270  -18.7400 C.3     1  MI61        0.0014
     15  C15      -10.8500   -0.7770  -20.1340 C.3     1  MI61        0.0000
     16  C16      -10.4100    0.0060  -17.8270 C.3     1  MI61        0.0000
     17  C17      -11.8420   -2.0140  -18.2170 C.3     1  MI61        0.0000
     18  N18      -13.6520   -0.3580  -16.5620 N.3     1  MI61       -0.2101
     19  C19      -14.9400   -0.0540  -15.8890 C.3     1  MI61        0.1572
     20  C20      -14.8500   -0.3780  -14.3920 C.2     1  MI61        0.2769
     21  O21      -15.3270    0.3400  -13.5260 O.2     1  MI61       -0.2701
     22  N22      -14.3020   -1.5660  -14.1460 N.am    1  MI61       -0.0866
     23  C31      -15.4100    1.3420  -16.4370 C.3     1  MI61        0.0670
     24  C32      -16.0800    2.5630  -15.6900 C.ar    1  MI61        0.0088
     25  C33      -15.5880    3.5780  -14.8320 C.ar    1  MI61        0.1467
     26  F34      -14.3260    3.6400  -14.3650 F       1  MI61       -0.2036
     27  C35      -16.4730    4.5770  -14.3870 C.ar    1  MI61        0.0847
     28 CL36      -15.9740    5.8310  -13.3140 Cl      1  MI61       -0.0799
     29  C37      -17.7990    4.6200  -14.7900 C.ar    1  MI61        0.0136
     30  C38      -18.2820    3.6550  -15.6510 C.ar    1  MI61        0.0007
     31  C39      -17.4160    2.6710  -16.0920 C.ar    1  MI61       -0.0019
@<TRIPOS>BOND
     1    15    14    1
     2    11     9    2
     3    11     1    2
     4    10     9    2
     5    13    14    1
     6    13    12    1
     7     2     1    1
     8     2     3    2
     9     9     8    1
    10    14    17    1
    11    14    16    1
    12     1     7    1
    13     4     3    1
    14     3     5    1
    15    12     8    1
    16    12    18    1
    17     8     7    1
    18     8    23    1
    19     7     6    1
    20     5     6    2
    21    18    19    1
    22    23    19    1
    23    23    24    1
    24    31    24   ar
    25    31    30   ar
    26    19    20    1
    27    24    25   ar
    28    30    29   ar
    29    25    27   ar
    30    25    26    1
    31    29    27   ar
    32    20    22   am
    33    20    21    2
    34    27    28    1
