@<TRIPOS>MOLECULE
3lbn_GNP_A_1.pdb
 32 34 0 0 0
SMALL
GASTEIGER

@<TRIPOS>ATOM
      1  PG        -9.5480   64.4240  -67.6400 P.3   528  GNP528      0.4884
      2  O1G       -8.6290   64.0720  -66.4850 O.3   528  GNP528     -0.1240
      3  O2G      -10.5860   65.3880  -67.1600 O.3   528  GNP528     -0.1240
      4  O3G      -10.1460   63.1340  -68.1710 O.2   528  GNP528     -0.2331
      5  N3B       -8.6510   65.1080  -68.8150 N.3   528  GNP528     -0.0163
      6  PB        -9.1550   65.7010  -70.2240 P.3   528  GNP528      0.4669
      7  O1B       -9.5770   64.6360  -71.1640 O.2   528  GNP528     -0.2351
      8  O2B      -10.2100   66.7000  -70.0070 O.3   528  GNP528     -0.1253
      9  O3A       -7.9660   66.4330  -70.8690 O.3   528  GNP528     -0.2360
     10  PA        -7.6310   67.9420  -70.8350 P.3   528  GNP528      0.2220
     11  O1A       -8.5810   68.6700  -71.7220 O.2   528  GNP528     -0.5170
     12  O2A       -7.4930   68.4350  -69.4360 O.3   528  GNP528     -0.4370
     13  O5'       -6.2250   68.0590  -71.5280 O.3   528  GNP528     -0.3111
     14  C5'       -5.0680   67.3380  -71.0380 C.3   528  GNP528      0.1813
     15  C4'       -3.7940   67.9590  -71.5660 C.3   528  GNP528      0.1799
     16  O4'       -3.7790   67.7710  -72.9950 O.3   528  GNP528     -0.3326
     17  C3'       -3.6630   69.4640  -71.3390 C.3   528  GNP528      0.2158
     18  O3'       -2.3050   69.8320  -71.1270 O.3   528  GNP528     -0.2175
     19  C2'       -4.1780   70.0640  -72.6510 C.3   528  GNP528      0.2310
     20  O2'       -3.6140   71.3330  -72.9500 O.3   528  GNP528     -0.2158
     21  C1'       -3.6710   69.0250  -73.6430 C.3   528  GNP528      0.2293
     22  N9        -4.4800   68.9950  -74.8460 N.pl3 528  GNP528     -0.2354
     23  C8        -5.8430   68.8090  -74.9190 C.3   528  GNP528      0.2246
     24  N7        -6.2930   68.8550  -76.1430 N.2   528  GNP528     -0.2322
     25  C5        -5.1760   69.1000  -76.9240 C.2   528  GNP528      0.2182
     26  C6        -5.0530   69.2440  -78.3250 C.1   528  GNP528      0.2372
     27  O6        -5.9470   69.1920  -79.1830 O.2   528  GNP528     -0.2069
     28  N1        -3.7320   69.4740  -78.7060 N.2   528  GNP528     -0.2485
     29  C2        -2.6710   69.5470  -77.8310 C.1   528  GNP528      0.2531
     30  N2        -1.4650   69.7910  -78.3570 N.pl3 528  GNP528     -0.0226
     31  N3        -2.7760   69.4120  -76.5190 N.2   528  GNP528     -0.3074
     32  C4        -4.0520   69.1860  -76.1360 C.2   528  GNP528      0.2300
@<TRIPOS>BOND
     1    27    26    2
     2    28    26    2
     3    28    29    2
     4    30    29    1
     5    26    25    1
     6    29    31    2
     7    25    24    2
     8    25    32    1
     9    31    32    2
    10    24    23    1
    11    32    22    1
    12    23    22    1
    13    22    21    1
    14    21    16    1
    15    21    19    1
    16    16    15    1
    17    20    19    1
    18    19    17    1
    19    11    10    2
    20    15    17    1
    21    15    14    1
    22    13    14    1
    23    13    10    1
    24    17    18    1
    25     7     6    2
    26     9    10    1
    27     9     6    1
    28    10    12    1
    29     6     8    1
    30     6     5    1
    31     5     1    1
    32     4     1    2
    33     1     3    1
    34     1     2    1
