@<TRIPOS>MOLECULE
3lbo_LDT_A_1.pdb
 24 25 0 0 0
SMALL
GASTEIGER

@<TRIPOS>ATOM
      1  C2        15.7080   -9.4200   18.0050 C.ar  600  LDT600      0.0666
      2  C3        15.9510  -10.2910   15.3800 C.ar  600  LDT600      0.0071
      3  C4        16.5250   -8.7450   17.1150 C.ar  600  LDT600      0.1433
      4  C5        15.0220  -10.5230   17.5200 C.ar  600  LDT600      0.1432
      5  C6        15.1100  -11.0000   16.2270 C.ar  600  LDT600      0.0299
      6  C7        16.6430   -9.1610   15.7970 C.ar  600  LDT600      0.0556
      7 BR8        14.8290   -3.6350    9.3570 Br    600  LDT600     -0.0489
      8  F9        14.2190  -11.1580   18.4080 F     600  LDT600     -0.2041
      9  C11       17.4980   -8.4060   14.8170 C.2   600  LDT600      0.1039
     10  C13       18.1480   -6.2630   13.8650 C.3   600  LDT600      0.1414
     11  F14       19.0620   -4.3300   12.1340 F     600  LDT600     -0.2044
     12  O15       17.3020   -7.6590   17.4730 O.3   600  LDT600     -0.4636
     13  S16       18.3600   -9.2580   13.7880 S.2   600  LDT600     -0.0331
     14  N17       17.4020   -7.0770   14.8240 N.am  600  LDT600     -0.2257
     15  C20       16.8660   -6.8190   18.5590 C.3   600  LDT600      0.3186
     16  C24       17.2530   -5.6850   12.7890 C.ar  600  LDT600      0.0269
     17  C25       15.7520   -4.4940   10.7090 C.ar  600  LDT600      0.0368
     18  C26       15.9400   -6.0870   12.5430 C.ar  600  LDT600      0.0002
     19  C27       17.7960   -4.7000   11.9330 C.ar  600  LDT600      0.1383
     20  C28       17.0760   -4.1160   10.9350 C.ar  600  LDT600      0.0361
     21  C29       15.1750   -5.4870   11.5220 C.ar  600  LDT600      0.0066
     22  C32       15.6730   -6.0080   18.0430 C.2   600  LDT600      0.4084
     23  O33       15.4650   -5.8450   16.8350 O.co2 600  LDT600     -0.2415
     24  O34       14.9420   -5.5240   18.9970 O.co2 600  LDT600     -0.2415
@<TRIPOS>BOND
     1     7    17    1
     2    17    20   ar
     3    17    21   ar
     4    20    19   ar
     5    21    18   ar
     6    19    11    1
     7    19    16   ar
     8    18    16   ar
     9    16    10    1
    10    13     9    2
    11    10    14    1
    12     9    14    1
    13     9     6    1
    14     2     6   ar
    15     2     5   ar
    16     6     3   ar
    17     5     4   ar
    18    23    22   ar
    19     3    12    1
    20     3     1   ar
    21    12    15    1
    22     4     1   ar
    23     4     8    1
    24    22    15    1
    25    22    24   ar
