@<TRIPOS>MOLECULE
3lbo_NAP_A_1.pdb
 48 52 0 0 0
SMALL
GASTEIGER

@<TRIPOS>ATOM
      1  PA        22.5990   -4.7840   26.9190 P.3   500  NAP500      0.2189
      2  O1A       23.5220   -3.7370   26.4060 O.2   500  NAP500     -0.5170
      3  O2A       21.5240   -4.4340   27.8540 O.3   500  NAP500     -0.4371
      4  O5B       23.5260   -5.9550   27.4440 O.3   500  NAP500     -0.3112
      5  C5B       22.9240   -7.1920   27.9590 C.3   500  NAP500      0.1813
      6  C4B       24.0970   -8.0900   28.3380 C.3   500  NAP500      0.1820
      7  O4B       24.8450   -7.4850   29.3990 O.3   500  NAP500     -0.3136
      8  C3B       23.6790   -9.4960   28.8240 C.3   500  NAP500      0.2157
      9  O3B       24.6100  -10.4240   28.2780 O.3   500  NAP500     -0.2175
     10  C2B       23.7870   -9.3480   30.3660 C.3   500  NAP500      0.2314
     11  O2B       24.1410  -10.6050   30.9420 O.3   500  NAP500     -0.2630
     12  C1B       24.9690   -8.3850   30.4880 C.3   500  NAP500      0.3158
     13  N9A       24.9510   -7.6310   31.7110 N.pl3 500  NAP500     -0.1439
     14  C8A       23.8660   -6.9720   32.2600 C.3   500  NAP500      0.3377
     15  N7A       24.1300   -6.3600   33.3860 N.2   500  NAP500     -0.2095
     16  C5A       25.4810   -6.6280   33.5780 C.2   500  NAP500      0.2526
     17  C6A       26.3030   -6.2420   34.6300 C.2   500  NAP500      0.4393
     18  N6A       25.9180   -5.4960   35.6860 N.pl3 500  NAP500      0.2180
     19  N1A       27.6120   -6.6660   34.5530 N.2   500  NAP500      0.0021
     20  C2A       28.0490   -7.4570   33.5060 C.3   500  NAP500      0.5254
     21  N3A       27.2620   -7.8450   32.4800 N.2   500  NAP500     -0.0055
     22  C4A       25.9670   -7.3950   32.5510 C.2   500  NAP500      0.3518
     23  O3        21.9620   -5.5170   25.6130 O.3   500  NAP500     -0.2703
     24  PN        20.5970   -5.6100   24.8190 P.3   500  NAP500      0.2189
     25  O1N       19.7870   -6.7410   25.3920 O.3   500  NAP500     -0.4371
     26  O2N       20.9260   -5.6330   23.3710 O.2   500  NAP500     -0.5170
     27  O5D       19.8550   -4.1990   25.0620 O.3   500  NAP500     -0.3112
     28  C5D       18.9680   -3.9390   26.2090 C.3   500  NAP500      0.1813
     29  C4D       17.5300   -4.0840   25.7660 C.3   500  NAP500      0.1799
     30  O4D       17.1930   -3.0700   24.7570 O.3   500  NAP500     -0.3327
     31  C3D       17.1130   -5.3770   25.0430 C.3   500  NAP500      0.2158
     32  O3D       17.0500   -6.4830   25.9260 O.3   500  NAP500     -0.2175
     33  C2D       15.7570   -4.9300   24.4490 C.3   500  NAP500      0.2309
     34  O2D       14.8110   -4.9030   25.5170 O.3   500  NAP500     -0.2158
     35  C1D       16.1030   -3.5150   23.9870 C.3   500  NAP500      0.2263
     36  N1N       16.5750   -3.4900   22.5340 N.pl3 500  NAP500     -0.2787
     37  C2N       15.7130   -2.9360   21.6140 C.3   500  NAP500      0.1244
     38  C3N       16.0610   -2.9510   20.2630 C.2   500  NAP500      0.0544
     39  C7N       15.1560   -2.3130   19.2460 C.2   500  NAP500      0.2818
     40  O7N       15.4030   -2.4960   18.0540 O.2   500  NAP500     -0.2670
     41  N7N       14.2700   -1.4430   19.7070 N.am  500  NAP500     -0.0839
     42  C4N       17.2790   -3.5640   19.8460 C.2   500  NAP500      0.0033
     43  C5N       18.1510   -4.0900   20.8150 C.2   500  NAP500      0.0157
     44  C6N       17.8200   -4.0290   22.1590 C.2   500  NAP500      0.0633
     45  P2B       23.0690  -11.5160   31.7700 P.3   500  NAP500      0.5328
     46  O1X       23.6470  -12.9060   31.5430 O.3   500  NAP500     -0.1145
     47  O2X       23.1780  -11.0510   33.2310 O.3   500  NAP500     -0.1145
     48  O3X       21.7190  -11.2850   31.1840 O.2   500  NAP500     -0.2224
@<TRIPOS>BOND
     1    40    39    2
     2    39    41   am
     3    39    38    1
     4    42    38    2
     5    42    43    1
     6    38    37    1
     7    43    44    2
     8    37    36    1
     9    44    36    1
    10    36    35    1
    11    26    24    2
    12    35    33    1
    13    35    30    1
    14    33    31    1
    15    33    34    1
    16    30    29    1
    17    24    27    1
    18    24    25    1
    19    24    23    1
    20    31    29    1
    21    31    32    1
    22    27    28    1
    23    23     1    1
    24    29    28    1
    25     2     1    2
    26     1     4    1
    27     1     3    1
    28     4     5    1
    29     5     6    1
    30     9     8    1
    31     6     8    1
    32     6     7    1
    33     8    10    1
    34     7    12    1
    35    10    12    1
    36    10    11    1
    37    12    13    1
    38    11    45    1
    39    48    45    2
    40    46    45    1
    41    13    14    1
    42    13    22    1
    43    45    47    1
    44    14    15    1
    45    21    22    2
    46    21    20    1
    47    22    16    1
    48    15    16    2
    49    20    19    1
    50    16    17    1
    51    19    17    2
    52    17    18    1
