@<TRIPOS>MOLECULE
3lbs_MAL_A_1.pdb
 23 24 0 0 0
SMALL
GASTEIGER

@<TRIPOS>ATOM
      1  C1        -7.0890  -21.4340   22.1890 C.3   401  MAL401      0.2695
      2  C2        -6.2800  -20.2000   22.5470 C.3   401  MAL401      0.2406
      3  C3        -7.2500  -19.1640   23.1260 C.3   401  MAL401      0.2198
      4  C4        -8.2340  -18.8140   22.0130 C.3   401  MAL401      0.2144
      5  C5        -8.9620  -20.0840   21.5410 C.3   401  MAL401      0.1835
      6  C6        -9.9170  -19.8130   20.3710 C.3   401  MAL401      0.2142
      7  O1        -7.7150  -21.8680   23.3670 O.3   401  MAL401     -0.3257
      8  O2        -5.3000  -20.6330   23.4520 O.3   401  MAL401     -0.2149
      9  O3        -6.4820  -18.0350   23.5690 O.3   401  MAL401     -0.2174
     10  O4        -9.1590  -17.8150   22.4250 O.3   401  MAL401     -0.2176
     11  O5        -8.0450  -21.1350   21.1740 O.3   401  MAL401     -0.3256
     12  O6       -10.9190  -20.8050   20.3280 O.3   401  MAL401     -0.2176
     13  C1'       -8.0040  -25.6250   25.3540 C.3   401  MAL401      0.3023
     14  C2'       -6.5910  -25.1000   25.0130 C.3   401  MAL401      0.2433
     15  C3'       -6.5610  -23.6420   24.5740 C.3   401  MAL401      0.2168
     16  C4'       -7.6950  -23.2720   23.6090 C.3   401  MAL401      0.1804
     17  C5'       -9.0470  -23.7050   24.1490 C.3   401  MAL401      0.1804
     18  C6'      -10.1550  -23.4730   23.1020 C.3   401  MAL401      0.2141
     19  O1'       -8.2910  -25.1890   26.6300 O.3   401  MAL401     -0.1869
     20  O2'       -5.8290  -25.1310   26.1970 O.3   401  MAL401     -0.2148
     21  O3'       -5.2790  -23.3380   24.0360 O.3   401  MAL401     -0.2175
     22  O5'       -9.0400  -25.1200   24.5200 O.3   401  MAL401     -0.3237
     23  O6'      -11.4160  -23.5420   23.7890 O.3   401  MAL401     -0.2176
@<TRIPOS>BOND
     1    12     6    1
     2     6     5    1
     3    11     5    1
     4    11     1    1
     5     5     4    1
     6     4    10    1
     7     4     3    1
     8     1     2    1
     9     1     7    1
    10     2     3    1
    11     2     8    1
    12    18    23    1
    13    18    17    1
    14     3     9    1
    15     7    16    1
    16    16    17    1
    17    16    15    1
    18    21    15    1
    19    17    22    1
    20    22    13    1
    21    15    14    1
    22    14    13    1
    23    14    20    1
    24    13    19    1
