@<TRIPOS>MOLECULE
3lby_SAH_A_1.pdb
 26 28 0 0 0
SMALL
GASTEIGER

@<TRIPOS>ATOM
      1  N         14.6990   44.5170   -1.0800 N.3   4630  SAH4630    -0.1208
      2  CA        14.5150   43.0970   -0.6800 C.3   4630  SAH4630     0.1952
      3  CB        13.4510   42.4200   -1.5390 C.3   4630  SAH4630     0.0422
      4  CG        13.0590   43.1470   -2.8200 C.3   4630  SAH4630     0.0597
      5  SD        12.3060   41.9980   -3.9970 S.3   4630  SAH4630    -0.1375
      6  C         15.8340   42.3240   -0.6970 C.2   4630  SAH4630     0.3819
      7  O         16.9110   42.9120   -0.7830 O.co2 4630  SAH4630    -0.2441
      8  OXT       15.8540   41.0970   -0.6060 O.co2 4630  SAH4630    -0.2441
      9  C5'       10.8830   43.0760   -4.3400 C.3   4630  SAH4630     0.0899
     10  C4'       10.1270   42.5770   -5.5670 C.3   4630  SAH4630     0.1630
     11  O4'        8.8460   43.1680   -5.6310 O.3   4630  SAH4630    -0.3153
     12  C3'       10.7970   42.8680   -6.9160 C.3   4630  SAH4630     0.2168
     13  O3'       10.9690   41.6530   -7.6210 O.3   4630  SAH4630    -0.2175
     14  C2'        9.7720   43.7090   -7.6730 C.3   4630  SAH4630     0.2569
     15  O2'        9.7490   43.4310   -9.0530 O.3   4630  SAH4630    -0.2130
     16  C1'        8.4890   43.2490   -7.0020 C.3   4630  SAH4630     0.3185
     17  N9         7.3580   44.1710   -7.1610 N.pl3 4630  SAH4630    -0.1439
     18  C8         7.3870   45.5370   -7.3150 C.3   4630  SAH4630     0.3377
     19  N7         6.1090   45.9610   -7.4000 N.2   4630  SAH4630    -0.2095
     20  C5         5.2730   44.9030   -7.3010 C.2   4630  SAH4630     0.2526
     21  C6         3.8900   44.7750   -7.3160 C.2   4630  SAH4630     0.4393
     22  N6         3.1030   45.8430   -7.4560 N.pl3 4630  SAH4630     0.2180
     23  N1         3.3310   43.5230   -7.1680 N.2   4630  SAH4630     0.0021
     24  C2         4.1250   42.4030   -7.0160 C.3   4630  SAH4630     0.5254
     25  N3         5.4950   42.5430   -7.0030 N.2   4630  SAH4630    -0.0055
     26  C4         6.0550   43.7680   -7.1400 C.2   4630  SAH4630     0.3518
@<TRIPOS>BOND
     1    15    14    1
     2    14    16    1
     3    14    12    1
     4    13    12    1
     5    22    21    1
     6    19    18    1
     7    19    20    2
     8    21    20    1
     9    21    23    2
    10    18    17    1
    11    20    26    1
    12    23    24    1
    13    17    26    1
    14    17    16    1
    15    26    25    2
    16    24    25    1
    17    16    11    1
    18    12    10    1
    19    11    10    1
    20    10     9    1
    21     9     5    1
    22     5     4    1
    23     4     3    1
    24     3     2    1
    25     1     2    1
    26     7     6   ar
    27     6     2    1
    28     6     8   ar
