@<TRIPOS>MOLECULE
3lbz_Z88_A_1.pdb
 14 14 0 0 0
SMALL
GASTEIGER

@<TRIPOS>ATOM
      1  CAA      -12.9430  -15.8910   -2.4080 C.3   200  Z88200      0.0982
      2  OAB      -11.7920  -14.0180   -3.3140 O.2   200  Z88200     -0.2716
      3  OAC      -12.6820  -13.1960    1.0640 O.2   200  Z88200     -0.1482
      4  OAD      -12.9170  -15.4740    0.6420 O.2   200  Z88200     -0.1482
      5 BRAE      -19.4250  -12.9360    0.3930 Br    200  Z88200     -0.0490
      6  CAF      -17.0600  -14.6880    0.7790 C.ar  200  Z88200      0.0081
      7  CAG      -16.6590  -12.4690   -0.1490 C.ar  200  Z88200      0.0081
      8  CAH      -15.6850  -14.9280    0.7160 C.ar  200  Z88200      0.0208
      9  CAI      -15.2950  -12.6970   -0.2050 C.ar  200  Z88200      0.0208
     10  NAJ      -12.5480  -13.8040   -1.1970 N.am  200  Z88200     -0.0591
     11  CAK      -12.3830  -14.4990   -2.3450 C.2   200  Z88200      0.2631
     12  CAL      -17.5550  -13.4360    0.3380 C.ar  200  Z88200      0.0346
     13  CAM      -14.8060  -13.9380    0.2180 C.ar  200  Z88200      0.1272
     14  SAN      -13.2100  -14.1560    0.1580 S.O2  200  Z88200      0.0954
@<TRIPOS>BOND
     1     2    11    2
     2     1    11    1
     3    11    10   am
     4    10    14    1
     5     9     7   ar
     6     9    13   ar
     7     7    12   ar
     8    14    13    1
     9    14     4    2
    10    14     3    2
    11    13     8   ar
    12    12     5    1
    13    12     6   ar
    14     8     6   ar
