@<TRIPOS>MOLECULE
3lbz_Z89_A_1.pdb
 26 28 0 0 0
SMALL
GASTEIGER

@<TRIPOS>ATOM
      1  C         -5.8640    6.9850   20.3670 C.2   201  Z89201      0.3834
      2  N         -5.4560    5.2670   18.8240 N.am  201  Z89201     -0.2376
      3  O         -6.4920    6.0600   20.9680 O.co2 201  Z89201     -0.2438
      4  CA        -4.8740    6.5840   19.2700 C.3   201  Z89201      0.1948
      5  CB        -3.4770    6.5540   19.9250 C.3   201  Z89201      0.1457
      6  CG        -2.9580    7.9740   20.1740 C.2   201  Z89201      0.3671
      7  CAA       -4.1380   -0.2320   18.9500 C.ar  201  Z89201      0.1448
      8  CAB       -4.1090    1.1540   19.0870 C.ar  201  Z89201      0.0402
      9  CAC       -2.9920    1.8170   19.6220 C.ar  201  Z89201      0.0097
     10  CAD       -1.8710    1.0990   20.0470 C.ar  201  Z89201      0.0347
     11 BRAE       -0.3140    1.9250   20.8020 Br    201  Z89201     -0.0490
     12  CAF       -1.9140   -0.2780   19.9040 C.ar  201  Z89201      0.0093
     13  CAG       -3.0250   -0.9210   19.3760 C.ar  201  Z89201      0.0335
     14  CAH       -5.3240    1.5950   18.5780 C.2   201  Z89201      0.0938
     15  CAI       -6.0160    0.4740   18.1640 C.1   201  Z89201      0.2019
     16  NAJ       -5.3120   -0.6460   18.3940 N.2   201  Z89201     -0.3331
     17  OAK       -7.1820    0.4550   17.6350 O.2   201  Z89201     -0.2096
     18  CAL       -5.7460    2.9440   18.5110 C.3   201  Z89201      0.1642
     19  CAM       -4.9350    4.0280   18.9710 C.2   201  Z89201      0.2455
     20  CAW       -6.7000    5.0920   18.2730 C.2   201  Z89201      0.1179
     21  SAX       -7.6560    6.5660   17.9670 S.2   201  Z89201     -0.0275
     22  SAY       -7.2990    3.4720   17.8520 S.3   201  Z89201     -0.0781
     23  OAZ       -3.7360    3.9040   19.4760 O.2   201  Z89201     -0.2732
     24  OD1       -2.7970    8.4080   21.3470 O.co2 201  Z89201     -0.2456
     25  OD2       -2.7190    8.7030   19.1830 O.co2 201  Z89201     -0.2456
     26  OXT       -6.0800    8.2020   20.6580 O.co2 201  Z89201     -0.2438
@<TRIPOS>BOND
     1    17    15    2
     2    22    20    1
     3    22    18    1
     4    21    20    2
     5    15    16    2
     6    15    14    1
     7    20     2    1
     8    16     7    2
     9    18    14    1
    10    18    19    1
    11    14     8    2
    12     2    19   am
    13     2     4    1
    14     7     8   ar
    15     7    13   ar
    16    19    23    2
    17     8     9   ar
    18    25     6   ar
    19     4     5    1
    20     4     1    1
    21    13    12   ar
    22     9    10   ar
    23    12    10   ar
    24     5     6    1
    25    10    11    1
    26     6    24   ar
    27     1    26   ar
    28     1     3   ar
