@<TRIPOS>MOLECULE
3lc0_HIS_A_1.pdb
 11 11 0 0 0
SMALL
GASTEIGER

@<TRIPOS>ATOM
      1  N          1.2930   -4.6140  -16.8940 N.3   501  HIS501     -0.1204
      2  CA         2.5250   -4.1590  -17.6120 C.3   501  HIS501      0.1999
      3  C          3.7730   -4.6520  -16.9260 C.2   501  HIS501      0.3822
      4  O          3.6920   -5.1520  -15.8050 O.co2 501  HIS501     -0.2440
      5  CB         2.5520   -2.6250  -17.6740 C.3   501  HIS501      0.0740
      6  CG         1.2930   -2.0530  -18.2210 C.2   501  HIS501      0.0651
      7  ND1        0.9010   -2.2490  -19.5290 N.2   501  HIS501     -0.2310
      8  CD2        0.3060   -1.3400  -17.6260 C.3   501  HIS501      0.1683
      9  CE1       -0.2720   -1.6660  -19.7190 C.2   501  HIS501      0.1939
     10  NE2       -0.6470   -1.0920  -18.5830 N.2   501  HIS501     -0.2440
     11  OXT        4.8690   -4.5020  -17.4760 O.co2 501  HIS501     -0.2440
@<TRIPOS>BOND
     1     9     7    1
     2     9    10    2
     3     7     6    2
     4    10     8    1
     5     6     5    1
     6     6     8    1
     7     5     2    1
     8     2     3    1
     9     2     1    1
    10    11     3   ar
    11     3     4   ar
