@<TRIPOS>MOLECULE
3lc1_NAD_O_1.pdb
 44 48 0 0 0
SMALL
GASTEIGER

@<TRIPOS>ATOM
      1  PA        21.8820   20.9250   19.2540 P.3     0  NAD0        0.2189
      2  O1A       20.7800   21.8150   19.6610 O.2     0  NAD0       -0.5170
      3  O2A       21.8060   19.5820   19.8800 O.3     0  NAD0       -0.4371
      4  O5B       23.3040   21.5850   19.5650 O.3     0  NAD0       -0.3112
      5  C5B       23.3880   22.9820   19.6000 C.3     0  NAD0        0.1813
      6  C4B       24.1760   23.3650   20.8360 C.3     0  NAD0        0.1821
      7  O4B       24.6330   24.6860   20.6330 O.3     0  NAD0       -0.3135
      8  C3B       23.3570   23.3450   22.1270 C.3     0  NAD0        0.2184
      9  O3B       24.0870   22.5850   23.0730 O.3     0  NAD0       -0.2174
     10  C2B       23.2340   24.8230   22.5100 C.3     0  NAD0        0.2570
     11  O2B       23.2930   25.0790   23.8990 O.3     0  NAD0       -0.2130
     12  C1B       24.4340   25.4510   21.8120 C.3     0  NAD0        0.3186
     13  N9A       24.3200   26.8730   21.4210 N.pl3   0  NAD0       -0.1439
     14  C8A       23.2620   27.5230   20.8070 C.3     0  NAD0        0.3377
     15  N7A       23.6090   28.8210   20.6000 N.2     0  NAD0       -0.2095
     16  C5A       24.8610   28.9950   21.0740 C.2     0  NAD0        0.2526
     17  C6A       25.6880   30.1050   21.1260 C.2     0  NAD0        0.4393
     18  N6A       25.2830   31.2520   20.5910 N.pl3   0  NAD0        0.2180
     19  N1A       26.9440   29.9890   21.6800 N.2     0  NAD0        0.0021
     20  C2A       27.3830   28.7780   22.1790 C.3     0  NAD0        0.5254
     21  N3A       26.5610   27.6720   22.1290 N.2     0  NAD0       -0.0055
     22  C4A       25.3180   27.7830   21.5890 C.2     0  NAD0        0.3518
     23  O3        21.8550   20.8740   17.6590 O.3     0  NAD0       -0.2703
     24  PN        22.5400   19.7250   16.7700 P.3     0  NAD0        0.2189
     25  O1N       21.5050   18.7220   16.4060 O.2     0  NAD0       -0.5170
     26  O2N       23.7880   19.3000   17.4370 O.3     0  NAD0       -0.4371
     27  O5D       22.8860   20.5860   15.4620 O.3     0  NAD0       -0.3112
     28  C5D       23.8830   21.5920   15.4950 C.3     0  NAD0        0.1813
     29  C4D       24.2450   22.0270   14.0730 C.3     0  NAD0        0.1799
     30  O4D       24.7230   20.9130   13.3170 O.3     0  NAD0       -0.3327
     31  C3D       23.0550   22.5870   13.3060 C.3     0  NAD0        0.2158
     32  O3D       23.5860   23.5240   12.4020 O.3     0  NAD0       -0.2175
     33  C2D       22.5620   21.3970   12.5140 C.3     0  NAD0        0.2309
     34  O2D       21.8930   21.7280   11.3310 O.3     0  NAD0       -0.2158
     35  C1D       23.8680   20.6600   12.2190 C.3     0  NAD0        0.2263
     36  N1N       23.6520   19.2200   11.9890 N.pl3   0  NAD0       -0.2787
     37  C2N       22.7960   18.4920   12.7850 C.3     0  NAD0        0.1244
     38  C3N       22.5960   17.1330   12.5300 C.2     0  NAD0        0.0544
     39  C7N       21.7620   16.2680   13.4310 C.2     0  NAD0        0.2818
     40  O7N       21.2540   15.0960   12.8730 O.2     0  NAD0       -0.2670
     41  N7N       21.5270   16.5860   14.7000 N.am    0  NAD0       -0.0839
     42  C4N       23.2460   16.5360   11.4550 C.2     0  NAD0        0.0033
     43  C5N       24.1010   17.2920   10.6640 C.2     0  NAD0        0.0157
     44  C6N       24.2920   18.6400   10.9350 C.2     0  NAD0        0.0633
@<TRIPOS>BOND
     1    43    44    2
     2    43    42    1
     3    44    36    1
     4    34    33    1
     5    42    38    2
     6    36    35    1
     7    36    37    1
     8    35    33    1
     9    35    30    1
    10    32    31    1
    11    33    31    1
    12    38    37    1
    13    38    39    1
    14    40    39    2
    15    31    29    1
    16    30    29    1
    17    39    41   am
    18    29    28    1
    19    27    28    1
    20    27    24    1
    21    25    24    2
    22    24    26    1
    23    24    23    1
    24    23     1    1
    25     1     4    1
    26     1     2    2
    27     1     3    1
    28     4     5    1
    29     5     6    1
    30    18    17    1
    31    15    14    1
    32    15    16    2
    33     7     6    1
    34     7    12    1
    35    14    13    1
    36     6     8    1
    37    16    17    1
    38    16    22    1
    39    17    19    2
    40    13    22    1
    41    13    12    1
    42    22    21    2
    43    19    20    1
    44    12    10    1
    45     8    10    1
    46     8     9    1
    47    21    20    1
    48    10    11    1
