@<TRIPOS>MOLECULE
3lc2_G3H_O_1.pdb
 10 9 0 0 0
SMALL
GASTEIGER

@<TRIPOS>ATOM
      1  O1        18.8970   -1.2260    5.8810 O.3   337  G3H337     -0.2175
      2  C1        18.6600   -2.1070    6.9930 C.3   337  G3H337      0.2174
      3  C2        17.2170   -1.9850    7.5100 C.3   337  G3H337      0.2147
      4  O2        16.8870   -3.1260    8.2900 O.3   337  G3H337     -0.2176
      5  C3        16.1970   -2.0800    6.4070 C.3   337  G3H337      0.1892
      6  O1P       16.2210   -3.4090    5.8900 O.3   337  G3H337     -0.2674
      7  O2P       17.7530   -3.0770    3.9440 O.3   337  G3H337     -0.1145
      8  O3P       16.2350   -5.1130    4.1790 O.3   337  G3H337     -0.1145
      9  O4P       15.2830   -2.8090    3.6640 O.2   337  G3H337     -0.2224
     10  P         16.3860   -3.6170    4.3010 P.3   337  G3H337      0.5327
@<TRIPOS>BOND
     1     9    10    2
     2     7    10    1
     3     8    10    1
     4    10     6    1
     5     1     2    1
     6     6     5    1
     7     5     3    1
     8     2     3    1
     9     3     4    1
