@<TRIPOS>MOLECULE
3lc3_IYX_A_1.pdb
 22 24 0 0 0
SMALL
GASTEIGER

@<TRIPOS>ATOM
      1  C1        24.2260  -14.8210   18.5720 C.ar    1  IYX1        0.0067
      2  C2        23.5690  -13.6300   18.7900 C.ar    1  IYX1        0.0297
      3  C3        23.5320  -16.0040   18.3500 C.ar    1  IYX1        0.0005
      4  C4        22.1760  -13.6090   18.8060 C.ar    1  IYX1        0.0065
      5  C5        22.1420  -16.0090   18.3420 C.ar    1  IYX1        0.0001
      6  C6        21.4590  -14.8000   18.5790 C.ar    1  IYX1        0.0005
      7  C7        25.6010  -14.6820   18.5940 C.ar    1  IYX1        0.0150
      8  C8        25.9910  -13.3700   18.8360 C.ar    1  IYX1        0.1270
      9  S9        24.6580  -12.4430   18.9970 S.2     1  IYX1       -0.0790
     10  C10       21.4320  -17.2990   18.1180 C.ar    1  IYX1        0.0032
     11  C11       21.9120  -18.4070   18.8080 C.ar    1  IYX1        0.0033
     12  C12       20.3460  -17.4530   17.2580 C.ar    1  IYX1        0.0400
     13  C13       21.3220  -19.6560   18.6590 C.ar    1  IYX1        0.0400
     14  C14       19.7330  -18.7140   17.1150 C.ar    1  IYX1        0.1724
     15  C15       20.2450  -19.8070   17.8150 C.ar    1  IYX1        0.1724
     16  O16       18.6670  -18.9010   16.2670 O.3     1  IYX1       -0.4684
     17  C17       17.6870  -17.8980   15.9600 C.3     1  IYX1        0.2526
     18  O18       19.7200  -21.0650   17.7390 O.3     1  IYX1       -0.4684
     19  C19       18.8850  -21.5650   16.6900 C.3     1  IYX1        0.2526
     20  C20       27.3940  -12.8940   18.8890 C.2     1  IYX1        0.4825
     21  N21       27.6570  -11.6450   19.0610 N.pl3   1  IYX1        0.2053
     22  N22       28.4720  -13.7380   18.7040 N.pl3   1  IYX1        0.2053
@<TRIPOS>BOND
     1    17    16    1
     2    16    14    1
     3    19    18    1
     4    14    12   ar
     5    14    15   ar
     6    12    10   ar
     7    18    15    1
     8    15    13   ar
     9    10     5    1
    10    10    11   ar
    11     5     3   ar
    12     5     6   ar
    13     3     1   ar
    14     1     7   ar
    15     1     2   ar
    16     6     4   ar
    17     7     8   ar
    18    13    11   ar
    19    22    20    2
    20     2     4   ar
    21     2     9   ar
    22     8    20    1
    23     8     9   ar
    24    20    21    1
