@<TRIPOS>MOLECULE
3lc4_HEM_A_1.pdb
 43 50 0 0 0
SMALL
GASTEIGER

@<TRIPOS>ATOM
      1  CHA        6.1020   -6.2490    5.7450 C.2   500  HEM500      0.0000
      2  CHB        3.3650   -2.3410    6.4940 C.2   500  HEM500      0.0000
      3  CHC       -0.2400   -5.2780    7.6640 C.2   500  HEM500      0.0000
      4  CHD        2.3880   -9.2000    7.0420 C.2   500  HEM500      0.0000
      5  C1A        5.7050   -4.9460    5.8510 C.ar  500  HEM500      0.0000
      6  C2A        6.5200   -3.7720    5.5930 C.ar  500  HEM500      0.0000
      7  C3A        5.7490   -2.6900    5.8050 C.ar  500  HEM500      0.0000
      8  C4A        4.4330   -3.1500    6.1870 C.ar  500  HEM500      0.0000
      9  CMA        6.1590   -1.2000    5.6780 C.3   500  HEM500      0.0000
     10  CAA        8.0150   -3.7680    5.1900 C.3   500  HEM500      0.0000
     11  CBA        8.2250   -3.6500    3.6880 C.3   500  HEM500      0.0000
     12  CGA        9.7040   -3.6190    3.3230 C.2   500  HEM500      0.0000
     13  O1A       10.0450   -2.9470    2.3140 O.co2 500  HEM500      0.0000
     14  O2A       10.5590   -4.2630    4.0020 O.co2 500  HEM500      0.0000
     15  C1B        2.1320   -2.8060    6.8870 C.2   500  HEM500      0.0000
     16  C2B        0.9480   -2.0080    7.1770 C.2   500  HEM500      0.0000
     17  C3B       -0.0360   -2.8580    7.5090 C.2   500  HEM500      0.0000
     18  C4B        0.5100   -4.1810    7.4230 C.2   500  HEM500      0.0000
     19  CMB        0.9240   -0.4700    7.0940 C.3   500  HEM500      0.0000
     20  CAB       -1.5140   -2.6700    7.9080 C.2   500  HEM500      0.0000
     21  CBB       -1.9250   -1.6320    8.6230 C.2   500  HEM500      0.0000
     22  C1C        0.1320   -6.5690    7.5350 C.ar  500  HEM500      0.0000
     23  C2C       -0.7700   -7.6790    7.6720 C.ar  500  HEM500      0.0000
     24  C3C       -0.0380   -8.7690    7.5310 C.ar  500  HEM500      0.0000
     25  C4C        1.3280   -8.3820    7.2800 C.ar  500  HEM500      0.0000
     26  CMC       -2.2880   -7.5730    7.9420 C.3   500  HEM500      0.0000
     27  CAC       -0.5900  -10.1870    7.5730 C.3   500  HEM500      0.0000
     28  CBC       -1.8910  -10.2780    7.3020 C.3   500  HEM500      0.0000
     29  C1D        3.6270   -8.7520    6.6490 C.2   500  HEM500      0.0000
     30  C2D        4.7480   -9.6240    6.4600 C.2   500  HEM500      0.0000
     31  C3D        5.9110   -8.7310    6.0550 C.2   500  HEM500      0.0000
     32  C4D        5.3760   -7.3820    6.0520 C.2   500  HEM500      0.0000
     33  CMD        4.7420  -11.1550    6.6410 C.3   500  HEM500      0.0000
     34  CAD        7.3460   -9.1980    5.7260 C.3   500  HEM500      0.0000
     35  CBD        7.7690   -8.6750    4.3530 C.3   500  HEM500      0.0000
     36  CGD        8.8160   -9.5930    3.7940 C.2   500  HEM500      0.0000
     37  O1D        8.4060  -10.5910    3.1620 O.co2 500  HEM500      0.0000
     38  O2D       10.0340   -9.3360    3.9830 O.co2 500  HEM500      0.0000
     39  NA         4.4380   -4.5310    6.1860 N.ar  500  HEM500      0.0000
     40  NB         1.8230   -4.1390    7.0450 N.2   500  HEM500      0.0000
     41  NC         1.3980   -7.0150    7.2950 N.ar  500  HEM500      0.0000
     42  ND         4.0320   -7.4410    6.3960 N.2   500  HEM500      0.0000
     43 FE          2.9330   -5.7720    6.7250 Fe    500  HEM500      0.0000
@<TRIPOS>BOND
     1    13    12   ar
     2    37    36   ar
     3    12    11    1
     4    12    14   ar
     5    11    10    1
     6    36    38   ar
     7    36    35    1
     8    35    34    1
     9    10     6    1
    10     6     7   ar
    11     6     5   ar
    12     9     7    1
    13    34    31    1
    14     1     5    2
    15     1    32    1
    16     7     8   ar
    17     5    39   ar
    18    32    31    1
    19    32    42    2
    20    31    30    2
    21    39     8   ar
    22    39    43    1
    23     8     2    2
    24    42    29    1
    25    42    43    1
    26    30    33    1
    27    30    29    1
    28     2    15    1
    29    29     4    2
    30    43    40    1
    31    43    41    1
    32    15    40    2
    33    15    16    1
    34     4    25    1
    35    40    18    1
    36    19    16    1
    37    16    17    2
    38    25    41   ar
    39    25    24   ar
    40    41    22   ar
    41    28    27    1
    42    18    17    1
    43    18     3    2
    44    17    20    1
    45    24    27    1
    46    24    23   ar
    47    22     3    1
    48    22    23   ar
    49    23    26    1
    50    20    21    2
