@<TRIPOS>MOLECULE
3lc4_LC4_A_1.pdb
 19 19 0 0 0
SMALL
GASTEIGER

@<TRIPOS>ATOM
      1  O1         6.8120  -13.5830   19.7110 O.co2 501  LC4501     -0.2457
      2  C2         6.6680  -12.9540   18.6430 C.2   501  LC4501      0.3649
      3  O17        7.3400  -13.3160   17.6490 O.co2 501  LC4501     -0.2457
      4  C3         5.6580  -11.7930   18.5240 C.3   501  LC4501      0.1141
      5  C4         5.8340  -10.5730   19.4390 C.3   501  LC4501      0.0118
      6  C5         6.0960   -9.2990   18.6350 C.3   501  LC4501      0.0006
      7  C6         4.9140   -8.3290   18.5450 C.3   501  LC4501      0.0000
      8  C7         5.3680   -6.9700   17.9960 C.3   501  LC4501      0.0000
      9  C18        4.3600   -6.2410   17.1030 C.3   501  LC4501      0.0000
     10  C19        5.0090   -5.1130   16.2830 C.3   501  LC4501      0.0000
     11  C8         4.0530   -4.3830   15.3230 C.3   501  LC4501      0.0001
     12  C9         4.3480   -4.6950   13.8520 C.3   501  LC4501      0.0020
     13  C10        4.2850   -3.5040   12.8880 C.3   501  LC4501      0.0245
     14  C11        5.3360   -3.5650   11.7590 C.3   501  LC4501      0.1076
     15  N12        4.9750   -4.4730   10.6510 N.ar  501  LC4501     -0.3078
     16  C13        5.1190   -5.8110   10.6460 C.ar  501  LC4501      0.0980
     17  C14        4.6570   -6.2960    9.4500 C.ar  501  LC4501      0.1193
     18  N15        4.2430   -5.2310    8.7450 N.ar  501  LC4501     -0.2223
     19  C16        4.4440   -4.1130    9.4780 C.ar  501  LC4501      0.1786
@<TRIPOS>BOND
     1    18    17   ar
     2    18    19   ar
     3    17    16   ar
     4    19    15   ar
     5    16    15   ar
     6    15    14    1
     7    14    13    1
     8    13    12    1
     9    12    11    1
    10    11    10    1
    11    10     9    1
    12     9     8    1
    13     3     2   ar
    14     8     7    1
    15     4     2    1
    16     4     5    1
    17     7     6    1
    18     6     5    1
    19     2     1   ar
