@<TRIPOS>MOLECULE
3lc5_IZX_A_1.pdb
 31 35 0 0 0
SMALL
GASTEIGER

@<TRIPOS>ATOM
      1  C1       -13.4080   -6.4310    6.8510 C.ar    1  IZX1        0.0408
      2  C2       -13.0670   -5.6320    7.9280 C.ar    1  IZX1        0.0326
      3  C3       -13.7070   -5.8640    5.6190 C.ar    1  IZX1        0.1400
      4  C4       -13.0130   -4.2580    7.8260 C.ar    1  IZX1        0.0067
      5  C5       -13.6570   -4.4660    5.5050 C.ar    1  IZX1        0.0370
      6  C6       -13.3110   -3.6690    6.5950 C.ar    1  IZX1        0.0036
      7  C7       -13.3990   -7.7840    7.1740 C.ar    1  IZX1        0.0181
      8  C8       -13.0490   -7.9790    8.5020 C.ar    1  IZX1        0.1271
      9  S9       -12.7810   -6.5520    9.2000 S.2     1  IZX1       -0.0789
     10  C10      -12.9410   -9.2690    9.1940 C.2     1  IZX1        0.4825
     11  N11      -13.3050  -10.3860    8.6300 N.pl3   1  IZX1        0.2053
     12  N12      -12.4410   -9.2840   10.4770 N.pl3   1  IZX1        0.2053
     13  O13      -14.0320   -6.7140    4.5960 O.3     1  IZX1       -0.4640
     14  C14      -14.2620   -6.4510    3.2120 C.3     1  IZX1        0.2792
     15  C15      -15.7440   -6.5890    2.9150 C.ar    1  IZX1        0.0276
     16  C16      -16.4190   -5.6240    2.1770 C.ar    1  IZX1       -0.0003
     17  C17      -16.4350   -7.6690    3.4440 C.ar    1  IZX1       -0.0003
     18  C18      -17.7760   -5.7590    1.9460 C.ar    1  IZX1       -0.0002
     19  C19      -17.7920   -7.8070    3.2120 C.ar    1  IZX1       -0.0002
     20  C20      -18.4580   -6.8520    2.4680 C.ar    1  IZX1       -0.0000
     21  C21      -13.3470   -7.3860    2.4450 C.2     1  IZX1        0.3378
     22  O22      -13.5990   -8.4610    1.9120 O.2     1  IZX1       -0.3114
     23  N23      -12.5710   -8.9280    1.3960 N.2     1  IZX1       -0.0071
     24  N24      -12.0570   -7.0700    2.3240 N.2     1  IZX1       -0.3088
     25  C25      -11.5570   -8.0770    1.6340 C.1     1  IZX1        0.1269
     26  C26      -10.1350   -8.1710    1.2340 C.ar    1  IZX1        0.0770
     27  C27       -9.1820   -7.3190    1.8040 C.ar    1  IZX1        0.0111
     28  C28       -9.7420   -9.0980    0.2800 C.ar    1  IZX1        0.0111
     29  C29       -7.8450   -7.3950    1.4250 C.ar    1  IZX1        0.0007
     30  C30       -8.4050   -9.1720   -0.0940 C.ar    1  IZX1        0.0007
     31  C31       -7.4590   -8.3250    0.4720 C.ar    1  IZX1        0.0000
@<TRIPOS>BOND
     1    30    28   ar
     2    30    31   ar
     3    28    26   ar
     4    31    29   ar
     5    26    25    1
     6    26    27   ar
     7    23    25    2
     8    23    22    1
     9    29    27   ar
    10    25    24    2
    11    22    21    1
    12    18    16   ar
    13    18    20   ar
    14    16    15   ar
    15    24    21    2
    16    21    14    1
    17    20    19   ar
    18    15    14    1
    19    15    17   ar
    20    14    13    1
    21    19    17   ar
    22    13     3    1
    23     5     3   ar
    24     5     6   ar
    25     3     1   ar
    26     6     4   ar
    27     1     7   ar
    28     1     2   ar
    29     7     8   ar
    30     4     2   ar
    31     2     9   ar
    32     8    10    1
    33     8     9   ar
    34    11    10    2
    35    10    12    1
