@<TRIPOS>MOLECULE
3lc6_AMP_B_1.pdb
 23 25 0 0 0
SMALL
GASTEIGER

@<TRIPOS>ATOM
      1  P         -4.4950  -11.2470    4.3080 P.3   1604  AMP1604     0.5327
      2  O1P       -4.2930  -11.2010    5.8160 O.3   1604  AMP1604    -0.1145
      3  O2P       -3.9770  -12.4990    3.6210 O.2   1604  AMP1604    -0.2224
      4  O3P       -4.1260   -9.9490    3.6350 O.3   1604  AMP1604    -0.1145
      5  O5'       -6.0890  -11.3500    4.0790 O.3   1604  AMP1604    -0.2675
      6  C5'       -6.8440  -10.2220    3.6560 C.3   1604  AMP1604     0.1860
      7  C4'       -8.0640  -10.7240    2.8930 C.3   1604  AMP1604     0.1823
      8  O4'       -7.8530  -10.6930    1.4700 O.3   1604  AMP1604    -0.3135
      9  C3'       -8.4210  -12.1600    3.2810 C.3   1604  AMP1604     0.2184
     10  O3'       -9.4530  -12.2240    4.2760 O.3   1604  AMP1604    -0.2174
     11  C2'       -8.9060  -12.7670    1.9910 C.3   1604  AMP1604     0.2570
     12  O2'      -10.3100  -12.5040    1.9080 O.3   1604  AMP1604    -0.2130
     13  C1'       -8.1810  -11.9730    0.9160 C.3   1604  AMP1604     0.3186
     14  N9        -6.9760  -12.7450    0.4850 N.pl3 1604  AMP1604    -0.1439
     15  C8        -5.7040  -12.6030    0.9190 C.3   1604  AMP1604     0.3377
     16  N7        -4.8780  -13.4810    0.2830 N.2   1604  AMP1604    -0.2095
     17  C5        -5.6280  -14.2170   -0.5770 C.2   1604  AMP1604     0.2526
     18  C6        -5.4240  -15.3260   -1.5600 C.2   1604  AMP1604     0.4393
     19  N6        -4.2030  -15.8700   -1.7870 N.pl3 1604  AMP1604     0.2180
     20  N1        -6.4930  -15.7950   -2.2430 N.2   1604  AMP1604     0.0021
     21  C2        -7.7210  -15.2930   -2.0610 C.3   1604  AMP1604     0.5254
     22  N3        -7.9780  -14.2970   -1.1920 N.2   1604  AMP1604    -0.0055
     23  C4        -7.0050  -13.7240   -0.4330 C.2   1604  AMP1604     0.3518
@<TRIPOS>BOND
     1    20    21    1
     2    20    18    2
     3    21    22    1
     4    19    18    1
     5    18    17    1
     6    22    23    2
     7    17    23    1
     8    17    16    2
     9    23    14    1
    10    16    15    1
    11    14    13    1
    12    14    15    1
    13    13     8    1
    14    13    11    1
    15     8     7    1
    16    12    11    1
    17    11     9    1
    18     7     9    1
    19     7     6    1
    20     9    10    1
    21     3     1    2
    22     4     1    1
    23     6     5    1
    24     5     1    1
    25     1     2    1
