@<TRIPOS>MOLECULE
3lc6_ADP_A_1.pdb
 27 29 0 0 0
SMALL
GASTEIGER

@<TRIPOS>ATOM
      1  PB       -29.3860  -20.0090   56.1410 P.3   1762  ADP1762     0.5373
      2  O1B      -30.6000  -20.1800   55.2390 O.2   1762  ADP1762    -0.2221
      3  O2B      -29.7260  -19.2500   57.4020 O.3   1762  ADP1762    -0.1143
      4  O3B      -28.5590  -21.2650   56.3680 O.3   1762  ADP1762    -0.1143
      5  PA       -28.8830  -17.4510   55.1980 P.3   1762  ADP1762     0.2231
      6  O1A      -30.3860  -17.4100   55.3090 O.3   1762  ADP1762    -0.4370
      7  O2A      -28.1730  -16.7350   54.0600 O.2   1762  ADP1762    -0.5169
      8  O3A      -28.4250  -18.9930   55.3370 O.3   1762  ADP1762    -0.2261
      9  O5'      -28.4260  -16.8110   56.5900 O.3   1762  ADP1762    -0.3111
     10  C5'      -27.2510  -17.2140   57.2740 C.3   1762  ADP1762     0.1813
     11  C4'      -27.2300  -16.3440   58.5080 C.3   1762  ADP1762     0.1821
     12  O4'      -26.0320  -15.5670   58.4800 O.3   1762  ADP1762    -0.3135
     13  C3'      -28.3900  -15.3620   58.4650 C.3   1762  ADP1762     0.2184
     14  O3'      -29.4420  -15.7510   59.3500 O.3   1762  ADP1762    -0.2174
     15  C2'      -27.8030  -14.0330   58.8710 C.3   1762  ADP1762     0.2570
     16  O2'      -28.1630  -13.7180   60.2080 O.3   1762  ADP1762    -0.2130
     17  C1'      -26.3020  -14.1820   58.6730 C.3   1762  ADP1762     0.3186
     18  N9       -26.1190  -13.5000   57.3850 N.pl3 1762  ADP1762    -0.1439
     19  C8       -25.8830  -14.0730   56.1820 C.3   1762  ADP1762     0.3377
     20  N7       -25.8250  -13.1090   55.2190 N.2   1762  ADP1762    -0.2095
     21  C5       -26.0550  -11.9100   55.8120 C.2   1762  ADP1762     0.2526
     22  C6       -26.1360  -10.4760   55.4320 C.2   1762  ADP1762     0.4393
     23  N6       -25.9710  -10.0910   54.1550 N.pl3 1762  ADP1762     0.2180
     24  N1       -26.3640   -9.5320   56.3630 N.2   1762  ADP1762     0.0021
     25  C2       -26.5350   -9.8620   57.6390 C.3   1762  ADP1762     0.5254
     26  N3       -26.4720  -11.1330   58.0640 N.2   1762  ADP1762    -0.0055
     27  C4       -26.2440  -12.1780   57.2330 C.2   1762  ADP1762     0.3518
@<TRIPOS>BOND
     1     7     5    2
     2    23    22    1
     3     5     6    1
     4     5     8    1
     5     5     9    1
     6    20    21    2
     7    20    19    1
     8     2     1    2
     9     8     1    1
    10    22    21    1
    11    22    24    2
    12    21    27    1
    13     1     4    1
    14     1     3    1
    15    19    18    1
    16    24    25    1
    17     9    10    1
    18    27    18    1
    19    27    26    2
    20    10    11    1
    21    18    17    1
    22    25    26    1
    23    13    11    1
    24    13    15    1
    25    13    14    1
    26    12    11    1
    27    12    17    1
    28    17    15    1
    29    15    16    1
