@<TRIPOS>MOLECULE
3lca_III_Q_1.pdb
 33 32 0 0 0
SMALL
GASTEIGER

@<TRIPOS>ATOM
      1  N         29.3580   60.0250   68.9770 N.3   639  GLU639     -0.1231
      2  CA        28.1520   59.2570   69.4070 C.3   639  GLU639      0.1699
      3  C         28.4860   58.0310   70.2570 C.2   639  GLU639      0.2592
      4  O         27.7270   57.6760   71.1610 O.2   639  GLU639     -0.2718
      5  CB        27.3220   58.8240   68.1940 C.3   639  GLU639      0.0402
      6  CG        26.4080   59.9040   67.6420 C.3   639  GLU639      0.1161
      7  CD        25.2190   59.3420   66.8760 C.2   639  GLU639      0.3649
      8  OE1       25.0580   58.1030   66.8240 O.co2 639  GLU639     -0.2457
      9  OE2       24.4390   60.1470   66.3260 O.co2 639  GLU639     -0.2457
     10  N         29.6130   57.3860   69.9630 N.am  640  GLU640     -0.1966
     11  CA        29.9540   56.1120   70.5990 C.3   640  GLU640      0.1733
     12  C         31.2280   56.1530   71.4370 C.2   640  GLU640      0.2616
     13  O         32.2220   56.7710   71.0620 O.2   640  GLU640     -0.2715
     14  CB        30.0410   54.9900   69.5620 C.3   640  GLU640      0.0429
     15  CG        28.6900   54.4290   69.1390 C.3   640  GLU640      0.1163
     16  CD        28.8020   53.1390   68.3400 C.2   640  GLU640      0.3649
     17  OE1       29.9430   52.6820   68.0810 O.co2 640  GLU640     -0.2457
     18  OE2       27.7410   52.5810   67.9700 O.co2 640  GLU640     -0.2457
     19  N         31.1820   55.4640   72.5720 N.am  641  VAL641     -0.1963
     20  CA        32.2770   55.4630   73.5310 C.3   641  VAL641      0.1727
     21  C         32.9560   54.0810   73.6020 C.2   641  VAL641      0.2616
     22  O         32.2920   53.0490   73.4750 O.2   641  VAL641     -0.2715
     23  CB        31.7670   55.9610   74.9150 C.3   641  VAL641      0.0290
     24  CG1       31.0680   54.8510   75.7050 C.3   641  VAL641      0.0023
     25  CG2       32.8810   56.5700   75.7030 C.3   641  VAL641      0.0023
     26  N         34.2760   54.0700   73.7850 N.am  642  ASP642     -0.1971
     27  CA        35.0400   52.8190   73.8490 C.3   642  ASP642      0.1709
     28  C         35.2300   52.3110   75.2810 C.2   642  ASP642      0.2293
     29  O         35.5710   53.0740   76.1840 O.2   642  ASP642     -0.2864
     30  CB        36.4020   52.9720   73.1610 C.3   642  ASP642      0.1436
     31  CG        36.2910   53.1430   71.6530 C.2   642  ASP642      0.3671
     32  OD1       35.2030   52.8930   71.0860 O.co2 642  ASP642     -0.2456
     33  OD2       37.3070   53.5270   71.0320 O.co2 642  ASP642     -0.2456
@<TRIPOS>BOND
     1     9     7   ar
     2     8     7   ar
     3     7     6    1
     4     6     5    1
     5    18    16   ar
     6    17    16   ar
     7     5     2    1
     8    16    15    1
     9     1     2    1
    10    15    14    1
    11     2     3    1
    12    14    11    1
    13    10     3   am
    14    10    11    1
    15     3     4    2
    16    11    12    1
    17    33    31   ar
    18    13    12    2
    19    32    31   ar
    20    12    19   am
    21    31    30    1
    22    19    20    1
    23    30    27    1
    24    22    21    2
    25    20    21    1
    26    20    23    1
    27    21    26   am
    28    26    27    1
    29    27    28    1
    30    23    25    1
    31    23    24    1
    32    28    29    2
