@<TRIPOS>MOLECULE
3lcb_AMP_A_1.pdb
 23 25 0 0 0
SMALL
GASTEIGER

@<TRIPOS>ATOM
      1  P        -36.7280   35.0810  -49.2110 P.3   1604  AMP1604     0.5327
      2  O1P      -37.4620   34.3850  -48.0880 O.3   1604  AMP1604    -0.1145
      3  O2P      -35.3300   34.5530  -49.4230 O.2   1604  AMP1604    -0.2224
      4  O3P      -36.8330   36.5900  -49.1820 O.3   1604  AMP1604    -0.1145
      5  O5'      -37.5210   34.6610  -50.5480 O.3   1604  AMP1604    -0.2675
      6  C5'      -38.9200   34.9060  -50.7080 C.3   1604  AMP1604     0.1860
      7  C4'      -39.3400   34.5360  -52.1270 C.3   1604  AMP1604     0.1823
      8  O4'      -38.5640   35.2780  -53.0750 O.3   1604  AMP1604    -0.3135
      9  C3'      -39.1040   33.0590  -52.4220 C.3   1604  AMP1604     0.2184
     10  O3'      -40.2560   32.4860  -53.0510 O.3   1604  AMP1604    -0.2174
     11  C2'      -37.9200   33.0200  -53.3670 C.3   1604  AMP1604     0.2570
     12  O2'      -38.0880   32.0100  -54.3590 O.3   1604  AMP1604    -0.2130
     13  C1'      -37.9120   34.4000  -53.9950 C.3   1604  AMP1604     0.3186
     14  N9       -36.5290   34.8620  -54.2380 N.pl3 1604  AMP1604    -0.1439
     15  C8       -35.6190   35.2200  -53.3110 C.3   1604  AMP1604     0.3377
     16  N7       -34.4510   35.6020  -53.8870 N.2   1604  AMP1604    -0.2095
     17  C5       -34.6160   35.4960  -55.2190 C.2   1604  AMP1604     0.2526
     18  C6       -33.7860   35.7340  -56.4220 C.2   1604  AMP1604     0.4393
     19  N6       -32.5120   36.1740  -56.3040 N.pl3 1604  AMP1604     0.2180
     20  N1       -34.3410   35.4900  -57.6340 N.2   1604  AMP1604     0.0021
     21  C2       -35.6070   35.0420  -57.7610 C.3   1604  AMP1604     0.5254
     22  N3       -36.4200   34.8040  -56.7180 N.2   1604  AMP1604    -0.0055
     23  C4       -35.9860   35.0060  -55.4450 C.2   1604  AMP1604     0.3518
@<TRIPOS>BOND
     1    21    20    1
     2    21    22    1
     3    20    18    2
     4    22    23    2
     5    18    19    1
     6    18    17    1
     7    23    17    1
     8    23    14    1
     9    17    16    2
    10    12    11    1
    11    14    13    1
    12    14    15    1
    13    13    11    1
    14    13     8    1
    15    16    15    1
    16    11     9    1
    17     8     7    1
    18    10     9    1
    19     9     7    1
    20     7     6    1
    21     6     5    1
    22     5     1    1
    23     3     1    2
    24     1     4    1
    25     1     2    1
