@<TRIPOS>MOLECULE
3lcb_ATP_A_1.pdb
 31 33 0 0 0
SMALL
GASTEIGER

@<TRIPOS>ATOM
      1  PG       -29.7310   62.0170  -53.4510 P.3   1760  ATP1760     0.5373
      2  O1G      -30.9950   62.7520  -53.8440 O.3   1760  ATP1760    -0.1143
      3  O2G      -29.2020   62.4760  -52.1110 O.3   1760  ATP1760    -0.1143
      4  O3G      -28.6570   62.0180  -54.5200 O.2   1760  ATP1760    -0.2221
      5  PB       -30.1370   59.1890  -54.2550 P.3   1760  ATP1760     0.2277
      6  O1B      -30.2230   59.8100  -55.6290 O.2   1760  ATP1760    -0.5168
      7  O2B      -28.9590   58.3250  -53.8840 O.3   1760  ATP1760    -0.4368
      8  O3B      -30.2100   60.4470  -53.2030 O.3   1760  ATP1760    -0.2258
      9  PA       -32.7490   58.1180  -54.8950 P.3   1760  ATP1760     0.2189
     10  O1A      -33.1130   59.5490  -55.1940 O.2   1760  ATP1760    -0.5170
     11  O2A      -33.6920   57.2420  -54.0990 O.3   1760  ATP1760    -0.4371
     12  O3A      -31.3710   58.1640  -54.0450 O.3   1760  ATP1760    -0.2700
     13  O5'      -32.5470   57.4060  -56.3390 O.3   1760  ATP1760    -0.3112
     14  C5'      -31.9180   58.0990  -57.4190 C.3   1760  ATP1760     0.1813
     15  C4'      -32.8380   58.4130  -58.5910 C.3   1760  ATP1760     0.1821
     16  O4'      -33.5180   57.2580  -59.0790 O.3   1760  ATP1760    -0.3135
     17  C3'      -33.9300   59.4270  -58.3000 C.3   1760  ATP1760     0.2184
     18  O3'      -33.4300   60.7660  -58.3580 O.3   1760  ATP1760    -0.2174
     19  C2'      -34.9280   59.1220  -59.3960 C.3   1760  ATP1760     0.2570
     20  O2'      -34.5150   59.7320  -60.6270 O.3   1760  ATP1760    -0.2130
     21  C1'      -34.8250   57.6150  -59.5480 C.3   1760  ATP1760     0.3186
     22  N9       -35.8490   56.9390  -58.7050 N.pl3 1760  ATP1760    -0.1439
     23  C8       -35.6200   56.4080  -57.4890 C.3   1760  ATP1760     0.3377
     24  N7       -36.7430   55.8670  -56.9680 N.2   1760  ATP1760    -0.2095
     25  C5       -37.7290   56.0420  -57.8640 C.2   1760  ATP1760     0.2526
     26  C6       -39.1720   55.7030  -57.9390 C.2   1760  ATP1760     0.4393
     27  N6       -39.7770   55.0490  -56.9180 N.pl3 1760  ATP1760     0.2180
     28  N1       -39.8550   56.0650  -59.0510 N.2   1760  ATP1760     0.0021
     29  C2       -39.2490   56.7120  -60.0650 C.3   1760  ATP1760     0.5254
     30  N3       -37.9410   57.0490  -60.0640 N.2   1760  ATP1760    -0.0055
     31  C4       -37.1380   56.7490  -59.0100 C.2   1760  ATP1760     0.3518
@<TRIPOS>BOND
     1    20    19    1
     2    29    30    1
     3    29    28    1
     4    30    31    2
     5    21    19    1
     6    21    16    1
     7    21    22    1
     8    19    17    1
     9    16    15    1
    10    28    26    2
    11    31    22    1
    12    31    25    1
    13    22    23    1
    14    15    17    1
    15    15    14    1
    16    18    17    1
    17    26    25    1
    18    26    27    1
    19    25    24    2
    20    23    24    1
    21    14    13    1
    22    13     9    1
    23     6     5    2
    24    10     9    2
    25     9    11    1
    26     9    12    1
    27     4     1    2
    28     5    12    1
    29     5     7    1
    30     5     8    1
    31     2     1    1
    32     1     8    1
    33     1     3    1
