@<TRIPOS>MOLECULE
3lcc_SAH_A_1.pdb
 26 28 0 0 0
SMALL
GASTEIGER

@<TRIPOS>ATOM
      1  N         -5.9160   23.7520    9.7850 N.3   300  SAH300     -0.1208
      2  CA        -6.4640   24.7180    8.7940 C.3   300  SAH300      0.1952
      3  CB        -5.6190   26.0040    8.7470 C.3   300  SAH300      0.0422
      4  CG        -4.1230   25.7350    8.6580 C.3   300  SAH300      0.0597
      5  SD        -3.1480   27.2290    8.6530 S.3   300  SAH300     -0.1375
      6  C         -6.5130   24.0380    7.4550 C.2   300  SAH300      0.3819
      7  O         -6.1320   22.8570    7.3100 O.co2 300  SAH300     -0.2441
      8  OXT       -6.9640   24.6480    6.4830 O.co2 300  SAH300     -0.2441
      9  C5'       -2.7770   27.4600   10.3740 C.3   300  SAH300      0.0899
     10  C4'       -3.8170   28.2240   11.1970 C.3   300  SAH300      0.1630
     11  O4'       -3.3820   28.2110   12.5740 O.3   300  SAH300     -0.3153
     12  C3'       -4.0050   29.6930   10.8110 C.3   300  SAH300      0.2168
     13  O3'       -5.3820   29.9190   10.4550 O.3   300  SAH300     -0.2175
     14  C2'       -3.5430   30.4740   12.0360 C.3   300  SAH300      0.2569
     15  O2'       -4.2710   31.6680   12.3280 O.3   300  SAH300     -0.2130
     16  C1'       -3.7750   29.4670   13.1470 C.3   300  SAH300      0.3185
     17  N9        -2.9750   29.6130   14.3640 N.pl3 300  SAH300     -0.1439
     18  C8        -1.6420   29.8520   14.4530 C.3   300  SAH300      0.3377
     19  N7        -1.2540   29.8430   15.7570 N.2   300  SAH300     -0.2095
     20  C5        -2.3590   29.5670   16.4940 C.2   300  SAH300      0.2526
     21  C6        -2.6890   29.3870   17.9260 C.2   300  SAH300      0.4393
     22  N6        -1.7350   29.5240   18.8700 N.pl3 300  SAH300      0.2180
     23  N1        -3.9580   29.1040   18.2650 N.2   300  SAH300      0.0021
     24  C2        -4.9310   28.9640   17.3590 C.3   300  SAH300      0.5254
     25  N3        -4.7080   29.1140   16.0400 N.2   300  SAH300     -0.0055
     26  C4        -3.4740   29.3990   15.5640 C.2   300  SAH300      0.3518
@<TRIPOS>BOND
     1     8     6   ar
     2     7     6   ar
     3     6     2    1
     4     5     4    1
     5     5     9    1
     6     4     3    1
     7     3     2    1
     8     2     1    1
     9     9    10    1
    10    13    12    1
    11    12    10    1
    12    12    14    1
    13    10    11    1
    14    14    15    1
    15    14    16    1
    16    11    16    1
    17    16    17    1
    18    17    18    1
    19    17    26    1
    20    18    19    1
    21    26    25    2
    22    26    20    1
    23    19    20    2
    24    25    24    1
    25    20    21    1
    26    24    23    1
    27    21    23    2
    28    21    22    1
