@<TRIPOS>MOLECULE
3lcd_BDY_A_1.pdb
 36 40 0 0 0
SMALL
GASTEIGER

@<TRIPOS>ATOM
      1  N1       -19.9480    4.8310  -17.4700 N.pl3 923  BDY923      0.2204
      2  N3       -20.1390    2.7060  -18.4450 N.2   923  BDY923     -0.0467
      3  C4       -20.9560    1.7200  -18.8190 C.3   923  BDY923      0.3217
      4  C5       -22.3160    1.7730  -18.6510 C.2   923  BDY923      0.1644
      5  C7       -22.1230    3.8530  -17.7240 C.2   923  BDY923      0.2909
      6  C10      -24.6870    4.4610  -15.8140 C.ar  923  BDY923      0.0206
      7  C13      -26.3390    2.9640  -14.8590 C.ar  923  BDY923      0.0112
      8  C15      -24.7760    4.0420  -13.4470 C.ar  923  BDY923      0.0112
      9  C20      -25.1860   -0.5970  -18.7170 C.ar  923  BDY923      0.0046
     10  C21      -24.8410   -1.4230  -19.7630 C.ar  923  BDY923      0.0539
     11  C22      -23.6700   -1.1990  -20.4550 C.ar  923  BDY923      0.0046
     12  C24      -25.7730   -2.5160  -20.1080 C.2   923  BDY923      0.2527
     13  C28      -24.0240   -5.6960  -20.0830 C.2   923  BDY923     -0.0082
     14  C2       -20.7490    3.7660  -17.8930 C.2   923  BDY923      0.4561
     15  N6       -22.9140    2.8420  -18.1080 N.2   923  BDY923     -0.3782
     16  N8       -22.6480    5.0260  -17.1270 N.pl3 923  BDY923     -0.1984
     17  C9       -24.1070    5.1310  -17.0360 C.3   923  BDY923      0.1431
     18  C11      -25.7620    3.5950  -15.9400 C.ar  923  BDY923      0.0562
     19 CL12      -26.4560    3.2720  -17.4780 Cl    923  BDY923     -0.0825
     20  C14      -25.8400    3.1830  -13.5970 C.ar  923  BDY923      0.0017
     21  C16      -24.2100    4.6750  -14.5330 C.ar  923  BDY923      0.0562
     22 CL17      -22.8930    5.7390  -14.2040 Cl    923  BDY923     -0.0825
     23  C18      -23.1750    0.6770  -19.0420 C.ar  923  BDY923      0.0299
     24  C19      -24.3560    0.4450  -18.3630 C.ar  923  BDY923      0.0025
     25  C23      -22.8420   -0.1570  -20.0910 C.ar  923  BDY923      0.0025
     26  O25      -26.9580   -2.2710  -19.9230 O.2   923  BDY923     -0.2696
     27  N26      -25.2870   -3.7300  -20.6080 N.am  923  BDY923     -0.2542
     28  C27      -23.9500   -4.2040  -20.3270 C.2   923  BDY923      0.0632
     29  C29      -25.4690   -6.0870  -20.2300 C.3   923  BDY923      0.0490
     30  C30      -26.2080   -4.8490  -20.6890 C.3   923  BDY923      0.1004
     31  C31      -26.7740   -5.1040  -22.0770 C.3   923  BDY923      0.0928
     32  N32      -27.2850   -3.8900  -22.7060 N.3   923  BDY923     -0.2713
     33  C33      -27.2390   -4.1170  -24.1510 C.3   923  BDY923      0.0722
     34  C34      -28.5550   -3.6600  -24.7390 C.3   923  BDY923      0.0188
     35  C35      -29.4850   -3.4220  -23.5760 C.3   923  BDY923      0.0188
     36  C36      -28.6860   -3.7040  -22.3260 C.3   923  BDY923      0.0722
@<TRIPOS>BOND
     1    34    33    1
     2    34    35    1
     3    33    32    1
     4    35    36    1
     5    32    36    1
     6    32    31    1
     7    31    30    1
     8    30    27    1
     9    30    29    1
    10    27    28    1
    11    27    12   am
    12    11    25   ar
    13    11    10   ar
    14    28    13    2
    15    29    13    1
    16    12    26    2
    17    12    10    1
    18    25    23   ar
    19    10     9   ar
    20    23     4    1
    21    23    24   ar
    22     3     4    1
    23     3     2    1
    24     9    24   ar
    25     4    15    2
    26     2    14    2
    27    15     5    2
    28    14     5    1
    29    14     1    1
    30     5    16    1
    31    19    18    1
    32    16    17    1
    33    17     6    1
    34    18     6   ar
    35    18     7   ar
    36     6    21   ar
    37     7    20   ar
    38    21    22    1
    39    21     8   ar
    40    20     8   ar
