@<TRIPOS>MOLECULE
3lce_LCE_A_1.pdb
 15 16 0 0 0
SMALL
GASTEIGER

@<TRIPOS>ATOM
      1  CAA       13.4730    0.7340   37.4450 C.3   269  LCE269      0.1752
      2  OAD       16.5880    3.2070   38.5160 O.co2 269  LCE269     -0.2455
      3  OAE       14.5700    3.3970   37.7440 O.co2 269  LCE269     -0.2455
      4  OAF       18.3460    4.0900   35.3120 O.3   269  LCE269     -0.2205
      5 CLAG       17.2190    4.4960   32.1470 Cl    269  LCE269     -0.0961
      6 CLAH       17.8020    1.9810   33.5270 Cl    269  LCE269     -0.0961
      7  OAK       13.9770    1.8130   36.6430 O.3   269  LCE269     -0.3422
      8  SAM       15.3490    1.3280   34.2900 S.3   269  LCE269     -0.1096
      9  CAN       15.7420    3.1210   37.6450 C.2   269  LCE269      0.3677
     10  CAP       15.2640    1.4280   36.0880 C.3   269  LCE269      0.1734
     11  CAQ       15.4620    3.1380   33.9300 C.3   269  LCE269      0.0835
     12  CAR       16.1540    2.6370   36.3040 C.3   269  LCE269      0.1442
     13  CAS       15.7670    3.7450   35.3240 C.3   269  LCE269      0.0594
     14  CAT       16.8920    3.5400   33.5640 C.3   269  LCE269      0.1701
     15  CAU       17.0470    4.4430   34.7680 C.3   269  LCE269      0.1820
@<TRIPOS>BOND
     1     5    14    1
     2     6    14    1
     3    14    11    1
     4    14    15    1
     5    11     8    1
     6    11    13    1
     7     8    10    1
     8    15     4    1
     9    15    13    1
    10    13    12    1
    11    10    12    1
    12    10     7    1
    13    12     9    1
    14     7     1    1
    15     9     3   ar
    16     9     2   ar
