@<TRIPOS>MOLECULE
3lcj_COA_A_1.pdb
 48 50 0 0 0
SMALL
GASTEIGER

@<TRIPOS>ATOM
      1  N1A        4.2510   -2.3590   19.4440 N.2   162  COA162      0.0021
      2  C2A        4.6970   -2.5080   18.0040 C.3   162  COA162      0.5254
      3  N3A        5.9730   -2.6780   17.7460 N.2   162  COA162     -0.0055
      4  C4A        6.9030   -2.5710   18.8870 C.2   162  COA162      0.3518
      5  C5A        6.4750   -2.3420   20.1280 C.2   162  COA162      0.2526
      6  C6A        4.9670   -2.0700   20.4040 C.2   162  COA162      0.4393
      7  N6A        4.5110   -1.9420   21.7700 N.pl3 162  COA162      0.2180
      8  N7A        7.6860   -2.2770   21.0420 N.2   162  COA162     -0.2095
      9  C8A        8.7710   -2.4920   20.3100 C.3   162  COA162      0.3377
     10  N9A        8.3730   -2.7060   18.9310 N.pl3 162  COA162     -0.1439
     11  C1B        9.2170   -2.9380   17.8930 C.3   162  COA162      0.3185
     12  C2B        9.9170   -3.9820   18.0430 C.3   162  COA162      0.2543
     13  O2B       10.7390   -3.9120   19.0520 O.3   162  COA162     -0.2131
     14  C3B       10.6270   -3.9710   16.9450 C.3   162  COA162      0.1928
     15  O3B       11.0560   -5.2800   16.6920 O.3   162  COA162     -0.2673
     16  P3B       10.1350   -6.5090   17.3490 P.3   162  COA162      0.5327
     17  O7A        8.8490   -5.9960   17.7360 O.3   162  COA162     -0.1145
     18  O8A        9.9160   -7.5800   16.0700 O.2   162  COA162     -0.2224
     19  O9A       10.8020   -7.1850   18.7330 O.3   162  COA162     -0.1145
     20  C4B        9.8050   -3.4680   15.9720 C.3   162  COA162      0.1795
     21  O4B        8.6420   -3.1910   16.6760 O.3   162  COA162     -0.3136
     22  C5B        9.6320   -4.3700   14.8650 C.3   162  COA162      0.1812
     23  O5B       10.6320   -4.1580   13.8780 O.3   162  COA162     -0.3112
     24  P1A       11.6920   -2.8630   13.9850 P.3   162  COA162      0.2189
     25  O1A       12.9560   -3.2280   13.4100 O.3   162  COA162     -0.4371
     26  O2A       11.1310   -1.5740   13.2130 O.2   162  COA162     -0.5170
     27  O3A       11.9540   -2.3910   15.5210 O.3   162  COA162     -0.2703
     28  P2A       13.4530   -2.3340   16.2240 P.3   162  COA162      0.2188
     29  O4A       14.2150   -3.5270   15.9580 O.2   162  COA162     -0.5170
     30  O5A       13.0300   -2.2790   17.7820 O.3   162  COA162     -0.4371
     31  O6A       14.2540   -0.8860   15.9230 O.3   162  COA162     -0.3138
     32  CBP       13.5050    1.3550   14.8960 C.3   162  COA162      0.0645
     33  CCP       14.1700   -0.0720   14.7320 C.3   162  COA162      0.1519
     34  CDP       14.3680    2.2700   14.0420 C.3   162  COA162      0.0056
     35  CEP       12.1550    1.5280   14.2520 C.3   162  COA162      0.0056
     36  CAP       13.2720    1.8430   16.3550 C.3   162  COA162      0.2312
     37  OAP       12.2750    2.7660   16.1790 O.3   162  COA162     -0.2131
     38  C9P       14.5210    2.6080   16.8260 C.2   162  COA162      0.2719
     39  O9P       15.2930    2.8990   16.0400 O.2   162  COA162     -0.2706
     40  N8P       14.9640    3.0120   18.1680 N.am  162  COA162     -0.2028
     41  C7P       16.2330    3.7590   18.1400 C.3   162  COA162      0.1248
     42  C6P       15.4930    5.0590   17.7180 C.3   162  COA162      0.1102
     43  C5P       15.8750    6.3220   16.8870 C.2   162  COA162      0.2432
     44  O5P       16.8770    6.5530   16.3930 O.2   162  COA162     -0.2733
     45  N4P       14.7560    7.2480   16.7550 N.am  162  COA162     -0.2044
     46  C3P       14.7690    8.4810   16.0020 C.3   162  COA162      0.1276
     47  C2P       13.6590    8.1270   15.0060 C.3   162  COA162      0.0920
     48  S1P       13.8030    8.6820   13.2960 S.3   162  COA162     -0.0802
@<TRIPOS>BOND
     1    26    24    2
     2    48    47    1
     3    25    24    1
     4    23    24    1
     5    23    22    1
     6    24    27    1
     7    34    32    1
     8    35    32    1
     9    33    32    1
    10    33    31    1
    11    22    20    1
    12    32    36    1
    13    47    46    1
    14    27    28    1
    15    31    28    1
    16    29    28    2
    17    20    21    1
    18    20    14    1
    19    46    45    1
    20    39    38    2
    21    18    16    2
    22    37    36    1
    23    28    30    1
    24    36    38    1
    25    44    43    2
    26    21    11    1
    27    15    14    1
    28    15    16    1
    29    45    43   am
    30    38    40   am
    31    43    42    1
    32    14    12    1
    33    16    17    1
    34    16    19    1
    35    42    41    1
    36     3     2    1
    37     3     4    2
    38    11    12    1
    39    11    10    1
    40     2     1    1
    41    12    13    1
    42    41    40    1
    43     4    10    1
    44     4     5    1
    45    10     9    1
    46     1     6    2
    47     5     6    1
    48     5     8    2
    49     9     8    1
    50     6     7    1
