@<TRIPOS>MOLECULE
3lcm_NAP_C_1.pdb
 26 27 0 0 0
SMALL
GASTEIGER

@<TRIPOS>ATOM
      1  PA        28.1420  -52.0340   30.7470 P.3   198  NAP198      0.5373
      2  O1A       29.5710  -52.6340   31.2370 O.3   198  NAP198     -0.1143
      3  O2A       28.0000  -52.2970   29.3630 O.2   198  NAP198     -0.2221
      4  O5B       26.9200  -52.6050   31.6640 O.3   198  NAP198     -0.1143
      5  O3        28.1230  -50.4050   30.6640 O.3   198  NAP198     -0.2261
      6  PN        28.7030  -49.2310   31.6040 P.3   198  NAP198      0.2231
      7  O1N       30.3020  -48.9050   31.6930 O.3   198  NAP198     -0.4370
      8  O2N       27.8640  -48.0420   30.8420 O.2   198  NAP198     -0.5169
      9  O5D       28.0230  -49.0220   33.1340 O.3   198  NAP198     -0.3111
     10  C5D       26.6070  -48.6940   33.1920 C.3   198  NAP198      0.1813
     11  C4D       26.2290  -47.6730   34.2700 C.3   198  NAP198      0.1799
     12  O4D       26.6760  -46.3060   34.2610 O.3   198  NAP198     -0.3327
     13  C3D       27.0590  -48.2450   35.4160 C.3   198  NAP198      0.2158
     14  O3D       27.4320  -49.5860   35.3800 O.3   198  NAP198     -0.2175
     15  C2D       28.3040  -47.3290   35.4250 C.3   198  NAP198      0.2309
     16  O2D       28.6860  -47.0420   36.6720 O.3   198  NAP198     -0.2158
     17  C1D       28.0450  -46.1960   34.5140 C.3   198  NAP198      0.2263
     18  N1N       28.6230  -45.0160   35.2750 N.pl3 198  NAP198     -0.2787
     19  C2N       29.7440  -44.2990   34.8500 C.3   198  NAP198      0.1244
     20  C3N       30.2910  -43.1510   35.6000 C.2   198  NAP198      0.0544
     21  C7N       31.4950  -42.2760   35.1450 C.2   198  NAP198      0.2818
     22  O7N       32.1740  -41.7700   35.8870 O.2   198  NAP198     -0.2670
     23  N7N       31.7940  -42.0220   33.7650 N.am  198  NAP198     -0.0839
     24  C4N       29.7330  -42.8960   36.8500 C.2   198  NAP198      0.0033
     25  C5N       28.6540  -43.6760   37.3200 C.2   198  NAP198      0.0157
     26  C6N       28.0550  -44.6730   36.5280 C.2   198  NAP198      0.0633
@<TRIPOS>BOND
     1     3     1    2
     2     5     1    1
     3     5     6    1
     4     1     2    1
     5     1     4    1
     6     8     6    2
     7     6     7    1
     8     6     9    1
     9     9    10    1
    10    10    11    1
    11    23    21   am
    12    12    11    1
    13    12    17    1
    14    11    13    1
    15    17    18    1
    16    17    15    1
    17    19    18    1
    18    19    20    1
    19    21    20    1
    20    21    22    2
    21    18    26    1
    22    14    13    1
    23    13    15    1
    24    15    16    1
    25    20    24    2
    26    26    25    2
    27    24    25    1
