@<TRIPOS>MOLECULE
3lco_LC0_A_1.pdb
 33 36 0 0 0
SMALL
GASTEIGER

@<TRIPOS>ATOM
      1  C4        -9.7000   21.6150  -15.0520 C.ar  999  LC0999      0.0024
      2  C5       -10.6110   19.4170  -15.2280 C.ar  999  LC0999      0.0024
      3  C6       -10.6600   21.9410  -14.1190 C.ar  999  LC0999      0.0367
      4  C7       -11.5760   19.7320  -14.2970 C.ar  999  LC0999      0.0367
      5  C8        -4.9340   17.8360  -16.9560 C.ar  999  LC0999      0.0585
      6  C10       -7.1200   18.0230  -18.5290 C.ar  999  LC0999      0.1385
      7  C13       -8.6260   20.0100  -16.6180 C.3   999  LC0999      0.2322
      8  C15       -9.6710   20.3530  -15.6080 C.ar  999  LC0999      0.0214
      9  C17       -4.8980   17.6110  -18.3140 C.ar  999  LC0999      0.1060
     10  C20       -7.2540   18.2730  -17.1810 C.ar  999  LC0999      0.1917
     11  C21        0.2150   17.9440  -18.7840 C.2   999  LC0999      0.1692
     12  C22       -1.5260   19.8730  -19.2660 C.2   999  LC0999      0.4768
     13  C1         4.4880   15.5800  -18.2030 C.3   999  LC0999      0.1538
     14  C2       -12.0460   20.8940  -11.5550 C.3   999  LC0999      0.2525
     15  C3        -4.9300   18.6080  -14.5300 C.3   999  LC0999      0.2526
     16  C9         1.0110   15.6190  -17.9830 C.ar  999  LC0999      0.1240
     17  C11        0.5480   19.2710  -18.6430 C.3   999  LC0999      0.3219
     18  C12        2.5430   17.0860  -18.6370 C.ar  999  LC0999      0.0990
     19  C14       -3.5900   17.2410  -18.9220 C.3   999  LC0999      0.2539
     20  C16      -11.5900   20.9950  -13.7450 C.ar  999  LC0999      0.1387
     21  C18       -6.1390   18.1730  -16.3790 C.ar  999  LC0999      0.1753
     22  C19        1.1860   16.9300  -18.4870 C.ar  999  LC0999      0.0695
     23  C23       -1.8450   18.5410  -19.4070 C.2   999  LC0999      0.3715
     24  N24       -2.5140   20.8220  -19.5410 N.pl3 999  LC0999      0.2226
     25  N25       -5.9650   17.6940  -19.1190 N.ar  999  LC0999     -0.2411
     26  N26       -0.3100   20.2660  -18.8770 N.2   999  LC0999     -0.0451
     27  N27        2.1770   14.9860  -17.8240 N.ar  999  LC0999     -0.1675
     28  N28       -0.9950   17.5350  -19.1730 N.2   999  LC0999     -0.3614
     29  N29        3.0770   15.8970  -18.2300 N.ar  999  LC0999     -0.2473
     30  O30      -12.5580   21.3200  -12.8120 O.3   999  LC0999     -0.4714
     31  O31       -6.2500   18.4120  -15.0210 O.3   999  LC0999     -0.4683
     32  O32       -8.4890   18.5950  -16.6480 O.3   999  LC0999     -0.4660
     33  O33       -3.1350   18.2460  -19.8160 O.2   999  LC0999     -0.4398
@<TRIPOS>BOND
     1    33    23    1
     2    33    19    1
     3    24    12    1
     4    23    12    1
     5    23    28    2
     6    12    26    2
     7    28    11    2
     8    25     6   ar
     9    25     9   ar
    10    19     9    1
    11    26    17    1
    12    11    17    1
    13    11    22    1
    14    18    22   ar
    15    18    29   ar
    16     6    10   ar
    17    22    16   ar
    18     9     5   ar
    19    29    13    1
    20    29    27   ar
    21    16    27   ar
    22    10    32    1
    23    10    21   ar
    24     5    21   ar
    25    32     7    1
    26     7     8    1
    27    21    31    1
    28     8     2   ar
    29     8     1   ar
    30     2     4   ar
    31     1     3   ar
    32    31    15    1
    33     4    20   ar
    34     3    20   ar
    35    20    30    1
    36    30    14    1
