@<TRIPOS>MOLECULE
3lcs_STU_A_1.pdb
 35 42 0 0 0
SMALL
GASTEIGER

@<TRIPOS>ATOM
      1  O4       -18.8300   10.7200   -5.6300 O.3     1  STU1       -0.3186
      2  C25      -19.5820    9.5180   -5.9480 C.3     1  STU1        0.2078
      3  C24      -18.7560    8.3330   -6.4350 C.3     1  STU1        0.0739
      4  C23      -17.3140    8.7690   -6.3050 C.3     1  STU1        0.1086
      5  C22      -17.1510    9.9760   -7.2290 C.3     1  STU1        0.1761
      6  C21      -17.8550   11.1780   -6.5720 C.3     1  STU1        0.1915
      7  C26      -16.8790   11.9670   -5.7090 C.3     1  STU1        0.0566
      8  N2       -18.4920   12.1090   -7.5610 N.ar    1  STU1       -0.3054
      9  C18      -19.7690   11.9850   -7.9800 C.ar    1  STU1        0.0774
     10  C19      -20.7440   11.0340   -7.6600 C.ar    1  STU1        0.0783
     11  C6       -21.9850   11.1270   -8.2350 C.ar    1  STU1        0.0293
     12  C7       -22.2030   12.1750   -9.1310 C.ar    1  STU1        0.0822
     13  C10      -21.2700   13.1290   -9.4710 C.ar    1  STU1        0.0154
     14  C11      -19.9990   13.0160   -8.8790 C.ar    1  STU1        0.0173
     15  C12      -18.8390   13.7560   -8.9730 C.ar    1  STU1        0.0171
     16  C17      -17.8690   13.1910   -8.1380 C.ar    1  STU1        0.0617
     17  C16      -16.6040   13.7900   -8.0910 C.ar    1  STU1        0.0172
     18  C15      -16.3420   14.9280   -8.8700 C.ar    1  STU1        0.0015
     19  C14      -17.3300   15.4810   -9.6950 C.ar    1  STU1        0.0001
     20  C13      -18.6010   14.8950   -9.7420 C.ar    1  STU1        0.0015
     21  C9       -21.8080   14.0980  -10.4350 C.3     1  STU1        0.1650
     22  N1       -23.2090   13.6580  -10.6570 N.2     1  STU1       -0.1976
     23  C8       -23.4190   12.5500   -9.8880 C.1     1  STU1        0.1501
     24  O5       -24.5380   11.9200   -9.8390 O.2     1  STU1       -0.2222
     25  C5       -22.6790   10.0740   -7.7130 C.ar    1  STU1        0.0180
     26  C20      -21.9040    9.3360   -6.8470 C.ar    1  STU1        0.0618
     27  C1       -22.5290    8.2150   -6.2330 C.ar    1  STU1        0.0172
     28  C2       -23.8830    7.8650   -6.5180 C.ar    1  STU1        0.0015
     29  C3       -24.6220    8.6500   -7.4250 C.ar    1  STU1        0.0001
     30  C4       -23.8060    9.5420   -7.7750 C.ar    1  STU1        0.0015
     31  N3       -20.6910    9.9490   -6.8280 N.ar    1  STU1       -0.3039
     32  O6       -17.7260    9.6560   -8.5060 O.3     1  STU1       -0.3478
     33  C27      -17.0910   10.3380   -9.5820 C.3     1  STU1        0.1743
     34  N4       -16.4210    7.6470   -6.5520 N.3     1  STU1       -0.2152
     35  C28      -16.1990    6.6870   -5.4800 C.3     1  STU1        0.1075
@<TRIPOS>BOND
     1    22    21    1
     2    22    23    2
     3    21    13    1
     4    23    24    2
     5    23    12    1
     6    20    19   ar
     7    20    15   ar
     8    19    18   ar
     9    33    32    1
    10    13    12   ar
    11    13    14   ar
    12    12    11   ar
    13    15    14   ar
    14    15    16   ar
    15    14     9   ar
    16    18    17   ar
    17    32     5    1
    18    11    25   ar
    19    11    10   ar
    20    16    17   ar
    21    16     8   ar
    22     9    10   ar
    23     9     8   ar
    24    30    25   ar
    25    30    29   ar
    26    25    26   ar
    27    10    31   ar
    28     8     6    1
    29    29    28   ar
    30     5     6    1
    31     5     4    1
    32    26    31   ar
    33    26    27   ar
    34    31     2    1
    35     6     7    1
    36     6     1    1
    37    34     4    1
    38    34    35    1
    39    28    27   ar
    40     3     4    1
    41     3     2    1
    42     2     1    1
