@<TRIPOS>MOLECULE
3lct_ADP_A_1.pdb
 27 29 0 0 0
SMALL
GASTEIGER

@<TRIPOS>ATOM
      1  PB       -14.3850   12.1810   -7.9510 P.3   1412  ADP1412     0.5373
      2  O1B      -14.0920   10.8570   -8.6380 O.2   1412  ADP1412    -0.2221
      3  O2B      -13.1510   13.0600   -7.7930 O.3   1412  ADP1412    -0.1143
      4  O3B      -15.6140   12.8670   -8.5290 O.3   1412  ADP1412    -0.1143
      5  PA       -15.5660   12.6730   -5.2710 P.3   1412  ADP1412     0.2231
      6  O1A      -15.6210   14.1450   -5.6260 O.2   1412  ADP1412    -0.5169
      7  O2A      -14.9910   12.3290   -3.8950 O.3   1412  ADP1412    -0.4370
      8  O3A      -14.7490   11.8100   -6.3960 O.3   1412  ADP1412    -0.2261
      9  O5'      -17.0480   11.9850   -5.3630 O.3   1412  ADP1412    -0.3111
     10  C5'      -17.5760   11.1840   -4.2860 C.3   1412  ADP1412     0.1813
     11  C4'      -18.5090   10.0150   -4.6550 C.3   1412  ADP1412     0.1821
     12  O4'      -19.7310   10.4660   -5.2800 O.3   1412  ADP1412    -0.3135
     13  C3'      -17.8560    9.0240   -5.6130 C.3   1412  ADP1412     0.2184
     14  O3'      -18.3470    7.6980   -5.3340 O.3   1412  ADP1412    -0.2174
     15  C2'      -18.3600    9.5120   -6.9600 C.3   1412  ADP1412     0.2570
     16  O2'      -18.2680    8.4880   -7.9460 O.3   1412  ADP1412    -0.2130
     17  C1'      -19.7990    9.9590   -6.6250 C.3   1412  ADP1412     0.3186
     18  N9       -20.3610   10.9340   -7.6140 N.pl3 1412  ADP1412    -0.1439
     19  C8       -19.6640   11.9690   -8.1530 C.3   1412  ADP1412     0.3377
     20  N7       -20.4220   12.6870   -9.0200 N.2   1412  ADP1412    -0.2095
     21  C5       -21.6420   12.0930   -9.0890 C.2   1412  ADP1412     0.2526
     22  C6       -22.9150   12.3630   -9.8420 C.2   1412  ADP1412     0.4393
     23  N6       -22.9860   13.4080  -10.7460 N.pl3 1412  ADP1412     0.2180
     24  N1       -23.9670   11.5030   -9.5900 N.2   1412  ADP1412     0.0021
     25  C2       -23.8570   10.4590   -8.7240 C.3   1412  ADP1412     0.5254
     26  N3       -22.7330   10.1520   -8.0330 N.2   1412  ADP1412    -0.0055
     27  C4       -21.6070   10.9270   -8.1560 C.2   1412  ADP1412     0.3518
@<TRIPOS>BOND
     1    23    22    1
     2    22    24    2
     3    22    21    1
     4    24    25    1
     5    21    20    2
     6    21    27    1
     7    20    19    1
     8    25    26    1
     9     2     1    2
    10     4     1    1
    11    27    26    2
    12    27    18    1
    13    19    18    1
    14     1     3    1
    15     1     8    1
    16    16    15    1
    17    18    17    1
    18    15    17    1
    19    15    13    1
    20    17    12    1
    21     8     5    1
    22     6     5    2
    23    13    14    1
    24    13    11    1
    25     9     5    1
    26     9    10    1
    27    12    11    1
    28     5     7    1
    29    11    10    1
