@<TRIPOS>MOLECULE
3lcu_SAH_A_1.pdb
 26 28 0 0 0
SMALL
GASTEIGER

@<TRIPOS>ATOM
      1  N          8.5910   -1.9530   22.6830 N.3   6732  SAH6732    -0.1208
      2  CA         7.2210   -1.6910   23.0920 C.3   6732  SAH6732     0.1952
      3  CB         6.4860   -1.0800   21.8900 C.3   6732  SAH6732     0.0422
      4  CG         6.5040   -1.8810   20.5930 C.3   6732  SAH6732     0.0597
      5  SD         5.6630   -1.0990   19.2250 S.3   6732  SAH6732    -0.1375
      6  C          6.4850   -3.0010   23.5670 C.2   6732  SAH6732     0.3819
      7  O          7.0660   -4.0160   23.4090 O.co2 6732  SAH6732    -0.2441
      8  OXT        5.4390   -3.0710   23.9650 O.co2 6732  SAH6732    -0.2441
      9  C5'        6.9830   -0.2940   18.4840 C.3   6732  SAH6732     0.0899
     10  C4'        7.5630    1.0610   19.0580 C.3   6732  SAH6732     0.1630
     11  O4'        8.5240    1.4670   18.0950 O.3   6732  SAH6732    -0.3153
     12  C3'        6.5660    2.1910   19.1530 C.3   6732  SAH6732     0.2168
     13  O3'        6.3970    2.5750   20.5210 O.3   6732  SAH6732    -0.2175
     14  C2'        7.1960    3.3030   18.2080 C.3   6732  SAH6732     0.2569
     15  O2'        6.9130    4.6220   18.6460 O.3   6732  SAH6732    -0.2130
     16  C1'        8.6550    2.8990   18.2460 C.3   6732  SAH6732     0.3185
     17  N9         9.4850    3.3500   17.2920 N.pl3 6732  SAH6732    -0.1439
     18  C8         9.2390    3.3810   15.9280 C.3   6732  SAH6732     0.3377
     19  N7        10.2390    3.8610   15.2320 N.2   6732  SAH6732    -0.2095
     20  C5        11.2080    4.1620   16.2290 C.2   6732  SAH6732     0.2526
     21  C6        12.5130    4.7090   16.0240 C.2   6732  SAH6732     0.4393
     22  N6        13.0230    5.0240   14.8290 N.pl3 6732  SAH6732     0.2180
     23  N1        13.2230    4.8910   17.1920 N.2   6732  SAH6732     0.0021
     24  C2        12.7320    4.5740   18.4310 C.3   6732  SAH6732     0.5254
     25  N3        11.4770    4.0400   18.6380 N.2   6732  SAH6732    -0.0055
     26  C4        10.7790    3.8670   17.4810 C.2   6732  SAH6732     0.3518
@<TRIPOS>BOND
     1    22    21    1
     2    19    18    1
     3    19    20    2
     4    18    17    1
     5    21    20    1
     6    21    23    2
     7    20    26    1
     8    23    24    1
     9    17    26    1
    10    17    16    1
    11    26    25    2
    12    11    16    1
    13    11    10    1
    14    14    16    1
    15    14    15    1
    16    14    12    1
    17    24    25    1
    18     9    10    1
    19     9     5    1
    20    10    12    1
    21    12    13    1
    22     5     4    1
    23     4     3    1
    24     3     2    1
    25     1     2    1
    26     2     6    1
    27     7     6   ar
    28     6     8   ar
