@<TRIPOS>MOLECULE
3lcv_SAM_B_1.pdb
 27 29 0 0 0
SMALL
GASTEIGER

@<TRIPOS>ATOM
      1  N          8.8800   -1.7400   22.9860 N.3   301  SAM301     -0.1208
      2  CA         7.4430   -1.4750   23.1020 C.3   301  SAM301      0.1952
      3  C          6.6850   -2.7520   23.4550 C.2   301  SAM301      0.3819
      4  O          7.0640   -3.8230   23.0130 O.co2 301  SAM301     -0.2441
      5  OXT        5.5110   -2.8550   24.2750 O.co2 301  SAM301     -0.2441
      6  CB         6.8680   -0.9090   21.6660 C.3   301  SAM301      0.0414
      7  CG         6.8360   -1.7890   20.4270 C.3   301  SAM301      0.0503
      8  SD         6.1850   -0.9500   18.9480 S.3   301  SAM301     -0.1761
      9  CE         5.7510   -2.2890   17.8130 C.3   301  SAM301      0.0590
     10  C5'        6.9580   -0.1310   18.3140 C.3   301  SAM301      0.0806
     11  C4'        7.5660    1.1460   18.8760 C.3   301  SAM301      0.1622
     12  O4'        8.8050    1.4340   18.1900 O.3   301  SAM301     -0.3153
     13  C3'        6.6900    2.3680   18.6720 C.3   301  SAM301      0.2168
     14  O3'        6.3920    2.6690   20.0790 O.3   301  SAM301     -0.2175
     15  C2'        7.5610    3.4890   18.1150 C.3   301  SAM301      0.2569
     16  O2'        7.4540    4.8020   18.6330 O.3   301  SAM301     -0.2130
     17  C1'        8.9700    2.8340   18.1100 C.3   301  SAM301      0.3185
     18  N9         9.7170    3.4880   17.1450 N.pl3 301  SAM301     -0.1439
     19  C8         9.4990    3.4780   15.7830 C.3   301  SAM301      0.3377
     20  N7        10.5600    3.9520   15.1560 N.2   301  SAM301     -0.2095
     21  C5        11.4800    4.2880   16.0480 C.2   301  SAM301      0.2526
     22  C6        12.7790    4.8310   15.9010 C.2   301  SAM301      0.4393
     23  N6        13.2910    5.0970   14.7300 N.pl3 301  SAM301      0.2180
     24  N1        13.5220    5.0850   17.0170 N.2   301  SAM301      0.0021
     25  C2        12.9870    4.8040   18.2370 C.3   301  SAM301      0.5254
     26  N3        11.7460    4.2810   18.3600 N.2   301  SAM301     -0.0055
     27  C4        10.9910    4.0230   17.2730 C.2   301  SAM301      0.3518
@<TRIPOS>BOND
     1    23    22    1
     2    20    19    1
     3    20    21    2
     4    19    18    1
     5    22    21    1
     6    22    24    2
     7    21    27    1
     8    24    25    1
     9    18    27    1
    10    18    17    1
    11    27    26    2
    12     9     8    1
    13    17    15    1
    14    17    12    1
    15    15    16    1
    16    15    13    1
    17    12    11    1
    18    25    26    1
    19    10    11    1
    20    10     8    1
    21    13    11    1
    22    13    14    1
    23     8     7    1
    24     7     6    1
    25     6     2    1
    26     1     2    1
    27     4     3   ar
    28     2     3    1
    29     3     5   ar
