@<TRIPOS>MOLECULE
3ld2_COA_A_1.pdb
 48 50 0 0 0
SMALL
GASTEIGER

@<TRIPOS>ATOM
      1  N1A       15.3210   61.3340   64.9910 N.2   164  COA164      0.0021
      2  C2A       14.8480   60.7870   63.6970 C.3   164  COA164      0.5254
      3  N3A       15.5170   59.5640   63.1320 N.2   164  COA164     -0.0051
      4  C4A       16.6000   58.9300   63.8670 C.2   164  COA164      0.3567
      5  C5A       17.0500   59.4670   65.1600 C.2   164  COA164      0.2530
      6  C6A       16.4090   60.6920   65.7310 C.2   164  COA164      0.4393
      7  N6A       16.8990   61.1830   67.0090 N.pl3 164  COA164      0.2180
      8  N7A       18.1480   58.6480   65.6980 N.2   164  COA164     -0.2092
      9  C8A       18.3580   57.5940   64.7350 C.3   164  COA164      0.3431
     10  N9A       17.3430   57.7190   63.6570 N.pl3 164  COA164     -0.1129
     11  C1B       17.6170   57.0230   62.5100 C.ar  164  COA164      0.3384
     12  C2B       17.6410   57.5630   61.0930 C.ar  164  COA164      0.3064
     13  O2B       16.6760   58.3940   60.5230 O.3   164  COA164     -0.2759
     14  C3B       18.7430   56.9090   60.3820 C.ar  164  COA164      0.2271
     15  O3B       19.1680   57.2770   59.1070 O.3   164  COA164     -0.3933
     16  P3B       19.9070   58.7770   58.9510 P.3   164  COA164      0.5888
     17  O7A       20.7390   58.6860   57.5290 O.2   164  COA164     -0.2114
     18  O8A       18.7970   60.0090   58.8530 O.3   164  COA164     -0.1039
     19  O9A       20.7710   59.0830   60.0770 O.3   164  COA164     -0.1039
     20  C4B       19.4280   56.0000   61.3830 C.ar  164  COA164      0.1943
     21  O4B       18.7540   56.1250   62.6870 O.2   164  COA164     -0.4181
     22  C5B       20.7460   55.3070   61.3580 C.3   164  COA164      0.2164
     23  O5B       21.3180   56.3070   62.1820 O.3   164  COA164     -0.3055
     24  P1A       22.5600   56.1200   63.2420 P.3   164  COA164      0.2192
     25  O1A       23.5040   57.4760   63.1780 O.3   164  COA164     -0.4371
     26  O2A       23.3000   54.9250   62.8610 O.2   164  COA164     -0.5170
     27  O3A       21.9690   55.9460   64.7590 O.3   164  COA164     -0.2703
     28  P2A       22.7870   56.3420   66.1220 P.3   164  COA164      0.2188
     29  O4A       22.5860   57.9500   66.4290 O.3   164  COA164     -0.4371
     30  O5A       24.2070   56.0300   66.0190 O.2   164  COA164     -0.5170
     31  O6A       22.1010   55.5320   67.3760 O.3   164  COA164     -0.3138
     32  CBP       20.4100   54.7610   68.7520 C.3   164  COA164      0.0645
     33  CCP       20.7480   55.1670   67.3080 C.3   164  COA164      0.1519
     34  CDP       21.3390   53.5760   69.1300 C.3   164  COA164      0.0056
     35  CEP       18.9080   54.3950   68.8920 C.3   164  COA164      0.0056
     36  CAP       20.7630   55.9530   69.6840 C.3   164  COA164      0.2312
     37  OAP       19.8240   56.9920   69.6330 O.3   164  COA164     -0.2131
     38  C9P       20.7830   55.4730   71.1280 C.2   164  COA164      0.2719
     39  O9P       21.8280   55.4520   71.6920 O.2   164  COA164     -0.2706
     40  N8P       19.6210   55.7360   71.9610 N.am  164  COA164     -0.2028
     41  C7P       19.9270   55.8090   73.3750 C.3   164  COA164      0.1248
     42  C6P       19.1650   54.7460   74.1730 C.3   164  COA164      0.1102
     43  C5P       18.8860   53.5050   73.3200 C.2   164  COA164      0.2432
     44  O5P       19.7640   52.7410   73.1080 O.2   164  COA164     -0.2733
     45  N4P       17.5470   53.1980   72.8560 N.am  164  COA164     -0.2044
     46  C3P       17.1260   51.8050   72.6040 C.3   164  COA164      0.1276
     47  C2P       18.2570   50.8340   72.2490 C.3   164  COA164      0.0920
     48  S1P       18.3010   49.5260   73.5240 S.3   164  COA164     -0.0802
@<TRIPOS>BOND
     1    17    16    2
     2    18    16    1
     3    16    15    1
     4    16    19    1
     5    15    14    1
     6    14    12   ar
     7    14    20   ar
     8    13    12    1
     9    12    11   ar
    10    22    20    1
    11    22    23    1
    12    20    21   ar
    13    23    24    1
    14    11    21   ar
    15    11    10    1
    16    26    24    2
    17     3     2    1
    18     3     4    2
    19    25    24    1
    20    24    27    1
    21    10     4    1
    22    10     9    1
    23     2     1    1
    24     4     5    1
    25     9     8    1
    26    27    28    1
    27     1     6    2
    28     5     8    2
    29     5     6    1
    30     6     7    1
    31    30    28    2
    32    28    29    1
    33    28    31    1
    34    33    31    1
    35    33    32    1
    36    32    35    1
    37    32    34    1
    38    32    36    1
    39    37    36    1
    40    36    38    1
    41    38    39    2
    42    38    40   am
    43    40    41    1
    44    47    46    1
    45    47    48    1
    46    46    45    1
    47    45    43   am
    48    44    43    2
    49    43    42    1
    50    41    42    1
