@<TRIPOS>MOLECULE
3ld4_8NX_A_1.pdb
 14 15 0 0 0
SMALL
GASTEIGER

@<TRIPOS>ATOM
      1  N1        29.3840   27.2170   36.3510 N.2   300  8NX300     -0.2289
      2  C2        28.5680   27.0780   37.4550 C.1   300  8NX300      0.3754
      3  O2        27.4540   27.5090   37.4810 O.2   300  8NX300     -0.1738
      4  N3        29.1110   26.3990   38.5540 N.2   300  8NX300     -0.2368
      5  C4        30.3770   26.0090   38.4360 C.1   300  8NX300      0.2086
      6  C5        31.1960   26.0610   37.3140 C.2   300  8NX300      0.3248
      7  C6        30.6740   26.7970   36.1840 C.1   300  8NX300      0.2603
      8  O6        31.2650   26.9890   35.1100 O.2   300  8NX300     -0.2051
      9  N7        32.3640   25.4610   37.4920 N.2   300  8NX300     -0.2956
     10  C8        32.2920   25.0810   38.7310 C.1   300  8NX300      0.3023
     11  N9        31.1300   25.3220   39.3770 N.2   300  8NX300     -0.2506
     12  N10       33.1650   24.3940   39.4790 N.pl3 300  8NX300      0.1465
     13  O11       33.8780   23.4550   39.0490 O.2   300  8NX300     -0.1136
     14  O12       33.2590   24.6470   40.7160 O.2   300  8NX300     -0.1136
@<TRIPOS>BOND
     1     8     7    2
     2     7     1    2
     3     7     6    1
     4     1     2    2
     5     6     9    2
     6     6     5    1
     7     2     3    2
     8     2     4    2
     9     9    10    2
    10     5     4    2
    11     5    11    2
    12    10    11    2
    13    10    12    1
    14    13    12    2
    15    12    14    2
