@<TRIPOS>MOLECULE
3ld5_NAP_A_1.pdb
 48 52 0 0 0
SMALL
GASTEIGER

@<TRIPOS>ATOM
      1  PA        22.6060   -4.7020   26.9270 P.3   500  NAP500      0.2189
      2  O1A       23.5330   -3.6590   26.4070 O.2   500  NAP500     -0.5170
      3  O2A       21.5480   -4.3740   27.8520 O.3   500  NAP500     -0.4371
      4  O5B       23.5560   -5.8870   27.4660 O.3   500  NAP500     -0.3112
      5  C5B       22.9280   -7.1080   27.9610 C.3   500  NAP500      0.1813
      6  C4B       24.1290   -7.9990   28.3220 C.3   500  NAP500      0.1820
      7  O4B       24.8490   -7.3970   29.4010 O.3   500  NAP500     -0.3136
      8  C3B       23.7270   -9.3970   28.8150 C.3   500  NAP500      0.2157
      9  O3B       24.6540  -10.3450   28.3110 O.3   500  NAP500     -0.2175
     10  C2B       23.8210   -9.2500   30.3590 C.3   500  NAP500      0.2314
     11  O2B       24.1710  -10.5120   30.9310 O.3   500  NAP500     -0.2630
     12  C1B       25.0160   -8.3010   30.4720 C.3   500  NAP500      0.3158
     13  N9A       24.9720   -7.5560   31.6920 N.pl3 500  NAP500     -0.1439
     14  C8A       23.8740   -6.8990   32.2590 C.3   500  NAP500      0.3377
     15  N7A       24.1630   -6.2870   33.3870 N.2   500  NAP500     -0.2095
     16  C5A       25.5120   -6.5500   33.5760 C.2   500  NAP500      0.2526
     17  C6A       26.3150   -6.1420   34.6260 C.2   500  NAP500      0.4393
     18  N6A       25.9410   -5.3830   35.6780 N.pl3 500  NAP500      0.2180
     19  N1A       27.6370   -6.5530   34.5320 N.2   500  NAP500      0.0021
     20  C2A       28.0860   -7.3430   33.4750 C.3   500  NAP500      0.5254
     21  N3A       27.2610   -7.7390   32.4460 N.2   500  NAP500     -0.0055
     22  C4A       25.9630   -7.3090   32.5300 C.2   500  NAP500      0.3518
     23  O3        22.0070   -5.4520   25.6230 O.3   500  NAP500     -0.2703
     24  PN        20.6070   -5.5300   24.8320 P.3   500  NAP500      0.2189
     25  O1N       19.8200   -6.6790   25.3800 O.3   500  NAP500     -0.4371
     26  O2N       20.9460   -5.5670   23.3890 O.2   500  NAP500     -0.5170
     27  O5D       19.8750   -4.1340   25.0580 O.3   500  NAP500     -0.3112
     28  C5D       19.0080   -3.8330   26.2040 C.3   500  NAP500      0.1813
     29  C4D       17.5550   -4.0050   25.7830 C.3   500  NAP500      0.1799
     30  O4D       17.2070   -2.9980   24.7700 O.3   500  NAP500     -0.3327
     31  C3D       17.1250   -5.3150   25.0780 C.3   500  NAP500      0.2158
     32  O3D       17.0640   -6.4390   25.9300 O.3   500  NAP500     -0.2175
     33  C2D       15.7980   -4.8670   24.4780 C.3   500  NAP500      0.2309
     34  O2D       14.8230   -4.8320   25.5260 O.3   500  NAP500     -0.2158
     35  C1D       16.1000   -3.4390   23.9860 C.3   500  NAP500      0.2263
     36  N1N       16.5800   -3.4030   22.5360 N.pl3 500  NAP500     -0.2787
     37  C2N       15.7230   -2.8460   21.6240 C.3   500  NAP500      0.1244
     38  C3N       16.0940   -2.8720   20.2560 C.2   500  NAP500      0.0544
     39  C7N       15.1570   -2.2360   19.2510 C.2   500  NAP500      0.2818
     40  O7N       15.3960   -2.4070   18.0590 O.2   500  NAP500     -0.2670
     41  N7N       14.3020   -1.3510   19.7510 N.am  500  NAP500     -0.0839
     42  C4N       17.3010   -3.4730   19.8400 C.2   500  NAP500      0.0033
     43  C5N       18.1930   -4.0350   20.8070 C.2   500  NAP500      0.0157
     44  C6N       17.8360   -3.9700   22.1680 C.2   500  NAP500      0.0633
     45  P2B       23.1290  -11.4320   31.7580 P.3   500  NAP500      0.5328
     46  O1X       23.7180  -12.8370   31.5550 O.3   500  NAP500     -0.1145
     47  O2X       23.2540  -10.9820   33.2330 O.3   500  NAP500     -0.1145
     48  O3X       21.7490  -11.2220   31.2040 O.2   500  NAP500     -0.2224
@<TRIPOS>BOND
     1    40    39    2
     2    39    41   am
     3    39    38    1
     4    42    38    2
     5    42    43    1
     6    38    37    1
     7    43    44    2
     8    37    36    1
     9    44    36    1
    10    36    35    1
    11    26    24    2
    12    35    33    1
    13    35    30    1
    14    33    31    1
    15    33    34    1
    16    30    29    1
    17    24    27    1
    18    24    25    1
    19    24    23    1
    20    27    28    1
    21    31    29    1
    22    31    32    1
    23    23     1    1
    24    29    28    1
    25     2     1    2
    26     1     4    1
    27     1     3    1
    28     4     5    1
    29     5     6    1
    30     9     8    1
    31     6     8    1
    32     6     7    1
    33     8    10    1
    34     7    12    1
    35    10    12    1
    36    10    11    1
    37    12    13    1
    38    11    45    1
    39    48    45    2
    40    46    45    1
    41    13    14    1
    42    13    22    1
    43    45    47    1
    44    14    15    1
    45    21    22    2
    46    21    20    1
    47    22    16    1
    48    15    16    2
    49    20    19    1
    50    16    17    1
    51    19    17    2
    52    17    18    1
