@<TRIPOS>MOLECULE
3ld5_LDT_A_1.pdb
 24 25 0 0 0
SMALL
GASTEIGER

@<TRIPOS>ATOM
      1  C2        15.7700   -9.3440   18.0150 C.ar  600  LDT600      0.0666
      2  C3        16.0110  -10.1650   15.3300 C.ar  600  LDT600      0.0071
      3  C4        16.5820   -8.6430   17.1370 C.ar  600  LDT600      0.1433
      4  C5        15.0820  -10.4440   17.5280 C.ar  600  LDT600      0.1432
      5  C6        15.1720  -10.8760   16.2050 C.ar  600  LDT600      0.0299
      6  C7        16.6780   -9.0600   15.8110 C.ar  600  LDT600      0.0556
      7 BR8        14.7980   -3.4750    9.4290 Br    600  LDT600     -0.0489
      8  F9        14.3040  -11.0940   18.4020 F     600  LDT600     -0.2041
      9  C11       17.5440   -8.2670   14.8990 C.2   600  LDT600      0.1039
     10  C13       18.2010   -6.1700   13.8420 C.3   600  LDT600      0.1414
     11  F14       19.1130   -4.1980   12.1330 F     600  LDT600     -0.2044
     12  O15       17.3530   -7.5380   17.5010 O.3   600  LDT600     -0.4636
     13  S16       18.3920   -9.1380   13.7790 S.2   600  LDT600     -0.0331
     14  N17       17.4660   -6.9380   14.8280 N.am  600  LDT600     -0.2257
     15  C20       16.8920   -6.7240   18.5920 C.3   600  LDT600      0.3186
     16  C24       17.3020   -5.5790   12.7660 C.ar  600  LDT600      0.0269
     17  C25       15.7680   -4.3470   10.7580 C.ar  600  LDT600      0.0368
     18  C26       15.9710   -5.9620   12.5500 C.ar  600  LDT600      0.0002
     19  C27       17.8490   -4.5690   11.9450 C.ar  600  LDT600      0.1383
     20  C28       17.0900   -3.9710   10.9640 C.ar  600  LDT600      0.0361
     21  C29       15.2200   -5.3530   11.5530 C.ar  600  LDT600      0.0066
     22  C32       15.6930   -5.9200   18.1550 C.2   600  LDT600      0.4084
     23  O33       14.9690   -5.4390   19.0350 O.co2 600  LDT600     -0.2415
     24  O34       15.4800   -5.7620   16.8650 O.co2 600  LDT600     -0.2415
@<TRIPOS>BOND
     1     7    17    1
     2    17    20   ar
     3    17    21   ar
     4    20    19   ar
     5    21    18   ar
     6    19    11    1
     7    19    16   ar
     8    18    16   ar
     9    16    10    1
    10    13     9    2
    11    10    14    1
    12    14     9    1
    13     9     6    1
    14     2     6   ar
    15     2     5   ar
    16     6     3   ar
    17     5     4   ar
    18    24    22   ar
    19     3    12    1
    20     3     1   ar
    21    12    15    1
    22     4     1   ar
    23     4     8    1
    24    22    15    1
    25    22    23   ar
