@<TRIPOS>MOLECULE
3ld6_HEM_A_1.pdb
 43 50 0 0 0
SMALL
GASTEIGER

@<TRIPOS>ATOM
      1  CHA       36.3420    6.7170   -3.8310 C.2   601  HEM601      0.0000
      2  CHB       35.4920    2.0690   -2.8670 C.2   601  HEM601      0.0000
      3  CHC       36.9510    0.8290   -7.3190 C.2   601  HEM601      0.0000
      4  CHD       38.3230    5.4120   -8.0770 C.2   601  HEM601      0.0000
      5  C1A       35.9840    5.5730   -3.1810 C.2   601  HEM601      0.0000
      6  C2A       35.4700    5.5150   -1.8340 C.2   601  HEM601      0.0000
      7  C3A       35.2370    4.2180   -1.5540 C.2   601  HEM601      0.0000
      8  C4A       35.5900    3.4340   -2.7310 C.2   601  HEM601      0.0000
      9  CMA       34.6780    3.6620   -0.2260 C.3   601  HEM601      0.0000
     10  CAA       35.2590    6.7430   -0.9150 C.3   601  HEM601      0.0000
     11  CBA       36.5740    7.2020   -0.2790 C.3   601  HEM601      0.0000
     12  CGA       36.3740    8.1100    0.9170 C.2   601  HEM601      0.0000
     13  O1A       37.2840    8.1450    1.7920 O.co2 601  HEM601      0.0000
     14  O2A       35.3240    8.8090    1.0100 O.co2 601  HEM601      0.0000
     15  C1B       35.7610    1.3250   -3.9960 C.ar  601  HEM601      0.0000
     16  C2B       35.5050   -0.0840   -4.1650 C.ar  601  HEM601      0.0000
     17  C3B       35.9140   -0.4320   -5.3980 C.ar  601  HEM601      0.0000
     18  C4B       36.4340    0.7500   -6.0460 C.ar  601  HEM601      0.0000
     19  CMB       34.8530   -0.9830   -3.0880 C.3   601  HEM601      0.0000
     20  CAB       35.8590   -1.8220   -6.0880 C.2   601  HEM601      0.0000
     21  CBB       34.9080   -2.7300   -5.8440 C.2   601  HEM601      0.0000
     22  C1C       37.4340    1.9690   -7.9240 C.2   601  HEM601      0.0000
     23  C2C       37.8970    2.0810   -9.3010 C.2   601  HEM601      0.0000
     24  C3C       38.2660    3.3610   -9.4990 C.2   601  HEM601      0.0000
     25  C4C       38.0460    4.0890   -8.2690 C.2   601  HEM601      0.0000
     26  CMC       37.9260    0.9330  -10.3370 C.3   601  HEM601      0.0000
     27  CAC       38.8380    4.0000  -10.7800 C.2   601  HEM601      0.0000
     28  CBC       38.4230    3.6200  -11.9930 C.2   601  HEM601      0.0000
     29  C1D       37.8940    6.1970   -7.0450 C.ar  601  HEM601      0.0000
     30  C2D       38.0020    7.6370   -6.9760 C.ar  601  HEM601      0.0000
     31  C3D       37.3730    8.0320   -5.6420 C.ar  601  HEM601      0.0000
     32  C4D       36.9490    6.7950   -5.0550 C.ar  601  HEM601      0.0000
     33  CMD       38.6050    8.5980   -8.0140 C.3   601  HEM601      0.0000
     34  CAD       37.2100    9.4480   -5.0550 C.3   601  HEM601      0.0000
     35  CBD       38.2180    9.7800   -3.9650 C.3   601  HEM601      0.0000
     36  CGD       37.8270   11.1280   -3.3870 C.2   601  HEM601      0.0000
     37  O1D       37.0280   11.8570   -4.0500 O.co2 601  HEM601      0.0000
     38  O2D       38.3190   11.4830   -2.2690 O.co2 601  HEM601      0.0000
     39  NA        36.0500    4.2970   -3.7050 N.2   601  HEM601      0.0000
     40  NB        36.3340    1.7970   -5.1600 N.ar  601  HEM601      0.0000
     41  NC        37.5410    3.2170   -7.3260 N.2   601  HEM601      0.0000
     42  ND        37.2740    5.7390   -5.9020 N.ar  601  HEM601      0.0000
     43 FE         36.8410    3.7660   -5.5490 Fe    601  HEM601      0.0000
@<TRIPOS>BOND
     1    28    27    2
     2    27    24    1
     3    26    23    1
     4    24    23    2
     5    24    25    1
     6    23    22    1
     7    25     4    1
     8    25    41    2
     9     4    29    2
    10    33    30    1
    11    22    41    1
    12    22     3    2
    13    41    43    1
    14     3    18    1
    15    29    30   ar
    16    29    42   ar
    17    30    31   ar
    18    20    21    2
    19    20    17    1
    20    18    17   ar
    21    18    40   ar
    22    42    43    1
    23    42    32   ar
    24    31    32   ar
    25    31    34    1
    26    43    40    1
    27    43    39    1
    28    17    16   ar
    29    40    15   ar
    30    32     1    2
    31    34    35    1
    32    16    15   ar
    33    16    19    1
    34    37    36   ar
    35    15     2    1
    36    35    36    1
    37     1     5    1
    38    39     5    2
    39    39     8    1
    40    36    38   ar
    41     5     6    1
    42     2     8    2
    43     8     7    1
    44     6     7    2
    45     6    10    1
    46     7     9    1
    47    10    11    1
    48    11    12    1
    49    12    14   ar
    50    12    13   ar
