@<TRIPOS>MOLECULE
3ld6_KKK_A_1.pdb
 36 40 0 0 0
SMALL
GASTEIGER

@<TRIPOS>ATOM
      1  C1        39.1250    3.9020   -3.7730 C.ar  602  KKK602      0.1788
      2  N1        40.3120    3.7010   -3.1550 N.ar  602  KKK602     -0.3025
      3  O1        40.9400    6.6610   -1.2370 O.3   602  KKK602     -0.3255
      4 CL1        42.6240    7.5830   -7.6390 Cl    602  KKK602     -0.0822
      5  C2        40.1650    2.4230   -4.8900 C.ar  602  KKK602      0.1193
      6  N2        39.0450    3.1430   -4.8150 N.ar  602  KKK602     -0.2223
      7  O2        42.8010    5.3500   -1.3640 O.3   602  KKK602     -0.3267
      8 CL2        43.8620    4.1810   -3.6170 Cl    602  KKK602     -0.0824
      9  C3        40.9680    2.7420   -3.8540 C.ar  602  KKK602      0.0982
     10  N3        43.4570    4.1770    6.8610 N.pl3 602  KKK602     -0.3041
     11  O3        41.9600    5.3380    1.5750 O.3   602  KKK602     -0.4727
     12  C4        40.7570    4.3390   -1.9180 C.3   602  KKK602      0.1682
     13  N4        43.9790    3.6750    9.4900 N.am  602  KKK602     -0.2760
     14  O4        42.9170    3.5650   11.4480 O.2   602  KKK602     -0.2749
     15  C5        41.5630    5.6290   -2.0010 C.3   602  KKK602      0.2296
     16  C6        41.7300    6.9820   -0.1050 C.3   602  KKK602      0.1909
     17  C7        43.0510    6.2770   -0.3100 C.3   602  KKK602      0.1783
     18  C8        41.8210    6.1010   -3.3970 C.ar  602  KKK602      0.0409
     19  C9        42.8210    5.5300   -4.1840 C.ar  602  KKK602      0.0591
     20  C10       43.0470    5.9830   -5.4770 C.ar  602  KKK602      0.0226
     21  C11       42.2880    7.0250   -5.9730 C.ar  602  KKK602      0.0585
     22  C12       41.2880    7.6050   -5.1970 C.ar  602  KKK602      0.0113
     23  C13       41.0530    7.1410   -3.9060 C.ar  602  KKK602      0.0022
     24  C14       41.0860    6.3570    1.1130 C.3   602  KKK602      0.2374
     25  C15       42.2920    5.0940    2.8870 C.ar  602  KKK602      0.1388
     26  C16       43.6350    4.9780    3.2230 C.ar  602  KKK602      0.0382
     27  C17       44.0130    4.6860    4.5320 C.ar  602  KKK602      0.0176
     28  C18       43.0550    4.5160    5.5330 C.ar  602  KKK602      0.0481
     29  C19       41.7050    4.6020    5.1750 C.ar  602  KKK602      0.0176
     30  C20       41.3230    4.9000    3.8650 C.ar  602  KKK602      0.0382
     31  C21       44.4720    5.0130    7.5300 C.3   602  KKK602      0.1123
     32  C22       45.0890    4.1620    8.6540 C.3   602  KKK602      0.1148
     33  C23       42.9310    2.9140    8.8080 C.3   602  KKK602      0.1148
     34  C24       42.3480    3.8950    7.7940 C.3   602  KKK602      0.1123
     35  C25       43.8670    3.9620   10.7920 C.2   602  KKK602      0.2262
     36  C26       44.9670    4.7700   11.4300 C.3   602  KKK602      0.0948
@<TRIPOS>BOND
     1     4    21    1
     2    21    20   ar
     3    21    22   ar
     4    20    19   ar
     5    22    23   ar
     6     5     6   ar
     7     5     9   ar
     8     6     1   ar
     9    19     8    1
    10    19    18   ar
    11    23    18   ar
    12     9     2   ar
    13     1     2   ar
    14    18    15    1
    15     2    12    1
    16    15    12    1
    17    15     7    1
    18    15     3    1
    19     7    17    1
    20     3    16    1
    21    17    16    1
    22    16    24    1
    23    24    11    1
    24    11    25    1
    25    25    26   ar
    26    25    30   ar
    27    26    27   ar
    28    30    29   ar
    29    27    28   ar
    30    29    28   ar
    31    28    10    1
    32    10    31    1
    33    10    34    1
    34    31    32    1
    35    34    33    1
    36    32    13    1
    37    33    13    1
    38    13    35   am
    39    35    36    1
    40    35    14    2
