@<TRIPOS>MOLECULE
3ldf_SAH_A_1.pdb
 26 28 0 0 0
SMALL
GASTEIGER

@<TRIPOS>ATOM
      1  N         32.2810   -6.7990   10.3430 N.3   401  SAH401     -0.1208
      2  CA        31.2910   -7.2540    9.3140 C.3   401  SAH401      0.1952
      3  CB        29.8430   -7.2800    9.9050 C.3   401  SAH401      0.0422
      4  CG        29.6300   -8.4360   10.9470 C.3   401  SAH401      0.0597
      5  SD        28.0690   -9.3070   10.7300 S.3   401  SAH401     -0.1375
      6  C         31.5080   -6.3740    8.1210 C.2   401  SAH401      0.3819
      7  O         32.4990   -5.5860    8.1070 O.co2 401  SAH401     -0.2441
      8  OXT       30.6810   -6.4090    7.1740 O.co2 401  SAH401     -0.2441
      9  C5'       28.3270  -10.6500   11.8940 C.3   401  SAH401      0.0899
     10  C4'       29.1580  -11.8370   11.3480 C.3   401  SAH401      0.1630
     11  O4'       29.8360  -12.5220   12.4160 O.3   401  SAH401     -0.3153
     12  C3'       28.3380  -12.9300   10.6260 C.3   401  SAH401      0.2168
     13  O3'       28.9050  -13.0580    9.3270 O.3   401  SAH401     -0.2175
     14  C2'       28.6070  -14.2470   11.3500 C.3   401  SAH401      0.2569
     15  O2'       28.9150  -15.2830   10.4020 O.3   401  SAH401     -0.2130
     16  C1'       29.9170  -13.9290   12.1000 C.3   401  SAH401      0.3185
     17  N9        30.1950  -14.6780   13.3670 N.pl3 401  SAH401     -0.1439
     18  C8        29.3790  -14.8070   14.4780 C.3   401  SAH401      0.3377
     19  N7        30.0200  -15.5110   15.4540 N.2   401  SAH401     -0.2095
     20  C5        31.2590  -15.8290   14.9760 C.2   401  SAH401      0.2526
     21  C6        32.4510  -16.5350   15.4750 C.2   401  SAH401      0.4393
     22  N6        32.4390  -17.0670   16.7330 N.pl3 401  SAH401      0.2180
     23  N1        33.5560  -16.6100   14.6650 N.2   401  SAH401      0.0021
     24  C2        33.5820  -16.0930   13.4140 C.3   401  SAH401      0.5254
     25  N3        32.5360  -15.4230   12.9030 N.2   401  SAH401     -0.0055
     26  C4        31.3660  -15.2780   13.6090 C.2   401  SAH401      0.3518
@<TRIPOS>BOND
     1     8     6   ar
     2     7     6   ar
     3     6     2    1
     4     2     3    1
     5     2     1    1
     6    13    12    1
     7     3     4    1
     8    15    14    1
     9    12    10    1
    10    12    14    1
    11     5     4    1
    12     5     9    1
    13    10     9    1
    14    10    11    1
    15    14    16    1
    16    16    11    1
    17    16    17    1
    18    25    24    1
    19    25    26    2
    20    17    26    1
    21    17    18    1
    22    24    23    1
    23    26    20    1
    24    18    19    1
    25    23    21    2
    26    20    19    2
    27    20    21    1
    28    21    22    1
