@<TRIPOS>MOLECULE
3ldg_SAH_A_1.pdb
 26 28 0 0 0
SMALL
GASTEIGER

@<TRIPOS>ATOM
      1  N         68.0880   72.1500   36.8330 N.3   385  SAH385     -0.1208
      2  CA        69.1990   71.3470   36.3040 C.3   385  SAH385      0.1952
      3  CB        70.1200   70.8100   37.4060 C.3   385  SAH385      0.0422
      4  CG        70.4940   71.8370   38.4860 C.3   385  SAH385      0.0597
      5  SD        71.5370   71.0860   39.7800 S.3   385  SAH385     -0.1375
      6  C         68.7590   70.2370   35.3330 C.2   385  SAH385      0.3819
      7  O         69.6030   69.6060   34.7040 O.co2 385  SAH385     -0.2441
      8  OXT       67.5700   69.9470   35.1400 O.co2 385  SAH385     -0.2441
      9  C5'       72.5130   72.5520   40.1160 C.3   385  SAH385      0.0899
     10  C4'       73.5780   72.8520   39.0580 C.3   385  SAH385      0.1630
     11  O4'       74.3030   73.9930   39.4850 O.3   385  SAH385     -0.3153
     12  C3'       74.5970   71.7360   38.8160 C.3   385  SAH385      0.2168
     13  O3'       74.5690   71.3120   37.4380 O.3   385  SAH385     -0.2175
     14  C2'       75.9290   72.3840   39.2150 C.3   385  SAH385      0.2569
     15  O2'       77.0320   72.0170   38.4270 O.3   385  SAH385     -0.2130
     16  C1'       75.6250   73.8700   39.0320 C.3   385  SAH385      0.3185
     17  N9        76.4930   74.7790   39.7830 N.pl3 385  SAH385     -0.1439
     18  C8        76.9760   74.5960   41.0560 C.3   385  SAH385      0.3377
     19  N7        77.7330   75.6700   41.3750 N.2   385  SAH385     -0.2095
     20  C5        77.7530   76.5410   40.3260 C.2   385  SAH385      0.2526
     21  C6        78.3750   77.7830   40.1180 C.2   385  SAH385      0.4393
     22  N6        79.1440   78.3700   41.0590 N.pl3 385  SAH385      0.2180
     23  N1        78.1900   78.4230   38.9010 N.2   385  SAH385      0.0021
     24  C2        77.4080   77.8590   37.9100 C.3   385  SAH385      0.5254
     25  N3        76.8000   76.6260   38.1280 N.2   385  SAH385     -0.0055
     26  C4        76.9720   75.9820   39.3150 C.2   385  SAH385      0.3518
@<TRIPOS>BOND
     1     7     6   ar
     2     8     6   ar
     3     6     2    1
     4     2     1    1
     5     2     3    1
     6     3     4    1
     7    13    12    1
     8    24    25    1
     9    24    23    1
    10    25    26    2
    11    15    14    1
    12     4     5    1
    13    12    10    1
    14    12    14    1
    15    23    21    2
    16    16    14    1
    17    16    11    1
    18    16    17    1
    19    10    11    1
    20    10     9    1
    21    26    17    1
    22    26    20    1
    23     5     9    1
    24    17    18    1
    25    21    20    1
    26    21    22    1
    27    20    19    2
    28    18    19    1
