@<TRIPOS>MOLECULE
3ldh_NAD_A_1.pdb
 44 48 0 0 0
SMALL
GASTEIGER

@<TRIPOS>ATOM
      1  PA         5.0000   28.6000    7.6000 P.3   332  NAD332      0.2189
      2  O1A        4.6000   30.0000    7.0000 O.2   332  NAD332     -0.5170
      3  O2A        6.3000   28.9000    8.3000 O.3   332  NAD332     -0.4371
      4  O5B        3.9000   28.2000    8.7000 O.3   332  NAD332     -0.3112
      5  C5B        4.5000   27.9000   10.0000 C.3   332  NAD332      0.1813
      6  C4B        3.4000   27.1000   10.8000 C.3   332  NAD332      0.1821
      7  O4B        4.1000   26.5000   12.0000 O.3   332  NAD332     -0.3135
      8  C3B        2.2000   27.8000   11.4000 C.3   332  NAD332      0.2184
      9  O3B        1.2000   28.2000   10.5000 O.3   332  NAD332     -0.2174
     10  C2B        1.8000   26.8000   12.4000 C.3   332  NAD332      0.2570
     11  O2B        1.2000   25.6000   11.8000 O.3   332  NAD332     -0.2130
     12  C1B        3.1000   26.3000   13.0000 C.3   332  NAD332      0.3186
     13  N9A        3.6000   27.2000   14.2000 N.pl3 332  NAD332     -0.1439
     14  C8A        4.2000   28.4000   14.1000 C.3   332  NAD332      0.3377
     15  N7A        4.2000   29.0000   15.3000 N.2   332  NAD332     -0.2095
     16  C5A        3.7000   28.1000   16.2000 C.2   332  NAD332      0.2526
     17  C6A        3.4000   28.1000   17.6000 C.2   332  NAD332      0.4393
     18  N6A        3.8000   29.1000   18.4000 N.pl3 332  NAD332      0.2180
     19  N1A        2.7000   27.0000   18.1000 N.2   332  NAD332      0.0021
     20  C2A        2.4000   26.0000   17.3000 C.3   332  NAD332      0.5254
     21  N3A        2.6000   25.9000   16.0000 N.2   332  NAD332     -0.0055
     22  C4A        3.2000   27.0000   15.5000 C.2   332  NAD332      0.3518
     23  O3         5.2000   27.4000    6.5000 O.3   332  NAD332     -0.2703
     24  PN         6.3000   26.9000    5.5000 P.3   332  NAD332      0.2189
     25  O1N        6.5000   28.0000    4.5000 O.2   332  NAD332     -0.5170
     26  O2N        6.0000   25.7000    4.9000 O.3   332  NAD332     -0.4371
     27  O5D        7.7000   26.8000    6.3000 O.3   332  NAD332     -0.3112
     28  C5D        7.9000   25.6000    7.0000 C.3   332  NAD332      0.1813
     29  C4D        9.2000   25.7000    7.9000 C.3   332  NAD332      0.1799
     30  O4D        9.6000   24.4000    8.4000 O.3   332  NAD332     -0.3327
     31  C3D       10.5000   26.3000    7.2000 C.3   332  NAD332      0.2158
     32  O3D       10.5000   27.6000    7.0000 O.3   332  NAD332     -0.2175
     33  C2D       11.5000   25.8000    8.3000 C.3   332  NAD332      0.2309
     34  O2D       11.4000   26.5000    9.5000 O.3   332  NAD332     -0.2158
     35  C1D       11.0000   24.4000    8.6000 C.3   332  NAD332      0.2263
     36  N1N       11.5000   23.3000    7.6000 N.pl3 332  NAD332     -0.2787
     37  C2N       12.5000   22.6000    8.3000 C.3   332  NAD332      0.1244
     38  C3N       13.1000   21.5000    7.8000 C.2   332  NAD332      0.0544
     39  C7N       14.0000   20.8000    8.8000 C.2   332  NAD332      0.2818
     40  O7N       14.6000   19.8000    8.3000 O.2   332  NAD332     -0.2670
     41  N7N       14.0000   21.1000   10.0000 N.am  332  NAD332     -0.0839
     42  C4N       12.8000   21.0000    6.4000 C.2   332  NAD332      0.0033
     43  C5N       11.7000   21.8000    5.8000 C.2   332  NAD332      0.0157
     44  C6N       11.2000   22.9000    6.3000 C.2   332  NAD332      0.0633
@<TRIPOS>BOND
     1    25    24    2
     2    26    24    1
     3    24    27    1
     4    24    23    1
     5    43    44    2
     6    43    42    1
     7    44    36    1
     8    27    28    1
     9    42    38    2
    10    23     1    1
    11     2     1    2
    12    28    29    1
    13    32    31    1
    14    31    29    1
    15    31    33    1
    16    36    37    1
    17    36    35    1
    18     1     3    1
    19     1     4    1
    20    38    37    1
    21    38    39    1
    22    29    30    1
    23    40    39    2
    24    33    35    1
    25    33    34    1
    26    30    35    1
    27     4     5    1
    28    39    41   am
    29     5     6    1
    30     9     8    1
    31     6     8    1
    32     6     7    1
    33     8    10    1
    34    11    10    1
    35     7    12    1
    36    10    12    1
    37    12    13    1
    38    14    13    1
    39    14    15    1
    40    13    22    1
    41    15    16    2
    42    22    21    2
    43    22    16    1
    44    21    20    1
    45    16    17    1
    46    20    19    1
    47    17    19    2
    48    17    18    1
