@<TRIPOS>MOLECULE
3ldk_SUC_A_1.pdb
 23 24 0 0 0
SMALL
GASTEIGER

@<TRIPOS>ATOM
      1  C1        85.8590   16.4760   58.6890 C.3     1  SUC1        0.2713
      2  C2        86.1580   17.9200   58.1960 C.3     1  SUC1        0.2406
      3  C3        87.4220   17.9000   57.3040 C.3     1  SUC1        0.2198
      4  C4        88.5920   17.3880   58.1220 C.3     1  SUC1        0.2144
      5  C5        88.2660   15.9820   58.6060 C.3     1  SUC1        0.1835
      6  C6        89.4670   15.5190   59.4440 C.3     1  SUC1        0.2142
      7  O1        85.5000   15.6220   57.5790 O.3     1  SUC1       -0.3033
      8  O2        85.0390   18.4100   57.4430 O.3     1  SUC1       -0.2149
      9  O3        87.7160   19.2070   56.8750 O.3     1  SUC1       -0.2174
     10  O4        89.7840   17.3500   57.3030 O.3     1  SUC1       -0.2176
     11  O5        87.0430   15.9870   59.4320 O.3     1  SUC1       -0.3256
     12  O6        89.9120   15.0280   60.7030 O.3     1  SUC1       -0.2176
     13  C1'       83.0020   15.4860   57.6040 C.3     1  SUC1        0.2406
     14  C2'       84.3950   14.8960   57.9310 C.3     1  SUC1        0.2516
     15  C3'       84.6160   13.6060   57.1080 C.3     1  SUC1        0.2381
     16  C4'       85.5170   12.7930   58.0640 C.3     1  SUC1        0.2167
     17  C5'       84.7870   13.1160   59.3950 C.3     1  SUC1        0.1835
     18  C6'       85.7240   12.8570   60.5800 C.3     1  SUC1        0.2142
     19  O1'       82.7450   16.6630   58.3570 O.3     1  SUC1       -0.2149
     20  O2'       84.4790   14.5040   59.3060 O.3     1  SUC1       -0.3272
     21  O3'       85.2940   13.8980   55.8870 O.3     1  SUC1       -0.2150
     22  O4'       85.4570   11.3980   57.7600 O.3     1  SUC1       -0.2175
     23  O6'       85.0520   13.1730   61.7980 O.3     1  SUC1       -0.2176
@<TRIPOS>BOND
     1    21    15    1
     2     9     3    1
     3    15    14    1
     4    15    16    1
     5    10     4    1
     6     3     4    1
     7     3     2    1
     8     8     2    1
     9     7    14    1
    10     7     1    1
    11    13    14    1
    12    13    19    1
    13    22    16    1
    14    14    20    1
    15    16    17    1
    16     4     5    1
    17     2     1    1
    18     5    11    1
    19     5     6    1
    20     1    11    1
    21    20    17    1
    22    17    18    1
    23     6    12    1
    24    18    23    1
