@<TRIPOS>MOLECULE
3ldl_ATP_A_1.pdb
 31 33 0 0 0
SMALL
GASTEIGER

@<TRIPOS>ATOM
      1  PG        20.0060    1.7630    4.2640 P.3   408  ATP408      0.5373
      2  O1G       18.6210    2.3120    4.4670 O.3   408  ATP408     -0.1143
      3  O2G       20.5160    1.0480    5.4860 O.3   408  ATP408     -0.1143
      4  O3G       21.0250    2.6580    3.6010 O.2   408  ATP408     -0.2221
      5  PB        20.8320   -0.3700    2.4460 P.3   408  ATP408      0.2277
      6  O1B       20.7340   -0.2490    0.9230 O.2   408  ATP408     -0.5168
      7  O2B       22.1410   -0.0870    3.1150 O.3   408  ATP408     -0.4368
      8  O3B       19.7390    0.6340    3.1180 O.3   408  ATP408     -0.2258
      9  PA        19.1490   -2.8470    2.3450 P.3   408  ATP408      0.2189
     10  O1A       19.9120   -4.0330    1.7850 O.3   408  ATP408     -0.4371
     11  O2A       18.0420   -2.2260    1.5380 O.2   408  ATP408     -0.5170
     12  O3A       20.2660   -1.7960    2.9400 O.3   408  ATP408     -0.2700
     13  O5'       18.4580   -3.2440    3.7390 O.3   408  ATP408     -0.3112
     14  C5'       19.1320   -4.0020    4.7280 C.3   408  ATP408      0.1813
     15  C4'       18.1260   -4.4660    5.7970 C.3   408  ATP408      0.1821
     16  O4'       17.1270   -5.3100    5.2480 O.3   408  ATP408     -0.3135
     17  C3'       18.8210   -5.2860    6.8610 C.3   408  ATP408      0.2184
     18  O3'       18.3990   -4.7580    8.1110 O.3   408  ATP408     -0.2174
     19  C2'       18.3620   -6.7230    6.6900 C.3   408  ATP408      0.2570
     20  O2'       18.2330   -7.3970    7.9480 O.3   408  ATP408     -0.2130
     21  C1'       16.9990   -6.5240    6.0340 C.3   408  ATP408      0.3186
     22  N9        16.5760   -7.7160    5.2320 N.pl3 408  ATP408     -0.1439
     23  C8        17.2130   -8.2540    4.1650 C.3   408  ATP408      0.3377
     24  N7        16.5190   -9.3150    3.7010 N.2   408  ATP408     -0.2095
     25  C5        15.4050   -9.4760    4.4420 C.2   408  ATP408      0.2526
     26  C6        14.2350  -10.4070    4.4910 C.2   408  ATP408      0.4393
     27  N6        14.0940  -11.4200    3.6240 N.pl3 408  ATP408      0.2180
     28  N1        13.2940  -10.2240    5.4180 N.2   408  ATP408      0.0021
     29  C2        13.3770   -9.2120    6.3080 C.3   408  ATP408      0.5254
     30  N3        14.3970   -8.3310    6.3380 N.2   408  ATP408     -0.0055
     31  C4        15.4390   -8.4100    5.4510 C.2   408  ATP408      0.3518
@<TRIPOS>BOND
     1     6     5    2
     2    11     9    2
     3    10     9    1
     4     9    12    1
     5     9    13    1
     6     5    12    1
     7     5     7    1
     8     5     8    1
     9     8     1    1
    10     4     1    2
    11    27    26    1
    12    24    23    1
    13    24    25    2
    14    13    14    1
    15    23    22    1
    16     1     2    1
    17     1     3    1
    18    25    26    1
    19    25    31    1
    20    26    28    2
    21    14    15    1
    22    22    31    1
    23    22    21    1
    24    16    15    1
    25    16    21    1
    26    28    29    1
    27    31    30    2
    28    15    17    1
    29    21    19    1
    30    29    30    1
    31    19    17    1
    32    19    20    1
    33    17    18    1
