@<TRIPOS>MOLECULE
3ldo_ANP_A_1.pdb
 31 33 0 0 0
SMALL
GASTEIGER

@<TRIPOS>ATOM
      1  PG        19.8550    1.9110    3.9390 P.3   408  ANP408      0.4884
      2  O1G       18.5590    2.4910    4.3670 O.3   408  ANP408     -0.1240
      3  O2G       20.3970    1.0990    5.2480 O.3   408  ANP408     -0.1240
      4  O3G       20.8360    2.9470    3.4590 O.2   408  ANP408     -0.2331
      5  PB        20.6380   -0.2190    2.1820 P.3   408  ANP408      0.4669
      6  O1B       20.5570   -0.2590    0.6740 O.2   408  ANP408     -0.2351
      7  O2B       21.9670    0.0680    2.8320 O.3   408  ANP408     -0.1253
      8  N3B       19.4190    0.8130    2.7660 N.3   408  ANP408     -0.0163
      9  PA        19.0990   -2.6540    2.1150 P.3   408  ANP408      0.2220
     10  O1A       19.8020   -3.8060    1.5190 O.3   408  ANP408     -0.4370
     11  O2A       18.1010   -1.8970    1.2910 O.2   408  ANP408     -0.5170
     12  O3A       20.1960   -1.6520    2.7600 O.3   408  ANP408     -0.2360
     13  O5'       18.3450   -3.1500    3.4190 O.3   408  ANP408     -0.3111
     14  C5'       19.0320   -3.7380    4.4650 C.3   408  ANP408      0.1813
     15  C4'       18.0780   -4.2740    5.4650 C.3   408  ANP408      0.1821
     16  O4'       17.1770   -5.2560    4.7570 O.3   408  ANP408     -0.3135
     17  C3'       18.8440   -5.1020    6.5280 C.3   408  ANP408      0.2184
     18  O3'       18.3610   -4.7350    7.8420 O.3   408  ANP408     -0.2174
     19  C2'       18.4520   -6.5280    6.2140 C.3   408  ANP408      0.2570
     20  O2'       18.4310   -7.3100    7.4360 O.3   408  ANP408     -0.2130
     21  C1'       17.0410   -6.3530    5.6620 C.3   408  ANP408      0.3186
     22  N9        16.5640   -7.5690    4.9100 N.pl3 408  ANP408     -0.1439
     23  C8        17.1320   -8.1030    3.8120 C.3   408  ANP408      0.3377
     24  N7        16.4140   -9.1830    3.4380 N.2   408  ANP408     -0.2095
     25  C5        15.3710   -9.2920    4.2620 C.2   408  ANP408      0.2526
     26  C6        14.3280  -10.2080    4.3430 C.2   408  ANP408      0.4393
     27  N6        14.2360  -11.2070    3.4650 N.pl3 408  ANP408      0.2180
     28  N1        13.3870  -10.0690    5.3310 N.2   408  ANP408      0.0021
     29  C2        13.4930   -9.0090    6.2560 C.3   408  ANP408      0.5254
     30  N3        14.5170   -8.1490    6.1800 N.2   408  ANP408     -0.0055
     31  C4        15.4600   -8.2720    5.1910 C.2   408  ANP408      0.3518
@<TRIPOS>BOND
     1     6     5    2
     2    11     9    2
     3    10     9    1
     4     9    12    1
     5     9    13    1
     6     5    12    1
     7     5     8    1
     8     5     7    1
     9     8     1    1
    10    13    14    1
    11    24    23    1
    12    24    25    2
    13     4     1    2
    14    27    26    1
    15    23    22    1
    16     1     2    1
    17     1     3    1
    18    25    26    1
    19    25    31    1
    20    26    28    2
    21    14    15    1
    22    16    15    1
    23    16    21    1
    24    22    31    1
    25    22    21    1
    26    31    30    2
    27    28    29    1
    28    15    17    1
    29    21    19    1
    30    30    29    1
    31    19    17    1
    32    19    20    1
    33    17    18    1
