@<TRIPOS>MOLECULE
3ldp_3P1_A_1.pdb
 31 35 0 0 0
SMALL
GASTEIGER

@<TRIPOS>ATOM
      1  N1        12.5140  -10.0740    6.0020 N.2   408  3P1408      0.0031
      2  C2        12.6290   -9.0420    6.8560 C.3   408  3P1408      0.5255
      3  N3        13.7050   -8.2470    6.8200 N.2   408  3P1408     -0.0038
      4  C4        13.4760  -10.3220    5.0870 C.2   408  3P1408      0.4517
      5  N5        15.8380   -7.8660    5.6790 N.pl3 408  3P1408     -0.1034
      6  C6        16.4530   -8.4880    4.6510 C.cat 408  3P1408      0.3578
      7  N7        15.6780   -9.5230    4.2610 N.2   408  3P1408     -0.3358
      8  C8        14.5850   -9.5250    5.0400 C.2   408  3P1408      0.3078
      9  C9        14.6970   -8.4840    5.9250 C.2   408  3P1408      0.3701
     10  C10       16.3230   -6.7200    6.3670 C.3   408  3P1408      0.3245
     11  O11       16.8270   -5.7790    5.4060 O.3   408  3P1408     -0.3131
     12  C12       17.7450   -4.9130    6.1840 C.3   408  3P1408      0.1851
     13  C13       18.2160   -5.7800    7.3690 C.3   408  3P1408      0.2186
     14  C14       17.5380   -7.1120    7.1410 C.3   408  3P1408      0.2574
     15  N15       13.3450  -11.3340    4.2410 N.pl3 408  3P1408      0.2193
     16  N16       17.6380   -8.1360    4.1250 N.pl3 408  3P1408     -0.1665
     17  C17       18.2690   -8.9520    3.1070 C.3   408  3P1408      0.1768
     18  C18       19.2080   -9.9480    3.7600 C.2   408  3P1408      0.1306
     19  N19       19.1250  -11.2680    3.4300 N.2   408  3P1408     -0.4084
     20  C20       21.0120  -10.4400    5.2630 C.2   408  3P1408      0.0046
     21  C21       20.1530   -9.5160    4.6690 C.2   408  3P1408      0.0294
     22  C22       20.9080  -11.7860    4.9270 C.2   408  3P1408      0.0258
     23  C23       19.9600  -12.1890    4.0010 C.2   408  3P1408      0.1129
     24  C24       19.8530  -13.5510    3.6480 C.3   408  3P1408      0.0849
     25  C25       20.7060  -14.4930    4.2300 C.2   408  3P1408     -0.0187
     26  C26       21.6640  -14.0850    5.1590 C.2   408  3P1408     -0.0041
     27  C27       21.7650  -12.7250    5.5080 C.2   408  3P1408      0.0019
     28  C28       18.9660   -4.5700    5.3240 C.3   408  3P1408      0.2143
     29  O29       19.4990   -5.7730    4.7270 O.3   408  3P1408     -0.2176
     30  O30       17.7500   -5.2120    8.5750 O.3   408  3P1408     -0.2174
     31  O31       17.1410   -7.6950    8.4150 O.3   408  3P1408     -0.2130
@<TRIPOS>BOND
     1    17    18    1
     2    17    16    1
     3    19    18    2
     4    19    23    2
     5    24    23    1
     6    24    25    1
     7    18    21    1
     8    23    22    1
     9    16     6    1
    10    25    26    2
    11    15     4    1
    12     7     6    2
    13     7     8    2
    14     6     5    1
    15    21    20    2
    16    29    28    1
    17    22    20    1
    18    22    27    2
    19     8     4    1
    20     8     9    1
    21     4     1    2
    22    26    27    1
    23    28    12    1
    24    11    12    1
    25    11    10    1
    26     5     9    1
    27     5    10    1
    28     9     3    2
    29     1     2    1
    30    12    13    1
    31    10    14    1
    32     3     2    1
    33    14    13    1
    34    14    31    1
    35    13    30    1
