@<TRIPOS>MOLECULE
3ldq_3P1_A_1.pdb
 31 35 0 0 0
SMALL
GASTEIGER

@<TRIPOS>ATOM
      1  N1        18.0700   -5.5890   -2.7520 N.2   401  3P1401      0.0031
      2  C2        16.8300   -5.6940   -2.2740 C.3   401  3P1401      0.5255
      3  N3        16.4460   -5.0110   -1.2130 N.2   401  3P1401     -0.0038
      4  C4        18.9780   -4.8550   -2.1280 C.2   401  3P1401      0.4517
      5  N5        17.1800   -3.5050    0.5480 N.pl3 401  3P1401     -0.1034
      6  C6        18.3790   -2.9190    0.8020 C.cat 401  3P1401      0.3578
      7  N7        19.2500   -3.3100   -0.1780 N.2   401  3P1401     -0.3358
      8  C8        18.6030   -4.1410   -0.9900 C.2   401  3P1401      0.3078
      9  C9        17.3120   -4.2410   -0.5520 C.2   401  3P1401      0.3701
     10  C10       15.9390   -3.3990    1.3400 C.3   401  3P1401      0.3245
     11  O11       15.6050   -2.0170    1.5780 O.3   401  3P1401     -0.3131
     12  C12       14.8200   -1.9880    2.8400 C.3   401  3P1401      0.1851
     13  C13       15.0110   -3.3820    3.5070 C.3   401  3P1401      0.2186
     14  C14       16.1320   -3.9910    2.7290 C.3   401  3P1401      0.2574
     15  N15       20.2550   -4.8090   -2.5980 N.pl3 401  3P1401      0.2193
     16  N16       18.6600   -2.0640    1.8260 N.pl3 401  3P1401     -0.1665
     17  C17       20.0400   -1.5640    2.0260 C.3   401  3P1401      0.1768
     18  C18       20.8410   -2.5330    2.9670 C.2   401  3P1401      0.1306
     19  N19       22.1870   -2.6730    2.8030 N.2   401  3P1401     -0.4084
     20  C20       20.9110   -4.0590    4.8280 C.2   401  3P1401      0.0046
     21  C21       20.1860   -3.2260    3.9900 C.2   401  3P1401      0.0294
     22  C22       22.2840   -4.1790    4.6500 C.2   401  3P1401      0.0258
     23  C23       22.9100   -3.4890    3.6210 C.2   401  3P1401      0.1129
     24  C24       24.3000   -3.6340    3.4210 C.3   401  3P1401      0.0849
     25  C25       25.0470   -4.4660    4.2600 C.2   401  3P1401     -0.0187
     26  C26       24.4140   -5.1660    5.2820 C.2   401  3P1401     -0.0041
     27  C27       23.0320   -5.0190    5.4860 C.2   401  3P1401      0.0019
     28  C28       15.4350   -0.8720    3.7230 C.3   401  3P1401      0.2143
     29  O29       16.8340   -1.1170    3.8910 O.3   401  3P1401     -0.2176
     30  O30       13.7910   -4.1650    3.3450 O.3   401  3P1401     -0.2174
     31  O31       16.0000   -5.4340    2.6790 O.3   401  3P1401     -0.2130
@<TRIPOS>BOND
     1     1     2    1
     2     1     4    2
     3    15     4    1
     4     2     3    1
     5     4     8    1
     6     3     9    2
     7     8     9    1
     8     8     7    2
     9     9     5    1
    10     7     6    2
    11     5     6    1
    12     5    10    1
    13     6    16    1
    14    10    11    1
    15    10    14    1
    16    11    12    1
    17    16    17    1
    18    17    18    1
    19    31    14    1
    20    14    13    1
    21    19    18    2
    22    19    23    2
    23    12    13    1
    24    12    28    1
    25    18    21    1
    26    30    13    1
    27    24    23    1
    28    24    25    1
    29    23    22    1
    30    28    29    1
    31    21    20    2
    32    25    26    2
    33    22    20    1
    34    22    27    2
    35    26    27    1
