@<TRIPOS>MOLECULE
3ldr_DQR_A_1.pdb
 34 36 0 0 0
SMALL
GASTEIGER

@<TRIPOS>ATOM
      1  C1        86.1570   17.4580   61.2390 C.3   3168  DQR3168     0.2713
      2  C10       85.6180   16.0590   58.4760 C.3   3168  DQR3168     0.2034
      3  C11       82.4170   15.1320   57.4260 C.3   3168  DQR3168     0.2406
      4  C2        85.0580   18.3230   61.9830 C.3   3168  DQR3168     0.2406
      5  C20       86.8070   16.8600   58.9340 C.3   3168  DQR3168     0.2483
      6  C21       83.8290   14.5680   57.5810 C.3   3168  DQR3168     0.2499
      7  C3        85.5790   19.7680   62.0180 C.3   3168  DQR3168     0.2198
      8  C30       87.5490   17.4150   57.6810 C.3   3168  DQR3168     0.2380
      9  C31       84.1670   13.3380   56.7130 C.3   3168  DQR3168     0.2381
     10  C4        86.9190   19.7880   62.8010 C.3   3168  DQR3168     0.2144
     11  C40       89.0220   17.2080   58.0870 C.3   3168  DQR3168     0.2167
     12  C41       85.1270   12.5500   57.7150 C.3   3168  DQR3168     0.2167
     13  C5        87.9290   18.8810   62.0560 C.3   3168  DQR3168     0.1835
     14  C50       88.9120   15.8330   58.8100 C.3   3168  DQR3168     0.1835
     15  C51       84.3760   12.8300   59.0270 C.3   3168  DQR3168     0.1835
     16  C6        89.2340   18.8700   62.8250 C.3   3168  DQR3168     0.2142
     17  C60       90.0900   15.6730   59.7590 C.3   3168  DQR3168     0.2142
     18  C61       85.2720   12.6440   60.2020 C.3   3168  DQR3168     0.2142
     19  O1        86.4140   17.9570   59.8580 O.3   3168  DQR3168    -0.3034
     20  O10       84.6900   15.7420   57.3070 O.3   3168  DQR3168    -0.3249
     21  O11       82.2670   16.2930   58.3380 O.3   3168  DQR3168    -0.2149
     22  O2        83.7900   18.2940   61.2530 O.3   3168  DQR3168    -0.2149
     23  O20       87.6920   15.8910   59.5460 O.3   3168  DQR3168    -0.3273
     24  O21       83.9460   14.1780   58.9550 O.3   3168  DQR3168    -0.3273
     25  O3        84.6230   20.5740   62.6780 O.3   3168  DQR3168    -0.2174
     26  O30       87.2850   18.8180   57.4840 O.3   3168  DQR3168    -0.2150
     27  O31       84.8490   13.7240   55.4850 O.3   3168  DQR3168    -0.2150
     28  O4        87.4240   21.1300   62.8400 O.3   3168  DQR3168    -0.2176
     29  O40       89.8610   17.0900   56.9270 O.3   3168  DQR3168    -0.2175
     30  O41       85.1130   11.1470   57.5060 O.3   3168  DQR3168    -0.2175
     31  O5        87.4190   17.5060   61.9910 O.3   3168  DQR3168    -0.3256
     32  O60       90.0790   15.2140   61.0820 O.3   3168  DQR3168    -0.2176
     33  O61       84.8970   13.3000   61.4250 O.3   3168  DQR3168    -0.2176
     34  O6        90.1330   18.0250   62.1180 O.3   3168  DQR3168    -0.2176
@<TRIPOS>BOND
     1    27     9    1
     2     9     6    1
     3     9    12    1
     4    29    11    1
     5    20     6    1
     6    20     2    1
     7     3     6    1
     8     3    21    1
     9    26     8    1
    10    30    12    1
    11     6    24    1
    12     8    11    1
    13     8     5    1
    14    12    15    1
    15    11    14    1
    16     2     5    1
    17    14    23    1
    18    14    17    1
    19     5    23    1
    20     5    19    1
    21    24    15    1
    22    15    18    1
    23    17    32    1
    24    19     1    1
    25    18    33    1
    26     1     4    1
    27     1    31    1
    28    22     4    1
    29     4     7    1
    30    31    13    1
    31     7    25    1
    32     7    10    1
    33    13    10    1
    34    13    16    1
    35    34    16    1
    36    10    28    1
