@<TRIPOS>MOLECULE
3lds_DTP_A_1.pdb
 30 32 0 0 0
SMALL
GASTEIGER

@<TRIPOS>ATOM
      1  PG         3.5220  -14.4460  -50.8050 P.3   904  DTP904      0.5373
      2  O1G        4.7630  -15.0370  -51.4420 O.3   904  DTP904     -0.1143
      3  O2G        3.1050  -15.1650  -49.5430 O.3   904  DTP904     -0.1143
      4  O3G        2.3950  -14.1700  -51.7630 O.2   904  DTP904     -0.2221
      5  PB         3.0810  -11.7610  -49.9400 P.3   904  DTP904      0.2277
      6  O1B        3.9680  -10.8730  -49.0740 O.3   904  DTP904     -0.4368
      7  O2B        2.5350  -11.2740  -51.2580 O.2   904  DTP904     -0.5168
      8  O3B        4.0500  -12.9820  -50.3660 O.3   904  DTP904     -0.2258
      9  PA         0.4200  -12.0640  -49.1370 P.3   904  DTP904      0.2189
     10  O1A       -0.3550  -12.5930  -47.9390 O.3   904  DTP904     -0.4371
     11  O2A       -0.0060  -12.4510  -50.5380 O.2   904  DTP904     -0.5170
     12  O3A        1.9640  -12.4440  -49.0070 O.3   904  DTP904     -0.2700
     13  O5'        0.4910  -10.4700  -48.9660 O.3   904  DTP904     -0.3112
     14  C5'       -0.0520   -9.5480  -49.8980 C.3   904  DTP904      0.1813
     15  C4'        0.5000   -8.1990  -49.4740 C.3   904  DTP904      0.1795
     16  O4'       -0.2640   -7.6820  -48.3810 O.3   904  DTP904     -0.3155
     17  C3'        1.9030   -8.3340  -48.9390 C.3   904  DTP904      0.1883
     18  O3'        2.8450   -8.2350  -50.0160 O.3   904  DTP904     -0.2202
     19  C2'        1.9870   -7.2040  -47.9330 C.3   904  DTP904      0.1151
     20  C1'        0.5630   -7.0610  -47.3980 C.3   904  DTP904      0.2873
     21  N9         0.5690   -7.8330  -46.1290 N.pl3 904  DTP904     -0.1460
     22  C8         0.1090   -9.0950  -45.9680 C.3   904  DTP904      0.3377
     23  N7         0.3080   -9.5410  -44.7000 N.2   904  DTP904     -0.2095
     24  C5         0.9260   -8.5490  -44.0290 C.2   904  DTP904      0.2526
     25  C6         1.4240   -8.3640  -42.6510 C.2   904  DTP904      0.4393
     26  N6         1.2780   -9.3730  -41.7660 N.pl3 904  DTP904      0.2180
     27  N1         2.0040   -7.1750  -42.3310 N.2   904  DTP904      0.0021
     28  C2         2.1390   -6.1830  -43.2430 C.3   904  DTP904      0.5254
     29  N3         1.7050   -6.2860  -44.5140 N.2   904  DTP904     -0.0055
     30  C4         1.0980   -7.4190  -44.9630 C.2   904  DTP904      0.3518
@<TRIPOS>BOND
     1     4     1    2
     2     2     1    1
     3     7     5    2
     4     1     8    1
     5     1     3    1
     6    11     9    2
     7     8     5    1
     8    18    17    1
     9     5     6    1
    10     5    12    1
    11    14    15    1
    12    14    13    1
    13    15    17    1
    14    15    16    1
    15     9    12    1
    16     9    13    1
    17     9    10    1
    18    17    19    1
    19    16    20    1
    20    19    20    1
    21    20    21    1
    22    21    22    1
    23    21    30    1
    24    22    23    1
    25    30    29    2
    26    30    24    1
    27    23    24    2
    28    29    28    1
    29    24    25    1
    30    28    27    1
    31    25    27    2
    32    25    26    1
