@<TRIPOS>MOLECULE
3ldu_GTP_A_1.pdb
 32 34 0 0 0
SMALL
GASTEIGER

@<TRIPOS>ATOM
      1  PG         3.7750   24.1270   28.8900 P.3   383  GTP383      0.5373
      2  O1G        2.2920   24.3070   28.6440 O.3   383  GTP383     -0.1143
      3  O2G        4.3490   23.3150   27.7610 O.2   383  GTP383     -0.2221
      4  O3G        4.4920   25.4570   28.9020 O.3   383  GTP383     -0.1143
      5  O3B        3.9640   23.3610   30.3050 O.3   383  GTP383     -0.2258
      6  PB         4.5330   24.1620   31.5880 P.3   383  GTP383      0.2277
      7  O1B        6.0060   23.8530   31.7070 O.3   383  GTP383     -0.4368
      8  O2B        4.3480   25.6470   31.4300 O.2   383  GTP383     -0.5168
      9  O3A        3.7970   23.6430   32.9300 O.3   383  GTP383     -0.2700
     10  PA         4.7640   23.3530   34.1980 P.3   383  GTP383      0.2189
     11  O1A        5.7230   24.5150   34.3410 O.3   383  GTP383     -0.4371
     12  O2A        5.5350   22.0690   34.0020 O.2   383  GTP383     -0.5170
     13  O5'        3.8600   23.3100   35.5230 O.3   383  GTP383     -0.3112
     14  C5'        2.5200   23.6530   35.3630 C.3   383  GTP383      0.1813
     15  C4'        2.3870   25.1560   35.5760 C.3   383  GTP383      0.1799
     16  O4'        1.4530   25.3030   36.6090 O.3   383  GTP383     -0.3326
     17  C3'        3.6350   25.9150   36.0330 C.3   383  GTP383      0.2158
     18  O3'        3.8940   26.9250   35.0820 O.3   383  GTP383     -0.2175
     19  C2'        3.2750   26.5620   37.3680 C.3   383  GTP383      0.2310
     20  O2'        3.5710   27.9440   37.4130 O.3   383  GTP383     -0.2158
     21  C1'        1.7720   26.4350   37.3770 C.3   383  GTP383      0.2293
     22  N9         1.1440   26.2370   38.6890 N.pl3 383  GTP383     -0.2354
     23  C8         1.6150   25.6750   39.8460 C.3   383  GTP383      0.2246
     24  N7         0.6080   25.7260   40.7600 N.2   383  GTP383     -0.2322
     25  C5        -0.4750   26.3170   40.1920 C.2   383  GTP383      0.2182
     26  C6        -1.7490   26.6200   40.6600 C.1   383  GTP383      0.2372
     27  O6        -2.0910   26.3500   41.8220 O.2   383  GTP383     -0.2069
     28  N1        -2.6320   27.2320   39.7950 N.2   383  GTP383     -0.2485
     29  C2        -2.2680   27.5390   38.4960 C.1   383  GTP383      0.2531
     30  N2        -3.1580   28.1120   37.7030 N.pl3 383  GTP383     -0.0226
     31  N3        -0.9920   27.2490   38.0200 N.2   383  GTP383     -0.3074
     32  C4        -0.1360   26.6400   38.8800 C.2   383  GTP383      0.2300
@<TRIPOS>BOND
     1     3     1    2
     2     2     1    1
     3     1     4    1
     4     1     5    1
     5     5     6    1
     6     8     6    2
     7     6     7    1
     8     6     9    1
     9     9    10    1
    10    12    10    2
    11    10    11    1
    12    10    13    1
    13    18    17    1
    14    14    13    1
    15    14    15    1
    16    15    17    1
    17    15    16    1
    18    17    19    1
    19    16    21    1
    20    19    21    1
    21    19    20    1
    22    21    22    1
    23    30    29    1
    24    31    29    2
    25    31    32    2
    26    29    28    2
    27    22    32    1
    28    22    23    1
    29    32    25    1
    30    28    26    2
    31    23    24    1
    32    25    26    1
    33    25    24    2
    34    26    27    2
