@<TRIPOS>MOLECULE
3ldw_ZOL_A_1.pdb
 16 16 0 0 0
SMALL
GASTEIGER

@<TRIPOS>ATOM
      1  O17      -11.4750   16.1690  -33.5400 O.3   397  ZOL397     -0.3552
      2  P14      -10.6940   15.0000  -33.9810 P.3   397  ZOL397      0.1531
      3  O16      -11.5900   13.6490  -33.9600 O.2   397  ZOL397     -0.4572
      4  O15       -9.4220   14.7030  -33.1100 O.3   397  ZOL397     -0.3552
      5  C8        -9.9630   15.0900  -35.6920 C.3   397  ZOL397      0.2364
      6  P9       -11.3500   15.2600  -36.8790 P.3   397  ZOL397      0.1531
      7  O10      -10.8570   15.2280  -38.2620 O.2   397  ZOL397     -0.4572
      8  O11      -12.3160   14.0040  -36.4970 O.3   397  ZOL397     -0.3552
      9  O12      -12.1610   16.5980  -36.5280 O.3   397  ZOL397     -0.3552
     10  O13       -9.3060   13.8520  -35.9840 O.3   397  ZOL397     -0.2088
     11  C7        -8.9720   16.2460  -35.7870 C.3   397  ZOL397      0.1520
     12  N15       -8.3860   16.4290  -37.1260 N.ar  397  ZOL397     -0.3043
     13  C16       -7.7890   15.4950  -37.8500 C.ar  397  ZOL397      0.1787
     14  N17       -7.3310   16.0830  -38.9490 N.ar  397  ZOL397     -0.2223
     15  C18       -7.6790   17.3700  -38.8980 C.ar  397  ZOL397      0.1193
     16  C19       -8.3070   17.5940  -37.7530 C.ar  397  ZOL397      0.0981
@<TRIPOS>BOND
     1    14    15   ar
     2    14    13   ar
     3    15    16   ar
     4     7     6    2
     5    13    12   ar
     6    16    12   ar
     7    12    11    1
     8     6     9    1
     9     6     8    1
    10     6     5    1
    11    10     5    1
    12    11     5    1
    13     5     2    1
    14     2     3    2
    15     2     1    1
    16     2     4    1
