@<TRIPOS>MOLECULE
3ldw_IPE_A_1.pdb
 14 13 0 0 0
SMALL
GASTEIGER

@<TRIPOS>ATOM
      1  C1        -5.7870   13.6990  -33.7090 C.3   1101  IPE1101     0.1535
      2  O1        -4.3950   13.3660  -33.7550 O.3   1101  IPE1101    -0.3135
      3  C2        -6.5740   12.7230  -34.5920 C.3   1101  IPE1101     0.0545
      4  C3        -6.2040   12.7880  -36.0590 C.2   1101  IPE1101    -0.0414
      5  C4        -5.2900   13.8530  -36.6200 C.3   1101  IPE1101     0.0264
      6  C5        -6.7020   11.8630  -36.8680 C.2   1101  IPE1101    -0.0090
      7  PA        -3.6610   12.5100  -32.5990 P.3   1101  IPE1101     0.2230
      8  O1A       -4.5530   11.3300  -32.2770 O.3   1101  IPE1101    -0.4370
      9  O2A       -2.2220   12.3190  -33.0400 O.2   1101  IPE1101    -0.5169
     10  O3A       -3.7280   13.4940  -31.3180 O.3   1101  IPE1101    -0.2261
     11  PB        -2.7270   13.5880  -30.0560 P.3   1101  IPE1101     0.5373
     12  O1B       -3.6920   13.8810  -28.9180 O.3   1101  IPE1101    -0.1143
     13  O2B       -1.9900   12.2850  -29.9010 O.3   1101  IPE1101    -0.1143
     14  O3B       -1.8400   14.7200  -30.4470 O.2   1101  IPE1101    -0.2221
@<TRIPOS>BOND
     1     6     4    2
     2     5     4    1
     3     4     3    1
     4     3     1    1
     5     2     1    1
     6     2     7    1
     7     9     7    2
     8     7     8    1
     9     7    10    1
    10    10    11    1
    11    14    11    2
    12    11    13    1
    13    11    12    1
