@<TRIPOS>MOLECULE
3ldx_NLI_H_1.pdb
 30 31 0 0 0
SMALL
GASTEIGER

@<TRIPOS>ATOM
      1  C01       20.1720  -13.2440   20.0340 C.3     1  NLI1        0.0518
      2  C02       19.2340  -14.0380   20.9210 C.ar    1  NLI1        0.0599
      3  C03       19.6330  -15.2500   21.4450 C.ar    1  NLI1        0.1133
      4  N04       18.9950  -15.9350   22.4650 N.ar    1  NLI1       -0.2223
      5  C05       17.7990  -15.5380   22.8160 C.ar    1  NLI1        0.2050
      6  N06       17.0660  -16.1520   23.9050 N.pl3   1  NLI1       -0.2101
      7  C07       17.6300  -17.3870   24.4750 C.3     1  NLI1        0.1846
      8  C08       18.3480  -17.0880   25.8870 C.3     1  NLI1        0.3023
      9  F09       17.4900  -16.4580   26.7160 F       1  NLI1       -0.1976
     10  F10       18.6130  -18.2360   26.4950 F       1  NLI1       -0.1976
     11  C11       19.6110  -16.2030   25.7770 C.ar    1  NLI1        0.0395
     12  C12       20.7870  -16.7180   25.2380 C.ar    1  NLI1        0.0010
     13  C13       21.9410  -15.9300   25.1270 C.ar    1  NLI1       -0.0002
     14  C14       21.9240  -14.5980   25.5400 C.ar    1  NLI1       -0.0000
     15  C15       20.7450  -14.0890   26.0810 C.ar    1  NLI1       -0.0002
     16  C16       19.6010  -14.8790   26.2000 C.ar    1  NLI1        0.0010
     17  C17       17.2980  -14.1870   22.4340 C.ar    1  NLI1        0.2942
     18  O18       16.2390  -13.7290   22.8400 O.2     1  NLI1       -0.2638
     19  N19       18.0590  -13.4750   21.4400 N.ar    1  NLI1       -0.2865
     20  C20       17.5090  -12.1670   21.0270 C.3     1  NLI1        0.1957
     21  C21       16.0760  -12.4030   20.4900 C.2     1  NLI1        0.2647
     22  O22       15.7440  -13.5630   20.2640 O.2     1  NLI1       -0.2712
     23  N23       15.1310  -11.4690   20.9000 N.am    1  NLI1       -0.1996
     24  C24       13.7860  -11.3730   20.2690 C.3     1  NLI1        0.1672
     25  C25       12.8760  -10.5630   21.2480 C.3     1  NLI1        0.2827
     26  O26       12.8160  -11.5330   22.3070 O.2     1  NLI1       -0.3064
     27  N27       12.5150  -10.9460   23.4800 N.pl3   1  NLI1        0.1306
     28  C28       11.2540  -11.5260   24.0250 C.cat   1  NLI1        0.5748
     29  N29       10.9960  -12.7850   24.0590 N.pl3   1  NLI1        0.1387
     30  N30       10.4120  -10.6040   24.7370 N.pl3   1  NLI1        0.1387
@<TRIPOS>BOND
     1     1     2    1
     2    22    21    2
     3    24    23    1
     4    24    25    1
     5    21    23   am
     6    21    20    1
     7     2    19   ar
     8     2     3   ar
     9    20    19    1
    10    25    26    1
    11    19    17   ar
    12     3     4   ar
    13    26    27    1
    14    17     5   ar
    15    17    18    2
    16     4     5   ar
    17     5     6    1
    18    27    28    2
    19     6     7    1
    20    28    29    1
    21    28    30    1
    22     7     8    1
    23    13    12   ar
    24    13    14   ar
    25    12    11   ar
    26    14    15   ar
    27    11     8    1
    28    11    16   ar
    29     8    10    1
    30     8     9    1
    31    15    16   ar
