@<TRIPOS>MOLECULE
3le6_2BZ_A_1.pdb
 25 28 0 0 0
SMALL
GASTEIGER

@<TRIPOS>ATOM
      1  N3         2.5380   29.0900    6.2220 N.2   299  2BZ299     -0.3505
      2  C4         2.9130   27.8110    6.6900 C.2   299  2BZ299      0.1274
      3  C5         2.1670   26.9850    7.6090 C.2   299  2BZ299      0.0579
      4  C6         0.8050   27.3850    8.2440 C.2   299  2BZ299      0.1353
      5  C7         0.0770   26.3800    9.1380 C.ar  299  2BZ299      0.0403
      6  C10        4.7070   26.0440    6.5340 C.2   299  2BZ299      0.0054
      7  C13       -0.2710   30.7930    7.5360 C.2   299  2BZ299      0.1217
      8  C20       -0.5180   25.2110    8.5370 C.ar  299  2BZ299      0.0034
      9  C21       -1.1910   24.2650    9.3580 C.ar  299  2BZ299      0.0001
     10  C22       -1.2800   24.4690   10.7620 C.ar  299  2BZ299      0.0009
     11  C24       -0.0210   26.5810   10.5560 C.ar  299  2BZ299      0.0601
     12  C1         0.4800   29.6430    7.4580 C.2   299  2BZ299      0.2209
     13  C2         1.5470   29.9330    6.5870 C.1   299  2BZ299      0.1378
     14  N8         0.1130   28.4980    8.1720 N.2   299  2BZ299     -0.3894
     15  C9         4.1770   27.3150    6.1740 C.3   299  2BZ299      0.0877
     16  C11        3.9750   25.2270    7.4340 C.2   299  2BZ299      0.1392
     17  C12        2.7360   25.6930    7.9570 C.2   299  2BZ299      0.0285
     18  C14       -1.5030   31.1300    8.2810 C.3   299  2BZ299      0.0576
     19  N15        0.3730   31.6850    6.7280 N.2   299  2BZ299     -0.1392
     20  N16        1.4750   31.1930    6.1400 N.2   299  2BZ299     -0.0794
     21  N17        4.4790   23.8830    7.8310 N.pl3 299  2BZ299      0.0574
     22  O18        3.7970   23.2160    8.6280 O.2   299  2BZ299     -0.1261
     23  O19        5.5460   23.4790    7.3310 O.2   299  2BZ299     -0.1261
     24  C23       -0.7000   25.6210   11.3610 C.ar  299  2BZ299      0.0115
     25 CL25        0.6580   27.9630   11.3420 Cl    299  2BZ299     -0.0822
@<TRIPOS>BOND
     1    20    13    2
     2    20    19    1
     3    15     6    1
     4    15     2    1
     5     1    13    2
     6     1     2    2
     7     6    16    2
     8    13    12    1
     9     2     3    1
    10    19     7    2
    11    23    21    2
    12    16    21    1
    13    16    17    1
    14    12     7    1
    15    12    14    2
    16     7    18    1
    17     3    17    2
    18     3     4    1
    19    21    22    2
    20    14     4    2
    21     4     5    1
    22     8     5   ar
    23     8     9   ar
    24     5    11   ar
    25     9    10   ar
    26    11    25    1
    27    11    24   ar
    28    10    24   ar
