@<TRIPOS>MOLECULE
3le7_ADE_A_1.pdb
 10 11 0 0 0
SMALL
GASTEIGER

@<TRIPOS>ATOM
      1  N9        21.3450   27.5060   66.3420 N.2   501  ADE501     -0.1914
      2  C8        20.4500   28.2360   67.0190 C.3   501  ADE501      0.2618
      3  N7        19.5500   27.4360   67.6070 N.2   501  ADE501     -0.2267
      4  C5        19.8660   26.1920   67.3280 C.2   501  ADE501      0.2303
      5  C6        19.3290   24.8850   67.6680 C.2   501  ADE501      0.4393
      6  N6        18.2130   24.7930   68.4180 N.pl3 501  ADE501      0.2185
      7  N1        20.0030   23.8440   67.1760 N.2   501  ADE501     -0.0265
      8  C2        21.1080   23.9780   66.4290 C.3   501  ADE501      0.4008
      9  N3        21.6250   25.1390   66.0720 N.2   501  ADE501     -0.1640
     10  C4        21.0640   26.2390   66.5130 C.1   501  ADE501      0.0579
@<TRIPOS>BOND
     1     9     8    1
     2     9    10    2
     3     1    10    2
     4     1     2    1
     5     8     7    1
     6    10     4    1
     7     2     3    1
     8     7     5    2
     9     4     3    2
    10     4     5    1
    11     5     6    1
