@<TRIPOS>MOLECULE
3le8_2B5_A_1.pdb
 28 31 0 0 0
SMALL
GASTEIGER

@<TRIPOS>ATOM
      1  C         18.6800   11.1590   -0.6510 C.2   301  2B5301      0.3875
      2  N         16.2250   10.4230   -1.2310 N.ar  301  2B5301     -0.3191
      3  O         18.3090   12.2840   -0.5210 O.co2 301  2B5301     -0.2435
      4  CA        17.7310   10.1900   -1.2570 C.3   301  2B5301      0.2209
      5  CAA       11.0640    9.5750   -4.8030 C.3   301  2B5301      0.2525
      6  OAC       15.3190   12.5630    3.5510 O.2   301  2B5301     -0.2650
      7  CAE       13.1810    9.2160    8.6200 C.ar  301  2B5301      0.0002
      8  CAF       13.0790    7.9600    7.9790 C.ar  301  2B5301      0.0031
      9  CAG       14.7260    9.8180   -4.5820 C.ar  301  2B5301      0.0384
     10  CAH       13.6080   10.3240    7.8670 C.ar  301  2B5301      0.0031
     11  CAI       13.4500    7.8470    6.6400 C.ar  301  2B5301      0.0375
     12  CAJ       15.7630    9.9440   -3.6410 C.ar  301  2B5301      0.0203
     13  CAK       13.1230   10.3180   -2.8690 C.ar  301  2B5301      0.0384
     14  CAL       14.1330   10.7590   -0.6210 C.ar  301  2B5301      0.0161
     15  CAM       14.3850   11.1040    5.7230 C.ar  301  2B5301      0.0453
     16  CAN       15.9930   11.0120    1.1780 C.3   301  2B5301      0.1589
     17  NAP       15.3370   10.5090    2.3940 N.am  301  2B5301     -0.1926
     18  OAQ       12.4150    9.8210   -5.1960 O.3   301  2B5301     -0.4714
     19  OAR       14.3100    9.1300    4.5280 O.2   301  2B5301     -0.4488
     20  CAT       15.0780   11.3280    3.4430 C.2   301  2B5301      0.2998
     21  CAU       13.3900    9.9870   -4.2210 C.ar  301  2B5301      0.1388
     22  CAV       15.4330   10.7100   -0.1940 C.ar  301  2B5301      0.0596
     23  CAW       14.6050   10.6150    4.5030 C.ar  301  2B5301      0.2000
     24  CAX       13.9360   10.1640    6.5850 C.ar  301  2B5301      0.0377
     25  CAY       14.1510   10.4450   -1.9580 C.ar  301  2B5301      0.0200
     26  CAZ       13.8450    8.9540    5.9690 C.ar  301  2B5301      0.1455
     27  CBA       15.4440   10.2470   -2.3340 C.ar  301  2B5301      0.0603
     28  OXT       19.8310   10.7280   -0.4130 O.co2 301  2B5301     -0.2435
@<TRIPOS>BOND
     1    18     5    1
     2    18    21    1
     3     9    21   ar
     4     9    12   ar
     5    21    13   ar
     6    12    27   ar
     7    13    25   ar
     8    27    25   ar
     9    27     2   ar
    10    25    14   ar
    11     4     2    1
    12     4     1    1
    13     2    22   ar
    14     1     3   ar
    15     1    28   ar
    16    14    22   ar
    17    22    16    1
    18    16    17    1
    19    17    20   am
    20    20     6    2
    21    20    23    1
    22    23    19   ar
    23    23    15   ar
    24    19    26   ar
    25    15    24   ar
    26    26    24   ar
    27    26    11   ar
    28    24    10   ar
    29    11     8   ar
    30    10     7   ar
    31     8     7   ar
