@<TRIPOS>MOLECULE
3le9_727_A_1.pdb
 26 29 0 0 0
SMALL
GASTEIGER

@<TRIPOS>ATOM
      1  N1         6.1580    8.3440   24.1590 N.am  485  727485     -0.1770
      2  N2         7.5380    8.2640   24.3530 N.2   485  727485     -0.1792
      3  C3         5.4240    8.3700   25.2980 C.2   485  727485      0.2539
      4  N4         7.5980   11.1540   23.5600 N.2   485  727485     -0.2446
      5  C5         7.3160   10.2890   22.5310 C.1   485  727485      0.2181
      6  C6         5.7770   10.0540   22.5240 C.3   485  727485      0.2392
      7  N7         5.3600   10.9800   23.6120 N.2   485  727485     -0.1566
      8  C8         6.4090   11.6210   24.1810 C.1   485  727485      0.3075
      9  O9         6.3080   12.5110   25.0160 O.2   485  727485     -0.1881
     10  O10        8.1310    9.6350   21.7940 O.2   485  727485     -0.2111
     11  C11        5.0890   10.5010   21.2210 C.ar  485  727485      0.0160
     12  C12        5.5930    8.5260   22.8370 C.3   485  727485      0.1637
     13  C13        6.4110    8.3090   26.3580 C.3   485  727485      0.1448
     14  C14        7.6490    8.2390   25.7250 C.2   485  727485      0.0892
     15  C15        8.8580    8.1370   26.4230 C.2   485  727485      0.0201
     16  C16        8.7560    8.1180   27.7710 C.2   485  727485      0.0379
     17  C17        7.4740    8.2010   28.4100 C.2   485  727485      0.1354
     18  C18        6.2870    8.2950   27.7060 C.2   485  727485      0.0256
     19  O19        4.2020    8.4240   25.3870 O.2   485  727485     -0.2724
     20  O20        7.2970    8.1940   29.7260 O.2   485  727485     -0.4717
     21  C21        8.5250    8.0720   30.5330 C.3   485  727485      0.2525
     22  C22        5.7070   11.4860   20.3480 C.ar  485  727485     -0.0013
     23  C23        5.0480   11.8410   19.1320 C.ar  485  727485     -0.0002
     24  C24        3.8040   11.2510   18.7890 C.ar  485  727485     -0.0000
     25  C25        3.1940   10.3030   19.6290 C.ar  485  727485     -0.0002
     26  C26        3.8250    9.9350   20.8420 C.ar  485  727485     -0.0013
@<TRIPOS>BOND
     1    24    23   ar
     2    24    25   ar
     3    23    22   ar
     4    25    26   ar
     5    22    11   ar
     6    26    11   ar
     7    11     6    1
     8    10     5    2
     9     6     5    1
    10     6    12    1
    11     6     7    1
    12     5     4    2
    13    12     1    1
    14     4     8    2
    15     7     8    2
    16     1     2    1
    17     1     3   am
    18     8     9    2
    19     2    14    2
    20     3    19    2
    21     3    13    1
    22    14    13    1
    23    14    15    1
    24    13    18    1
    25    15    16    2
    26    18    17    2
    27    16    17    1
    28    17    20    1
    29    20    21    1
