@<TRIPOS>MOLECULE
3lea_Z93_A_1.pdb
 32 36 0 0 0
SMALL
GASTEIGER

@<TRIPOS>ATOM
      1  N1        19.3530   13.3640   -4.8100 N.2     1  Z931       -0.2446
      2  C2        18.3660   14.0730   -5.4560 C.1     1  Z931        0.2180
      3  C3        18.3680   13.7170   -6.9790 C.3     1  Z931        0.2371
      4  N4        19.4150   12.6810   -6.9500 N.2     1  Z931       -0.1567
      5  C5        19.9890   12.4930   -5.6510 C.1     1  Z931        0.3075
      6  O6        20.8900   11.7110   -5.2730 O.2     1  Z931       -0.1881
      7  O7        17.6430   14.9110   -4.9390 O.2     1  Z931       -0.2111
      8  C8        17.0620   13.0570   -7.3610 C.ar    1  Z931        0.0160
      9  C9        16.5700   13.1330   -8.6960 C.ar    1  Z931       -0.0013
     10  C10       15.3450   12.5360   -9.0390 C.ar    1  Z931       -0.0002
     11  C11       14.5650   11.8500   -8.0680 C.ar    1  Z931        0.0015
     12  C12       15.0280   11.7830   -6.7210 C.ar    1  Z931       -0.0002
     13  C13       16.2640   12.3700   -6.3670 C.ar    1  Z931       -0.0013
     14  C14       13.2800   11.2140   -8.4360 C.ar    1  Z931        0.0192
     15  C15       12.2590   10.9030   -7.4760 C.ar    1  Z931        0.0031
     16  C16       11.0440   10.3110   -7.8610 C.ar    1  Z931        0.0207
     17  C17       10.8440   10.0410   -9.2110 C.ar    1  Z931        0.0989
     18  N18       11.7570   10.3220  -10.1890 N.ar    1  Z931       -0.2423
     19  C19       12.9530   10.9030   -9.7840 C.ar    1  Z931        0.0988
     20  N20       20.0590   15.4990   -7.2890 N.am    1  Z931       -0.2685
     21  C21       20.2720   16.2860   -6.0550 C.3     1  Z931        0.1207
     22  C22       21.2470   15.0200   -7.8700 C.2     1  Z931        0.2492
     23  C23       18.7400   15.0720   -7.7690 C.3     1  Z931        0.1385
     24  C24       22.3600   15.5320   -7.0340 C.ar    1  Z931        0.0542
     25  C25       21.7640   16.2820   -5.9530 C.ar    1  Z931        0.0023
     26  C26       22.5370   16.9130   -4.9850 C.ar    1  Z931        0.0006
     27  C27       23.9440   16.7560   -5.1120 C.ar    1  Z931        0.0366
     28  C28       24.5580   16.0130   -6.1850 C.ar    1  Z931        0.1389
     29  C29       23.7730   15.3750   -7.1800 C.ar    1  Z931        0.0411
     30  O30       21.3490   14.3520   -8.8810 O.2     1  Z931       -0.2699
     31  O31       25.9480   15.9220   -6.3580 O.3     1  Z931       -0.4714
     32  C32       26.8080   16.5650   -5.3760 C.3     1  Z931        0.2525
@<TRIPOS>BOND
     1    18    19   ar
     2    18    17   ar
     3    19    14   ar
     4    17    16   ar
     5    10     9   ar
     6    10    11   ar
     7    30    22    2
     8     9     8   ar
     9    14    11    1
    10    14    15   ar
    11    11    12   ar
    12    22    20   am
    13    22    24    1
    14    16    15   ar
    15    23    20    1
    16    23     3    1
    17     8     3    1
    18     8    13   ar
    19    20    21    1
    20    29    24   ar
    21    29    28   ar
    22    24    25   ar
    23     3     4    1
    24     3     2    1
    25     4     5    2
    26    12    13   ar
    27    31    28    1
    28    31    32    1
    29    28    27   ar
    30    21    25    1
    31    25    26   ar
    32     5     6    2
    33     5     1    2
    34     2     7    2
    35     2     1    2
    36    27    26   ar
