@<TRIPOS>MOLECULE
3lee_B65_A_1.pdb
 25 26 0 0 0
SMALL
GASTEIGER

@<TRIPOS>ATOM
      1  CAL       24.0660  -11.9220   46.1060 C.ar  451  B65451      0.0375
      2  CAH       22.9510  -12.1090   46.9140 C.ar  451  B65451      0.0031
      3  CAG       22.6660  -11.2000   47.9250 C.ar  451  B65451      0.0002
      4  CAI       23.5000  -10.1090   48.1360 C.ar  451  B65451      0.0031
      5  CAM       24.6180   -9.9230   47.3320 C.ar  451  B65451      0.0375
      6  CAU       24.8950  -10.8240   46.3100 C.ar  451  B65451      0.1453
      7  OAS       25.9980  -10.6480   45.5170 O.3   451  B65451     -0.4535
      8  CAV       26.0490   -9.6790   44.5460 C.ar  451  B65451      0.1450
      9  CAO       27.2550   -9.4030   43.9120 C.ar  451  B65451      0.0332
     10  CAN       24.9070   -8.9800   44.1810 C.ar  451  B65451      0.0375
     11  CAJ       24.9720   -8.0080   43.1930 C.ar  451  B65451      0.0028
     12  CAK       26.1760   -7.7330   42.5610 C.ar  451  B65451     -0.0041
     13  CAT       27.3190   -8.4220   42.9320 C.ar  451  B65451     -0.0192
     14  CAQ       28.6190   -8.1410   42.2270 C.3   451  B65451      0.0265
     15  CAP       28.8310   -9.2160   41.1680 C.3   451  B65451      0.0069
     16  CAR       28.1470   -8.8450   39.8550 C.3   451  B65451      0.0320
     17  CAW       28.5740   -9.7780   38.7250 C.3   451  B65451      0.1869
     18  PAX       30.1380   -9.2370   37.9720 P.3   451  B65451      0.1393
     19  OAB       30.8220  -10.5310   37.5860 O.3   451  B65451     -0.3560
     20  OAC       29.7080   -8.3780   36.8010 O.2   451  B65451     -0.4584
     21  OAA       30.8840   -8.4620   39.0330 O.3   451  B65451     -0.3560
     22  SAY       27.4040   -9.8200   37.5420 S.3   451  B65451      0.0275
     23  OAF       27.7060  -10.9420   36.6280 O.3   451  B65451     -0.0691
     24  OAE       27.4000   -8.5560   36.7670 O.3   451  B65451     -0.0691
     25  OAD       26.0800  -10.0360   38.1620 O.3   451  B65451     -0.0691
@<TRIPOS>BOND
     1    23    22    1
     2    24    22    1
     3    20    18    2
     4    22    25    1
     5    22    17    1
     6    19    18    1
     7    18    17    1
     8    18    21    1
     9    17    16    1
    10    16    15    1
    11    15    14    1
    12    14    13    1
    13    12    13   ar
    14    12    11   ar
    15    13     9   ar
    16    11    10   ar
    17     9     8   ar
    18    10     8   ar
    19     8     7    1
    20     7     6    1
    21     1     6   ar
    22     1     2   ar
    23     6     5   ar
    24     2     3   ar
    25     5     4   ar
    26     3     4   ar
