@<TRIPOS>MOLECULE
3leg_BDZ_A_1.pdb
 46 49 0 0 0
SMALL
GASTEIGER

@<TRIPOS>ATOM
      1  C1        -5.2480   -3.3110  -18.6030 C.3   1186  BDZ1186     0.2663
      2  O1        -4.3580   -3.9230  -19.5310 O.3   1186  BDZ1186    -0.3260
      3  C2        -4.8500   -3.7890  -17.2010 C.3   1186  BDZ1186     0.2066
      4  O2        -5.1960   -5.1660  -17.1700 O.3   1186  BDZ1186    -0.3231
      5  C3        -5.5860   -3.0310  -16.0930 C.3   1186  BDZ1186     0.2166
      6  O3        -4.9240   -3.2790  -14.8550 O.3   1186  BDZ1186    -0.2175
      7  C4        -5.5920   -1.5280  -16.3850 C.3   1186  BDZ1186     0.2143
      8  O4        -4.2290   -1.0930  -16.3380 O.3   1186  BDZ1186    -0.2176
      9  C5        -6.1830   -1.3520  -17.7910 C.3   1186  BDZ1186     0.1835
     10  O5        -5.2420   -1.8760  -18.7330 O.3   1186  BDZ1186    -0.3257
     11  C6        -6.7160    0.0210  -18.2060 C.3   1186  BDZ1186     0.2142
     12  O6        -5.6480    0.9590  -18.3050 O.3   1186  BDZ1186    -0.2176
     13  CAA       -4.3090   -6.0510  -16.4680 C.3   1186  BDZ1186     0.2695
     14  CAB       -5.0800   -7.3640  -16.2300 C.3   1186  BDZ1186     0.2406
     15  CAC       -5.2290   -8.1640  -17.5280 C.3   1186  BDZ1186     0.2197
     16  CAD       -3.8410   -8.3760  -18.1530 C.3   1186  BDZ1186     0.2118
     17  CAE       -3.2360   -6.9940  -18.4330 C.3   1186  BDZ1186     0.1508
     18  CAF       -1.9080   -7.0700  -19.1920 C.3   1186  BDZ1186     0.0350
     19  OAG       -6.3540   -7.0660  -15.6120 O.3   1186  BDZ1186    -0.2149
     20  OAH       -5.8190   -9.4250  -17.2200 O.3   1186  BDZ1186    -0.2174
     21  OAI       -2.9770   -9.1240  -17.2630 O.3   1186  BDZ1186    -0.2177
     22  OAJ       -3.0850   -6.2760  -17.1880 O.3   1186  BDZ1186    -0.3284
     23  CAV       -4.2480   -4.5540  -23.4810 C.3   1186  BDZ1186     0.2916
     24  CAW       -4.0940   -3.0710  -23.1530 C.3   1186  BDZ1186     0.1838
     25  CAX       -3.6010   -3.1740  -21.6990 C.3   1186  BDZ1186     0.1723
     26  CAY       -4.7690   -3.7820  -20.8840 C.3   1186  BDZ1186     0.1764
     27  CAZ       -5.2470   -5.1190  -21.4960 C.3   1186  BDZ1186     0.1802
     28  CBA       -6.4300   -5.8230  -20.8280 C.3   1186  BDZ1186     0.2141
     29  CBB       -3.3370   -1.2740  -24.6560 C.2   1186  BDZ1186     0.2420
     30  CBC       -4.6440   -0.5520  -24.4360 C.3   1186  BDZ1186     0.0964
     31  NBD       -3.1120   -2.4450  -24.0360 N.am  1186  BDZ1186    -0.1993
     32  OBE       -4.1610   -4.8900  -24.8610 O.3   1186  BDZ1186    -0.1879
     33  OBF       -3.1710   -1.9400  -21.1290 O.3   1186  BDZ1186    -0.3265
     34  OBH       -5.5080   -4.9110  -22.8930 O.3   1186  BDZ1186    -0.3243
     35  OBI       -7.5770   -4.9720  -20.8180 O.3   1186  BDZ1186    -0.2176
     36  OBJ       -2.4880   -0.7950  -25.3910 O.2   1186  BDZ1186    -0.2733
     37  CBK       -1.7530   -1.6930  -21.1120 C.3   1186  BDZ1186     0.2694
     38  CBL       -1.5400   -0.1790  -20.8760 C.3   1186  BDZ1186     0.2406
     39  CBM       -1.9970    0.2100  -19.4700 C.3   1186  BDZ1186     0.2197
     40  CBN       -1.2740   -0.6330  -18.4090 C.3   1186  BDZ1186     0.2118
     41  CBO       -1.4720   -2.1250  -18.7090 C.3   1186  BDZ1186     0.1508
     42  CBP       -0.6940   -2.9930  -17.7330 C.3   1186  BDZ1186     0.0350
     43  OBQ       -2.2890    0.6010  -21.8250 O.3   1186  BDZ1186    -0.2149
     44  OBR       -1.7990    1.6120  -19.2690 O.3   1186  BDZ1186    -0.2174
     45  OBS        0.1340   -0.3150  -18.3710 O.3   1186  BDZ1186    -0.2177
     46  OBT       -1.1010   -2.4460  -20.0760 O.3   1186  BDZ1186    -0.3284
@<TRIPOS>BOND
     1    36    29    2
     2    32    23    1
     3    29    30    1
     4    29    31   am
     5    31    24    1
     6    23    24    1
     7    23    34    1
     8    24    25    1
     9    34    27    1
    10    43    38    1
    11    25    33    1
    12    25    26    1
    13    27    26    1
    14    27    28    1
    15    33    37    1
    16    37    38    1
    17    37    46    1
    18    26     2    1
    19    38    39    1
    20    28    35    1
    21    46    41    1
    22     2     1    1
    23    39    44    1
    24    39    40    1
    25    18    17    1
    26    10     1    1
    27    10     9    1
    28    41    40    1
    29    41    42    1
    30     1     3    1
    31    17    16    1
    32    17    22    1
    33    40    45    1
    34    12    11    1
    35    11     9    1
    36    16    15    1
    37    16    21    1
    38     9     7    1
    39    15    20    1
    40    15    14    1
    41     3     4    1
    42     3     5    1
    43    22    13    1
    44     4    13    1
    45    13    14    1
    46     7     8    1
    47     7     5    1
    48    14    19    1
    49     5     6    1
