@<TRIPOS>MOLECULE
3lei_FUC_A_1.pdb
 11 11 0 0 0
SMALL
GASTEIGER

@<TRIPOS>ATOM
      1  C1         4.7030    5.8790  -16.3930 C.3   1186  FUC1186     0.3023
      2  C2         5.4470    7.1620  -16.0450 C.3   1186  FUC1186     0.2434
      3  C3         5.5110    8.1040  -17.2420 C.3   1186  FUC1186     0.2198
      4  C4         4.0990    8.3270  -17.7870 C.3   1186  FUC1186     0.2118
      5  C5         3.4130    6.9680  -18.0130 C.3   1186  FUC1186     0.1509
      6  C6         2.0090    7.0450  -18.6020 C.3   1186  FUC1186     0.0350
      7  O1         4.7080    5.0350  -15.2540 O.3   1186  FUC1186    -0.1869
      8  O2         6.7390    6.8800  -15.5700 O.3   1186  FUC1186    -0.2148
      9  O3         6.0760    9.2990  -16.7490 O.3   1186  FUC1186    -0.2174
     10  O4         3.3700    9.1030  -16.8670 O.3   1186  FUC1186    -0.2177
     11  O5         3.3870    6.2340  -16.8050 O.3   1186  FUC1186    -0.3264
@<TRIPOS>BOND
     1     6     5    1
     2     5     4    1
     3     5    11    1
     4     4     3    1
     5     4    10    1
     6     3     9    1
     7     3     2    1
     8    11     1    1
     9     1     2    1
    10     1     7    1
    11     2     8    1
