@<TRIPOS>MOLECULE
3lek_BCW_A_1.pdb
 46 49 0 0 0
SMALL
GASTEIGER

@<TRIPOS>ATOM
      1  C13        1.3810    5.5660   15.8350 C.3   1185  BCW1185     0.2143
      2  C20       -0.4430    5.9090   17.5440 C.3   1185  BCW1185     0.2142
      3  C26        5.0240    5.6490   20.9260 C.3   1185  BCW1185     0.1639
      4  C28        3.3440    4.0550   22.7070 C.3   1185  BCW1185     0.1802
      5  C01        6.9530    3.5380   17.9280 C.3   1185  BCW1185     0.1508
      6  C02        8.3450    4.1200   17.6390 C.3   1185  BCW1185     0.2118
      7  C03        8.1210    5.4700   16.9220 C.3   1185  BCW1185     0.2197
      8  C04        7.3240    5.3010   15.6130 C.3   1185  BCW1185     0.2406
      9  C05        6.0130    4.5320   15.8690 C.3   1185  BCW1185     0.2695
     10  O06        6.2500    3.3450   16.6930 O.3   1185  BCW1185    -0.3284
     11  C07        6.9520    2.2500   18.7580 C.3   1185  BCW1185     0.0350
     12  O08        9.3820    6.0490   16.6030 O.3   1185  BCW1185    -0.2174
     13  O09        7.0490    6.5620   14.9660 O.3   1185  BCW1185    -0.2149
     14  O10        5.1060    5.4680   16.4790 O.3   1185  BCW1185    -0.3231
     15  C11        3.7390    5.0400   16.6210 C.3   1185  BCW1185     0.2066
     16  C12        2.8710    5.7030   15.5380 C.3   1185  BCW1185     0.2166
     17  C14        1.0540    6.0290   17.2560 C.3   1185  BCW1185     0.1835
     18  O15        1.8400    5.2940   18.2170 O.3   1185  BCW1185    -0.3257
     19  C16        3.2750    5.3840   18.0500 C.3   1185  BCW1185     0.2662
     20  O17        9.1110    3.2540   16.7700 O.3   1185  BCW1185    -0.2177
     21  O18        3.1320    5.0890   14.2660 O.3   1185  BCW1185    -0.2175
     22  O19        1.0440    4.1870   15.7320 O.3   1185  BCW1185    -0.2176
     23  O21       -0.6490    6.2750   18.9140 O.3   1185  BCW1185    -0.2176
     24  O22        3.9960    4.5400   18.9760 O.3   1185  BCW1185    -0.3269
     25  C23        3.8310    4.8560   20.3780 C.3   1185  BCW1185     0.1684
     26  O24        4.5520    4.6940   23.1400 O.3   1185  BCW1185    -0.3246
     27  C25        4.9430    5.8840   22.4470 C.3   1185  BCW1185     0.2877
     28  C27        3.4840    3.6290   21.2330 C.3   1185  BCW1185     0.1761
     29  O29        4.0570    6.9810   22.7530 O.3   1185  BCW1185    -0.1882
     30  N30        5.0720    6.9280   20.2340 N.3   1185  BCW1185    -0.1828
     31  C31        6.3270    7.6300   20.0940 C.3   1185  BCW1185     0.2259
     32  C32        6.1990    8.7990   19.1250 C.3   1185  BCW1185     0.0555
     33  O33        7.2720    6.6720   19.6350 O.3   1185  BCW1185    -0.2036
     34  O34        2.2410    3.1400   20.7250 O.3   1185  BCW1185    -0.3259
     35  C35        2.0860    1.7240   20.5960 C.3   1185  BCW1185     0.2695
     36  O36        2.7600    1.1910   19.4260 O.3   1185  BCW1185    -0.3284
     37  C37        2.2390    1.6160   18.1380 C.3   1185  BCW1185     0.1508
     38  C38        0.7340    1.3310   18.0150 C.3   1185  BCW1185     0.2118
     39  C39        0.0040    2.0020   19.1870 C.3   1185  BCW1185     0.2197
     40  C40        0.5710    1.4850   20.5190 C.3   1185  BCW1185     0.2406
     41  O41       -0.0960    2.1530   21.5970 O.3   1185  BCW1185    -0.2149
     42  O42       -1.4150    1.7940   19.1310 O.3   1185  BCW1185    -0.2174
     43  O43        0.4870   -0.0830   18.0300 O.3   1185  BCW1185    -0.2177
     44  C44        3.0060    0.9920   16.9770 C.3   1185  BCW1185     0.0350
     45  C45        3.0410    2.9050   23.6840 C.3   1185  BCW1185     0.2141
     46  O46        4.2130    2.1100   23.9740 O.3   1185  BCW1185    -0.2176
@<TRIPOS>BOND
     1    21    16    1
     2    13     8    1
     3    16     1    1
     4    16    15    1
     5     8     9    1
     6     8     7    1
     7    22     1    1
     8     1    17    1
     9     9    14    1
    10     9    10    1
    11    14    15    1
    12    12     7    1
    13    15    19    1
    14    10     5    1
    15    20     6    1
    16     7     6    1
    17    44    37    1
    18    17     2    1
    19    17    18    1
    20     2    23    1
    21     6     5    1
    22     5    11    1
    23    38    43    1
    24    38    37    1
    25    38    39    1
    26    19    18    1
    27    19    24    1
    28    37    36    1
    29    24    25    1
    30    32    31    1
    31    42    39    1
    32    39    40    1
    33    36    35    1
    34    33    31    1
    35    31    30    1
    36    30     3    1
    37    25     3    1
    38    25    28    1
    39    40    35    1
    40    40    41    1
    41    35    34    1
    42    34    28    1
    43     3    27    1
    44    28     4    1
    45    27    29    1
    46    27    26    1
    47     4    26    1
    48     4    45    1
    49    45    46    1
