@<TRIPOS>MOLECULE
3lem_NYT_A_1.pdb
 45 48 0 0 0
SMALL
GASTEIGER

@<TRIPOS>ATOM
      1  C1        86.1560   15.7830   64.2760 C.3   3168  NYT3168     0.2713
      2  O1        86.8740   17.0430   63.8990 O.3   3168  NYT3168    -0.3034
      3  C2        85.3390   15.9580   65.6320 C.3   3168  NYT3168     0.2406
      4  O2        84.3180   16.9850   65.4710 O.3   3168  NYT3168    -0.2149
      5  C3        86.3700   16.4230   66.7030 C.3   3168  NYT3168     0.2198
      6  O3        85.6930   16.5990   67.9380 O.3   3168  NYT3168    -0.2174
      7  C4        87.4580   15.3070   66.8570 C.3   3168  NYT3168     0.2144
      8  O4        88.4220   15.7150   67.8470 O.3   3168  NYT3168    -0.2176
      9  C5        88.1800   15.1210   65.4780 C.3   3168  NYT3168     0.1835
     10  O5        87.1920   14.7300   64.4360 O.3   3168  NYT3168    -0.3256
     11  C6        89.2230   14.0200   65.6010 C.3   3168  NYT3168     0.2142
     12  O6        89.8420   13.8820   64.3280 O.3   3168  NYT3168    -0.2176
     13  C11       86.3230   17.2530   61.5840 C.3   3168  NYT3168     0.2034
     14  O11       86.4830   17.9710   60.3040 O.3   3168  NYT3168    -0.3249
     15  C12       85.4070   16.3280   58.7760 C.3   3168  NYT3168     0.2034
     16  O12       84.5860   15.9100   57.5670 O.3   3168  NYT3168    -0.3249
     17  C13       82.2670   15.4780   57.5600 C.3   3168  NYT3168     0.2406
     18  O13       82.0940   16.5770   58.5290 O.3   3168  NYT3168    -0.2149
     19  C21       87.1400   17.9430   62.7410 C.3   3168  NYT3168     0.2483
     20  O21       88.4600   17.9350   62.1910 O.3   3168  NYT3168    -0.3273
     21  C22       86.6970   16.9480   59.2290 C.3   3168  NYT3168     0.2467
     22  O22       87.5530   15.8830   59.7120 O.3   3168  NYT3168    -0.3273
     23  C23       83.6160   14.8000   57.8140 C.3   3168  NYT3168     0.2499
     24  O23       83.6770   14.3670   59.1860 O.3   3168  NYT3168    -0.3273
     25  C31       86.9080   19.4620   62.7800 C.3   3168  NYT3168     0.2380
     26  O31       85.7970   20.2540   63.2660 O.3   3168  NYT3168    -0.2150
     27  C32       87.4110   17.5700   57.9980 C.3   3168  NYT3168     0.2380
     28  O32       87.1450   18.9860   57.9240 O.3   3168  NYT3168    -0.2150
     29  C33       83.9470   13.5900   56.9010 C.3   3168  NYT3168     0.2381
     30  O33       84.6850   14.0040   55.7100 O.3   3168  NYT3168    -0.2150
     31  C41       88.1720   20.0160   63.4170 C.3   3168  NYT3168     0.2167
     32  O41       88.3620   21.3670   62.9450 O.3   3168  NYT3168    -0.2175
     33  C42       88.8890   17.2940   58.3290 C.3   3168  NYT3168     0.2167
     34  O42       89.6800   17.2320   57.1330 O.3   3168  NYT3168    -0.2175
     35  C43       84.8600   12.7460   57.9010 C.3   3168  NYT3168     0.2167
     36  O43       84.8180   11.3560   57.6300 O.3   3168  NYT3168    -0.2175
     37  C51       89.2130   18.9870   62.9090 C.3   3168  NYT3168     0.1835
     38  C52       88.7530   15.8580   58.9670 C.3   3168  NYT3168     0.1835
     39  C53       84.0960   13.0130   59.2320 C.3   3168  NYT3168     0.1835
     40  C61       90.0360   18.4030   64.0870 C.3   3168  NYT3168     0.2142
     41  O61       91.2570   19.0710   64.0380 O.3   3168  NYT3168    -0.2176
     42  C62       89.9240   15.6950   59.9400 C.3   3168  NYT3168     0.2142
     43  O62       90.1780   16.0580   61.3120 O.3   3168  NYT3168    -0.2176
     44  C63       85.0430   12.8350   60.3850 C.3   3168  NYT3168     0.2142
     45  O63       84.3290   13.1160   61.5690 O.3   3168  NYT3168    -0.2176
@<TRIPOS>BOND
     1    30    29    1
     2    29    23    1
     3    29    35    1
     4    34    33    1
     5    17    23    1
     6    17    18    1
     7    16    23    1
     8    16    15    1
     9    36    35    1
    10    23    24    1
    11    35    39    1
    12    28    27    1
    13    27    33    1
    14    27    21    1
    15    33    38    1
    16    15    21    1
    17    38    22    1
    18    38    42    1
    19    24    39    1
    20    21    22    1
    21    21    14    1
    22    39    44    1
    23    42    43    1
    24    14    13    1
    25    44    45    1
    26    13    19    1
    27    20    19    1
    28    20    37    1
    29    19    25    1
    30    19     2    1
    31    25    26    1
    32    25    31    1
    33    37    31    1
    34    37    40    1
    35    32    31    1
    36     2     1    1
    37    41    40    1
    38     1    10    1
    39     1     3    1
    40    12    11    1
    41    10     9    1
    42     4     3    1
    43     9    11    1
    44     9     7    1
    45     3     5    1
    46     5     7    1
    47     5     6    1
    48     7     8    1
