@<TRIPOS>MOLECULE
3len_NAP_A_1.pdb
 48 52 0 0 0
SMALL
GASTEIGER

@<TRIPOS>ATOM
      1  PA        21.7940   21.2170  -18.7680 P.3   500  NAP500      0.2189
      2  O1A       21.3000   22.3780  -18.0360 O.3   500  NAP500     -0.4371
      3  O2A       21.1910   20.7950  -20.0370 O.2   500  NAP500     -0.5170
      4  O5B       23.3970   21.3050  -19.0500 O.3   500  NAP500     -0.3112
      5  C5B       24.2750   21.6480  -17.9630 C.3   500  NAP500      0.1813
      6  C4B       25.6870   21.4860  -18.5700 C.3   500  NAP500      0.1820
      7  O4B       25.8820   22.5390  -19.5200 O.3   500  NAP500     -0.3136
      8  C3B       26.8020   21.6980  -17.5240 C.3   500  NAP500      0.2157
      9  O3B       27.8750   20.8550  -17.9050 O.3   500  NAP500     -0.2175
     10  C2B       27.1890   23.1960  -17.7150 C.3   500  NAP500      0.2314
     11  O2B       28.5660   23.3910  -17.3890 O.3   500  NAP500     -0.2630
     12  C1B       26.9650   23.3670  -19.2080 C.3   500  NAP500      0.3158
     13  N9A       26.6530   24.7290  -19.5800 N.pl3 500  NAP500     -0.1439
     14  C8A       25.7740   25.5820  -18.9540 C.3   500  NAP500      0.3377
     15  N7A       25.6480   26.7600  -19.5050 N.2   500  NAP500     -0.2095
     16  C5A       26.5190   26.6690  -20.6050 C.2   500  NAP500      0.2526
     17  C6A       26.8140   27.6620  -21.5790 C.2   500  NAP500      0.4393
     18  N6A       26.3120   28.8660  -21.6410 N.pl3 500  NAP500      0.2180
     19  N1A       27.7540   27.2660  -22.5240 N.2   500  NAP500      0.0021
     20  C2A       28.3190   26.0010  -22.4980 C.3   500  NAP500      0.5254
     21  N3A       28.0300   25.0310  -21.5870 N.2   500  NAP500     -0.0055
     22  C4A       27.1280   25.4480  -20.6310 C.2   500  NAP500      0.3518
     23  O3        21.7590   19.9050  -17.8170 O.3   500  NAP500     -0.2703
     24  PN        21.0400   19.3200  -16.5470 P.3   500  NAP500      0.2189
     25  O1N       20.8330   17.8700  -16.8130 O.2   500  NAP500     -0.5170
     26  O2N       21.7870   19.7210  -15.3270 O.3   500  NAP500     -0.4371
     27  O5D       19.5950   19.9630  -16.5570 O.3   500  NAP500     -0.3112
     28  C5D       19.2460   21.2650  -15.9450 C.3   500  NAP500      0.1813
     29  C4D       18.6400   21.0770  -14.5940 C.3   500  NAP500      0.1799
     30  O4D       17.3550   20.3990  -14.7310 O.3   500  NAP500     -0.3327
     31  C3D       19.3670   20.1900  -13.5820 C.3   500  NAP500      0.2158
     32  O3D       20.5320   20.7320  -13.0710 O.3   500  NAP500     -0.2175
     33  C2D       18.2280   19.8920  -12.5940 C.3   500  NAP500      0.2309
     34  O2D       18.0670   21.0650  -11.8020 O.3   500  NAP500     -0.2158
     35  C1D       17.0410   19.6790  -13.5340 C.3   500  NAP500      0.2263
     36  N1N       16.8630   18.2490  -13.9230 N.pl3 500  NAP500     -0.2787
     37  C2N       15.7720   17.6030  -13.3560 C.3   500  NAP500      0.1244
     38  C3N       15.5840   16.2640  -13.6090 C.2   500  NAP500      0.0544
     39  C7N       14.3930   15.5070  -13.0440 C.2   500  NAP500      0.2818
     40  O7N       14.3950   14.2710  -13.1290 O.2   500  NAP500     -0.2670
     41  N7N       13.3650   16.2610  -12.6790 N.am  500  NAP500     -0.0839
     42  C4N       16.5190   15.5360  -14.4290 C.2   500  NAP500      0.0033
     43  C5N       17.6160   16.2110  -15.0170 C.2   500  NAP500      0.0157
     44  C6N       17.7640   17.5870  -14.7790 C.2   500  NAP500      0.0633
     45  P2B       29.0430   24.1490  -16.0200 P.3   500  NAP500      0.5328
     46  O1X       29.1800   25.6140  -16.4050 O.2   500  NAP500     -0.2224
     47  O2X       30.3750   23.5060  -15.7450 O.3   500  NAP500     -0.1145
     48  O3X       27.9840   23.8830  -14.9810 O.3   500  NAP500     -0.1145
@<TRIPOS>BOND
     1    19    20    1
     2    19    17    2
     3    20    21    1
     4    18    17    1
     5    21    22    2
     6    17    16    1
     7    22    16    1
     8    22    13    1
     9    16    15    2
    10     3     1    2
    11    13    12    1
    12    13    14    1
    13     7    12    1
    14     7     6    1
    15    15    14    1
    16    12    10    1
    17     4     1    1
    18     4     5    1
    19     1     2    1
    20     1    23    1
    21     6     5    1
    22     6     8    1
    23     9     8    1
    24    23    24    1
    25    10     8    1
    26    10    11    1
    27    11    45    1
    28    25    24    2
    29    27    24    1
    30    27    28    1
    31    24    26    1
    32    46    45    2
    33    45    47    1
    34    45    48    1
    35    28    29    1
    36    43    44    2
    37    43    42    1
    38    44    36    1
    39    30    29    1
    40    30    35    1
    41    29    31    1
    42    42    38    2
    43    36    35    1
    44    36    37    1
    45    38    37    1
    46    38    39    1
    47    31    32    1
    48    31    33    1
    49    35    33    1
    50    40    39    2
    51    39    41   am
    52    33    34    1
