@<TRIPOS>MOLECULE
3len_ZST_A_1.pdb
 29 32 0 0 0
SMALL
GASTEIGER

@<TRIPOS>ATOM
      1  C1        20.2080    9.4900  -12.4450 C.ar  600  ZST600      0.2767
      2  O1        20.6230    8.3330  -12.5040 O.2   600  ZST600     -0.2655
      3  C2        20.6020   10.4380  -11.3630 C.ar  600  ZST600      0.0588
      4  C3        20.0630   11.7200  -11.3690 C.ar  600  ZST600      0.0204
      5  C4        19.1220   12.0770  -12.4560 C.ar  600  ZST600      0.0902
      6  C5        21.5150   10.0850  -10.3460 C.ar  600  ZST600      0.0048
      7  C6        21.8610   10.9770   -9.3310 C.ar  600  ZST600      0.0002
      8  C7        21.2920   12.2420   -9.3350 C.ar  600  ZST600      0.0000
      9  C8        20.3230   12.5920  -10.2930 C.ar  600  ZST600      0.0014
     10  N1        19.3310    9.9610  -13.3290 N.ar  600  ZST600     -0.2090
     11  N2        18.8190   11.2430  -13.3650 N.ar  600  ZST600     -0.1702
     12  C9        18.6390    9.0530  -14.2580 C.3   600  ZST600      0.1960
     13  C10       17.4170    8.4290  -13.6590 C.2   600  ZST600      0.1632
     14  C11       15.6810    7.7260  -12.1100 C.2   600  ZST600      0.0572
     15  C12       15.5410    7.2740  -13.4060 C.2   600  ZST600      0.1371
     16  C13       14.7980    7.4620  -11.0620 C.2   600  ZST600     -0.0124
     17  C14       13.6880    6.6430  -11.4140 C.3   600  ZST600      0.0569
     18  C15       13.5330    6.1710  -12.7310 C.2   600  ZST600      0.0561
     19  C16       14.4580    6.4810  -13.7570 C.2   600  ZST600      0.0325
     20  N3        16.5500    7.6870  -14.2360 N.2   600  ZST600     -0.3972
     21  S1        17.0900    8.7360  -11.9460 S.3   600  ZST600     -0.0556
     22  C17       18.5030   13.4210  -12.5530 C.3   600  ZST600      0.1613
     23  C18       17.3470   13.6130  -11.6010 C.2   600  ZST600      0.3709
     24  O2        17.0060   14.7860  -11.3590 O.co2 600  ZST600     -0.2452
     25  O3        16.7990   12.5800  -11.1040 O.co2 600  ZST600     -0.2452
     26  C19       12.3220    5.3230  -13.0690 C.3   600  ZST600      0.4153
     27  F1        12.2990    5.0200  -14.3730 F     600  ZST600     -0.1662
     28  F2        11.1630    6.1060  -12.8640 F     600  ZST600     -0.1662
     29  F3        12.1390    4.2550  -12.3080 F     600  ZST600     -0.1662
@<TRIPOS>BOND
     1    27    26    1
     2    12    13    1
     3    12    10    1
     4    20    13    2
     5    20    15    2
     6    19    15    1
     7    19    18    2
     8    13    21    1
     9    15    14    1
    10    11    10   ar
    11    11     5   ar
    12    10     1   ar
    13    26    28    1
    14    26    18    1
    15    26    29    1
    16    18    17    1
    17    22     5    1
    18    22    23    1
    19     2     1    2
    20     5     4   ar
    21     1     3   ar
    22    14    21    1
    23    14    16    2
    24    23    24   ar
    25    23    25   ar
    26    17    16    1
    27     4     3   ar
    28     4     9   ar
    29     3     6   ar
    30     6     7   ar
    31     9     8   ar
    32     8     7   ar
