@<TRIPOS>MOLECULE
3leo_GSH_A_1.pdb
 20 19 0 0 0
SMALL
GASTEIGER

@<TRIPOS>ATOM
      1  N1       -15.0890   -7.5810   66.5850 N.3   212  GSH212     -0.1208
      2  CA1      -15.4560   -6.2790   66.1070 C.3   212  GSH212      0.1948
      3  C1       -14.2550   -5.3760   66.3340 C.2   212  GSH212      0.3819
      4  O11      -13.8340   -4.4690   65.5800 O.co2 212  GSH212     -0.2441
      5  O12      -13.6950   -5.5280   67.4300 O.co2 212  GSH212     -0.2441
      6  CB1      -16.3760   -6.2100   64.8740 C.3   212  GSH212      0.0402
      7  CG1      -16.3920   -4.8890   64.1000 C.3   212  GSH212      0.0889
      8  CD1      -15.4190   -5.1610   62.9420 C.2   212  GSH212      0.2418
      9  OE1      -15.4350   -6.3700   62.2710 O.2   212  GSH212     -0.2733
     10  N2       -14.5070   -4.2450   62.6350 N.am  212  GSH212     -0.1968
     11  CA2      -13.5080   -4.3050   61.5590 C.3   212  GSH212      0.1843
     12  C2       -12.1940   -4.8840   62.0400 C.2   212  GSH212      0.2627
     13  O2       -11.1870   -5.1470   61.1560 O.2   212  GSH212     -0.2714
     14  CB2      -13.2930   -2.8660   61.0830 C.3   212  GSH212      0.0997
     15  SG2      -12.7060   -1.8000   62.4440 S.3   212  GSH212     -0.0797
     16  N3       -11.9930   -5.1720   63.3270 N.am  212  GSH212     -0.1917
     17  CA3      -10.6610   -5.4760   63.8570 C.3   212  GSH212      0.2285
     18  C3       -10.6800   -6.5890   64.8830 C.2   212  GSH212      0.3865
     19  O31      -11.7210   -7.2840   65.1080 O.co2 212  GSH212     -0.2437
     20  O32       -9.6120   -6.8240   65.5310 O.co2 212  GSH212     -0.2437
@<TRIPOS>BOND
     1    14    11    1
     2    14    15    1
     3    13    12    2
     4    11    12    1
     5    11    10    1
     6    12    16   am
     7     9     8    2
     8    10     8   am
     9     8     7    1
    10    16    17    1
    11    17    18    1
    12     7     6    1
    13     6     2    1
    14    18    19   ar
    15    18    20   ar
    16     4     3   ar
    17     2     3    1
    18     2     1    1
    19     3     5   ar
