@<TRIPOS>MOLECULE
3lep_NAP_A_1.pdb
 48 52 0 0 0
SMALL
GASTEIGER

@<TRIPOS>ATOM
      1  PA        22.6270   -4.6600   26.9350 P.3   500  NAP500      0.2189
      2  O1A       23.5560   -3.6070   26.4400 O.2   500  NAP500     -0.5170
      3  O2A       21.5580   -4.3200   27.8780 O.3   500  NAP500     -0.4371
      4  O5B       23.5630   -5.8390   27.4430 O.3   500  NAP500     -0.3112
      5  C5B       22.9690   -7.0670   27.9420 C.3   500  NAP500      0.1813
      6  C4B       24.1350   -7.9620   28.3080 C.3   500  NAP500      0.1820
      7  O4B       24.8970   -7.3690   29.3680 O.3   500  NAP500     -0.3136
      8  C3B       23.7490   -9.3830   28.7590 C.3   500  NAP500      0.2157
      9  O3B       24.6860  -10.2850   28.2600 O.3   500  NAP500     -0.2175
     10  C2B       23.8580   -9.2760   30.3030 C.3   500  NAP500      0.2314
     11  O2B       24.1870  -10.5150   30.8850 O.3   500  NAP500     -0.2630
     12  C1B       25.0160   -8.2850   30.4670 C.3   500  NAP500      0.3158
     13  N9A       24.9980   -7.5310   31.6900 N.pl3 500  NAP500     -0.1439
     14  C8A       23.9030   -6.8980   32.2370 C.3   500  NAP500      0.3377
     15  N7A       24.1770   -6.2690   33.3630 N.2   500  NAP500     -0.2095
     16  C5A       25.5270   -6.4910   33.5430 C.2   500  NAP500      0.2526
     17  C6A       26.3650   -6.0690   34.5950 C.2   500  NAP500      0.4393
     18  N6A       25.9720   -5.3410   35.6380 N.pl3 500  NAP500      0.2180
     19  N1A       27.6690   -6.4940   34.5130 N.2   500  NAP500      0.0021
     20  C2A       28.0630   -7.2560   33.4480 C.3   500  NAP500      0.5254
     21  N3A       27.3200   -7.6760   32.4260 N.2   500  NAP500     -0.0055
     22  C4A       26.0340   -7.2710   32.5240 C.2   500  NAP500      0.3518
     23  O3        22.0000   -5.3680   25.6070 O.3   500  NAP500     -0.2703
     24  PN        20.6160   -5.4770   24.8460 P.3   500  NAP500      0.2189
     25  O1N       19.8330   -6.6020   25.4140 O.3   500  NAP500     -0.4371
     26  O2N       20.9410   -5.4880   23.3950 O.2   500  NAP500     -0.5170
     27  O5D       19.8710   -4.0760   25.0990 O.3   500  NAP500     -0.3112
     28  C5D       18.9910   -3.8400   26.2310 C.3   500  NAP500      0.1813
     29  C4D       17.5520   -3.9670   25.8220 C.3   500  NAP500      0.1799
     30  O4D       17.2010   -2.9370   24.8320 O.3   500  NAP500     -0.3327
     31  C3D       17.1280   -5.2530   25.1030 C.3   500  NAP500      0.2158
     32  O3D       17.0700   -6.3700   25.9680 O.3   500  NAP500     -0.2175
     33  C2D       15.7980   -4.8340   24.5120 C.3   500  NAP500      0.2309
     34  O2D       14.8490   -4.8230   25.5720 O.3   500  NAP500     -0.2158
     35  C1D       16.1390   -3.4110   24.0330 C.3   500  NAP500      0.2263
     36  N1N       16.5910   -3.3830   22.5960 N.pl3 500  NAP500     -0.2787
     37  C2N       15.7430   -2.8410   21.6760 C.3   500  NAP500      0.1244
     38  C3N       16.0860   -2.8080   20.3460 C.2   500  NAP500      0.0544
     39  C7N       15.1980   -2.1590   19.3190 C.2   500  NAP500      0.2818
     40  O7N       15.4060   -2.3800   18.1190 O.2   500  NAP500     -0.2670
     41  N7N       14.2720   -1.3230   19.7680 N.am  500  NAP500     -0.0839
     42  C4N       17.3070   -3.3870   19.9360 C.2   500  NAP500      0.0033
     43  C5N       18.1810   -3.8760   20.8960 C.2   500  NAP500      0.0157
     44  C6N       17.8350   -3.8610   22.2100 C.2   500  NAP500      0.0633
     45  P2B       23.1540  -11.4160   31.7370 P.3   500  NAP500      0.5328
     46  O1X       23.7570  -12.7970   31.5010 O.3   500  NAP500     -0.1145
     47  O2X       23.3000  -10.9600   33.1850 O.3   500  NAP500     -0.1145
     48  O3X       21.7800  -11.1840   31.1820 O.2   500  NAP500     -0.2224
@<TRIPOS>BOND
     1    40    39    2
     2    39    41   am
     3    39    38    1
     4    42    38    2
     5    42    43    1
     6    38    37    1
     7    43    44    2
     8    37    36    1
     9    44    36    1
    10    36    35    1
    11    26    24    2
    12    35    33    1
    13    35    30    1
    14    33    31    1
    15    33    34    1
    16    30    29    1
    17    24    27    1
    18    24    25    1
    19    24    23    1
    20    27    28    1
    21    31    29    1
    22    31    32    1
    23    23     1    1
    24    29    28    1
    25     2     1    2
    26     1     4    1
    27     1     3    1
    28     4     5    1
    29     5     6    1
    30     9     8    1
    31     6     8    1
    32     6     7    1
    33     8    10    1
    34     7    12    1
    35    10    12    1
    36    10    11    1
    37    12    13    1
    38    11    45    1
    39    48    45    2
    40    46    45    1
    41    13    14    1
    42    13    22    1
    43    45    47    1
    44    14    15    1
    45    21    22    2
    46    21    20    1
    47    22    16    1
    48    15    16    2
    49    20    19    1
    50    16    17    1
    51    19    17    2
    52    17    18    1
