@<TRIPOS>MOLECULE
3lep_388_A_1.pdb
 24 25 0 0 0
SMALL
GASTEIGER

@<TRIPOS>ATOM
      1  C1        18.2960   -5.9150   13.8090 C.3   600  388600      0.1440
      2  N10       17.6690   -6.7620   14.7810 N.am  600  388600     -0.1966
      3  C11       17.8020   -8.1210   14.6960 C.2   600  388600      0.2680
      4  O12       18.4310   -8.6280   13.7890 O.2   600  388600     -0.2682
      5  C2        17.3890   -5.3910   12.7230 C.ar  600  388600      0.0270
      6  C7        17.8490   -4.4110   11.8550 C.ar  600  388600      0.1383
      7  F9        19.1030   -3.9560   12.0300 F     600  388600     -0.2044
      8  C6        17.0820   -3.8190   10.8580 C.ar  600  388600      0.0361
      9  C5        15.7860   -4.2710   10.7260 C.ar  600  388600      0.0368
     10 BR8        14.7340   -3.4510    9.3980 Br    600  388600     -0.0489
     11  C4        15.2570   -5.2640   11.5560 C.ar  600  388600      0.0066
     12  C3        16.0610   -5.8260   12.5340 C.ar  600  388600      0.0002
     13  C8        16.9770   -8.8590   15.6910 C.ar  600  388600      0.0890
     14  C9        16.4300  -10.0450   15.2780 C.ar  600  388600      0.0085
     15  C10       15.5950  -10.8200   16.0950 C.ar  600  388600      0.0117
     16  C12       15.3910  -10.3800   17.3840 C.ar  600  388600      0.0607
     17 CL1        14.3750  -11.2700   18.4380 Cl    600  388600     -0.0821
     18  C14       15.9790   -9.1960   17.8560 C.ar  600  388600      0.0484
     19  C15       16.8010   -8.4560   17.0110 C.ar  600  388600      0.1446
     20  O20       17.4790   -7.3480   17.4350 O.3   600  388600     -0.4635
     21  C21       16.9590   -6.5870   18.5110 C.3   600  388600      0.3186
     22  C22       15.7180   -5.8290   18.0850 C.2   600  388600      0.4084
     23  O24       14.9920   -5.4030   19.0520 O.co2 600  388600     -0.2415
     24  O23       15.5110   -5.6740   16.8770 O.co2 600  388600     -0.2415
@<TRIPOS>BOND
     1    10     9    1
     2     9     8   ar
     3     9    11   ar
     4     8     6   ar
     5    11    12   ar
     6     6     7    1
     7     6     5   ar
     8    12     5   ar
     9     5     1    1
    10     4     3    2
    11     1     2    1
    12     3     2   am
    13     3    13    1
    14    14    13   ar
    15    14    15   ar
    16    13    19   ar
    17    15    16   ar
    18    24    22   ar
    19    19    20    1
    20    19    18   ar
    21    16    18   ar
    22    16    17    1
    23    20    21    1
    24    22    21    1
    25    22    23   ar
