@<TRIPOS>MOLECULE
3lev_ATP_H_1.pdb
 32 37 0 0 0
SMALL
GASTEIGER

@<TRIPOS>ATOM
      1  PG       -10.9190  -16.2770  -13.6120 P.3   219  ATP219      0.3922
      2  PG        -9.6590  -16.1510  -14.4570 P.3   219  ATP219      0.3770
      3  O1G      -10.0260  -17.4590  -13.9040 O.3   219  ATP219     -0.2222
      4  O2G      -11.6880  -15.7720  -14.8090 O.3   219  ATP219     -0.2222
      5  O3G      -10.2630  -15.1890  -12.7970 O.3   219  ATP219     -0.2222
      6  PB       -11.7040  -17.4210  -11.1700 P.3   219  ATP219      0.2264
      7  O1B      -10.6240  -18.4680  -11.3150 O.2   219  ATP219     -0.5168
      8  O2B      -11.4770  -16.2290  -10.2710 O.3   219  ATP219     -0.4369
      9  O3B      -12.0610  -16.8730  -12.6430 O.3   219  ATP219     -0.2406
     10  PA       -13.1530  -18.9780   -9.3230 P.3   219  ATP219      0.2189
     11  O1A      -13.9310  -18.1530   -8.3270 O.3   219  ATP219     -0.4371
     12  O2A      -11.7640  -19.4700   -8.9940 O.2   219  ATP219     -0.5170
     13  O3A      -13.0650  -18.1590  -10.7120 O.3   219  ATP219     -0.2701
     14  O5'      -14.0410  -20.2560   -9.7460 O.3   219  ATP219     -0.3112
     15  C5'      -13.5590  -21.5820   -9.5400 C.3   219  ATP219      0.1813
     16  C4'      -12.6930  -21.9090  -10.7500 C.3   219  ATP219      0.1821
     17  O4'      -12.1250  -23.2180  -10.6880 O.3   219  ATP219     -0.3135
     18  C3'      -13.4380  -21.8530  -12.0780 C.3   219  ATP219      0.2184
     19  O3'      -13.3860  -20.5410  -12.6450 O.3   219  ATP219     -0.2174
     20  C2'      -12.6940  -22.8360  -12.9620 C.3   219  ATP219      0.2570
     21  O2'      -11.9740  -22.1330  -13.9780 O.3   219  ATP219     -0.2130
     22  C1'      -11.7330  -23.5540  -12.0220 C.3   219  ATP219      0.3186
     23  N9       -11.7770  -25.0170  -12.2610 N.pl3 219  ATP219     -0.1439
     24  C8       -12.4170  -25.6180  -13.2820 C.3   219  ATP219      0.3377
     25  N7       -12.2570  -26.9630  -13.2340 N.2   219  ATP219     -0.2095
     26  C5       -11.4880  -27.2370  -12.1660 C.2   219  ATP219      0.2526
     27  C6       -10.9410  -28.4600  -11.5420 C.2   219  ATP219      0.4393
     28  N6       -11.2020  -29.6770  -12.0800 N.pl3 219  ATP219      0.2180
     29  N1       -10.1820  -28.3140  -10.4320 N.2   219  ATP219      0.0021
     30  C2        -9.9260  -27.1040   -9.8990 C.3   219  ATP219      0.5254
     31  N3       -10.3920  -25.9510  -10.4130 N.2   219  ATP219     -0.0055
     32  C4       -11.1620  -25.9510  -11.5300 C.2   219  ATP219      0.3518
@<TRIPOS>BOND
     1     4     2    1
     2     4     1    1
     3     2     3    1
     4     2     1    1
     5     2     5    1
     6    21    20    1
     7     3     1    1
     8     1     5    1
     9     1     9    1
    10    24    25    1
    11    24    23    1
    12    25    26    2
    13    20    18    1
    14    20    22    1
    15    19    18    1
    16     9     6    1
    17    23    22    1
    18    23    32    1
    19    26    27    1
    20    26    32    1
    21    28    27    1
    22    18    16    1
    23    22    17    1
    24    27    29    2
    25    32    31    2
    26     7     6    2
    27     6    13    1
    28     6     8    1
    29    16    17    1
    30    16    15    1
    31    13    10    1
    32    29    30    1
    33    31    30    1
    34    14    15    1
    35    14    10    1
    36    10    12    2
    37    10    11    1
