@<TRIPOS>MOLECULE
3lf0_ATP_A_1.pdb
 31 33 0 0 0
SMALL
GASTEIGER

@<TRIPOS>ATOM
      1  PG        28.0820   -0.0530   10.8460 P.3   701  ATP701      0.5373
      2  O1G       29.1140   -0.0150    9.7460 O.2   701  ATP701     -0.2221
      3  O2G       28.6140   -0.7190   12.0910 O.3   701  ATP701     -0.1143
      4  O3G       27.2830    1.2270   10.9360 O.3   701  ATP701     -0.1143
      5  PB        27.1730   -2.2110    9.2080 P.3   701  ATP701      0.2277
      6  O1B       28.3640   -3.0140    9.6910 O.3   701  ATP701     -0.4368
      7  O2B       25.8190   -2.8280    8.9320 O.2   701  ATP701     -0.5168
      8  O3B       26.9270   -1.0420   10.2980 O.3   701  ATP701     -0.2258
      9  PA        28.2890   -1.8170    6.5880 P.3   701  ATP701      0.2189
     10  O1A       27.6010   -0.9930    5.5610 O.2   701  ATP701     -0.5170
     11  O2A       29.7800   -1.7940    6.9340 O.3   701  ATP701     -0.4371
     12  O3A       27.5640   -1.2980    7.9320 O.3   701  ATP701     -0.2700
     13  O5'       27.8190   -3.3460    6.3900 O.3   701  ATP701     -0.3112
     14  C5'       28.5090   -4.4710    6.9430 C.3   701  ATP701      0.1813
     15  C4'       28.2150   -5.6290    6.0000 C.3   701  ATP701      0.1821
     16  O4'       26.8090   -5.7220    5.7550 O.3   701  ATP701     -0.3135
     17  C3'       28.8140   -5.4210    4.6010 C.3   701  ATP701      0.2184
     18  O3'       30.1700   -5.8920    4.5590 O.3   701  ATP701     -0.2174
     19  C2'       27.8780   -6.1910    3.6920 C.3   701  ATP701      0.2570
     20  O2'       28.2200   -7.5790    3.7160 O.3   701  ATP701     -0.2130
     21  C1'       26.5520   -6.1660    4.4430 C.3   701  ATP701      0.3186
     22  N9        25.5640   -5.1980    3.9420 N.pl3 701  ATP701     -0.1439
     23  C8        25.6320   -3.8520    3.9240 C.3   701  ATP701      0.3377
     24  N7        24.4960   -3.3320    3.4020 N.2   701  ATP701     -0.2095
     25  C5        23.6870   -4.3680    3.0770 C.2   701  ATP701      0.2526
     26  C6        22.3300   -4.5730    2.5100 C.2   701  ATP701      0.4393
     27  N6        21.5310   -3.5470    2.1450 N.pl3 701  ATP701      0.2180
     28  N1        21.8880   -5.8390    2.3570 N.2   701  ATP701      0.0021
     29  C2        22.6080   -6.8980    2.7230 C.3   701  ATP701      0.5254
     30  N3        23.8370   -6.8050    3.2590 N.2   701  ATP701     -0.0055
     31  C4        24.4060   -5.5870    3.4450 C.2   701  ATP701      0.3518
@<TRIPOS>BOND
     1    27    26    1
     2    28    26    2
     3    28    29    1
     4    26    25    1
     5    29    30    1
     6    25    24    2
     7    25    31    1
     8    30    31    2
     9    24    23    1
    10    31    22    1
    11    19    20    1
    12    19    21    1
    13    19    17    1
    14    23    22    1
    15    22    21    1
    16    21    16    1
    17    18    17    1
    18    17    15    1
    19    10     9    2
    20    16    15    1
    21    15    14    1
    22    13     9    1
    23    13    14    1
    24     9    11    1
    25     9    12    1
    26    12     5    1
    27     7     5    2
    28     5     6    1
    29     5     8    1
    30     2     1    2
    31     8     1    1
    32     1     4    1
    33     1     3    1
