@<TRIPOS>MOLECULE
3lf2_NAP_A_1.pdb
 27 29 0 0 0
SMALL
GASTEIGER

@<TRIPOS>ATOM
      1  PA       -25.1480   31.7340  -54.9510 P.3   266  NAP266      0.5327
      2  O1A      -24.3970   30.8270  -54.0480 O.3   266  NAP266     -0.1145
      3  O2A      -25.1900   31.1890  -56.3290 O.2   266  NAP266     -0.2224
      4  O5B      -26.6500   31.9660  -54.4010 O.3   266  NAP266     -0.2675
      5  C5B      -26.8980   32.5370  -53.1330 C.3   266  NAP266      0.1860
      6  C4B      -28.0260   31.7880  -52.4300 C.3   266  NAP266      0.1822
      7  O4B      -29.0230   31.3820  -53.3530 O.3   266  NAP266     -0.3136
      8  C3B      -27.4830   30.5270  -51.7790 C.3   266  NAP266      0.2157
      9  O3B      -28.0650   30.3890  -50.5040 O.3   266  NAP266     -0.2175
     10  C2B      -27.9430   29.4080  -52.6910 C.3   266  NAP266      0.2314
     11  O2B      -28.0840   28.2090  -51.9660 O.3   266  NAP266     -0.2630
     12  C1B      -29.2480   29.9790  -53.2350 C.3   266  NAP266      0.3158
     13  N9A      -29.6600   29.3380  -54.5070 N.pl3 266  NAP266     -0.1439
     14  C8A      -28.9410   29.3210  -55.6790 C.3   266  NAP266      0.3377
     15  N7A      -29.6420   28.6400  -56.6150 N.2   266  NAP266     -0.2095
     16  C5A      -30.8040   28.2170  -56.0710 C.2   266  NAP266      0.2526
     17  C6A      -31.8710   27.4840  -56.5920 C.2   266  NAP266      0.4393
     18  N6A      -31.8540   27.0700  -57.8550 N.pl3 266  NAP266      0.2180
     19  N1A      -32.9540   27.1930  -55.7870 N.2   266  NAP266      0.0021
     20  C2A      -32.9620   27.6330  -54.4750 C.3   266  NAP266      0.5254
     21  N3A      -31.9010   28.3560  -53.9630 N.2   266  NAP266     -0.0055
     22  C4A      -30.8310   28.6480  -54.7440 C.2   266  NAP266      0.3518
     23  O3       -24.4730   33.1980  -54.9270 O.3   266  NAP266     -0.1145
     24  P2B      -27.7290   26.8070  -52.6840 P.3   266  NAP266      0.5328
     25  O1X      -26.4430   26.9550  -53.4720 O.3   266  NAP266     -0.1145
     26  O2X      -28.8780   26.4540  -53.5940 O.2   266  NAP266     -0.2224
     27  O3X      -27.5670   25.7050  -51.6600 O.3   266  NAP266     -0.1145
@<TRIPOS>BOND
     1    18    17    1
     2    15    16    2
     3    15    14    1
     4    17    16    1
     5    17    19    2
     6     3     1    2
     7    16    22    1
     8    19    20    1
     9    14    13    1
    10     1    23    1
    11     1     4    1
    12     1     2    1
    13    22    13    1
    14    22    21    2
    15    13    12    1
    16    20    21    1
    17     4     5    1
    18    26    24    2
    19    25    24    1
    20     7    12    1
    21     7     6    1
    22    12    10    1
    23     5     6    1
    24    10    11    1
    25    10     8    1
    26    24    11    1
    27    24    27    1
    28     6     8    1
    29     8     9    1
