@<TRIPOS>MOLECULE
3lf5_HEM_A_1.pdb
 43 50 0 0 0
SMALL
GASTEIGER

@<TRIPOS>ATOM
      1  CHA        2.7460   13.1030   23.0360 C.2     1  HEM1        0.0000
      2  CHB        4.9910   10.9490   19.3220 C.2     1  HEM1        0.0000
      3  CHC        1.9710    7.2350   19.5990 C.2     1  HEM1        0.0000
      4  CHD       -0.3930    9.4450   23.1550 C.2     1  HEM1        0.0000
      5  C1A        3.6020   12.8270   22.0060 C.ar    1  HEM1        0.0000
      6  C2A        4.7050   13.6380   21.5810 C.ar    1  HEM1        0.0000
      7  C3A        5.3130   13.0640   20.5610 C.ar    1  HEM1        0.0000
      8  C4A        4.6090   11.8370   20.2910 C.ar    1  HEM1        0.0000
      9  CMA        6.5620   13.5520   19.7930 C.3     1  HEM1        0.0000
     10  CAA        5.0990   14.9510   22.2440 C.3     1  HEM1        0.0000
     11  CBA        6.1630   14.5230   23.2390 C.3     1  HEM1        0.0000
     12  CGA        6.9580   15.6610   23.7700 C.2     1  HEM1        0.0000
     13  O1A        7.5940   15.3670   24.8070 O.co2   1  HEM1        0.0000
     14  O2A        6.9490   16.7930   23.1970 O.co2   1  HEM1        0.0000
     15  C1B        4.4230    9.7240   19.1080 C.2     1  HEM1        0.0000
     16  C2B        4.8580    8.7400   18.1430 C.2     1  HEM1        0.0000
     17  C3B        4.0230    7.7100   18.2150 C.2     1  HEM1        0.0000
     18  C4B        3.0370    8.0080   19.2410 C.2     1  HEM1        0.0000
     19  CMB        6.0670    8.8950   17.2090 C.3     1  HEM1        0.0000
     20  CAB        4.1060    6.4200   17.3710 C.2     1  HEM1        0.0000
     21  CBB        3.8190    5.2260   17.9030 C.2     1  HEM1        0.0000
     22  C1C        1.0200    7.5540   20.5240 C.ar    1  HEM1        0.0000
     23  C2C       -0.1770    6.8150   20.8550 C.ar    1  HEM1        0.0000
     24  C3C       -0.7890    7.4570   21.8390 C.ar    1  HEM1        0.0000
     25  C4C       -0.0320    8.6040   22.1630 C.ar    1  HEM1        0.0000
     26  CMC       -0.6520    5.5190   20.2060 C.3     1  HEM1        0.0000
     27  CAC       -2.0950    7.1470   22.5710 C.2     1  HEM1        0.0000
     28  CBC       -2.4040    5.9050   22.8810 C.2     1  HEM1        0.0000
     29  C1D        0.2960   10.5490   23.5390 C.2     1  HEM1        0.0000
     30  C2D        0.0370   11.2620   24.7550 C.2     1  HEM1        0.0000
     31  C3D        1.0090   12.4220   24.7230 C.2     1  HEM1        0.0000
     32  C4D        1.7570   12.2800   23.4930 C.2     1  HEM1        0.0000
     33  CMD       -1.0100   10.9050   25.8240 C.3     1  HEM1        0.0000
     34  CAD        1.1800   13.4670   25.8300 C.3     1  HEM1        0.0000
     35  CBD        2.0040   12.8690   26.9830 C.3     1  HEM1        0.0000
     36  CGD        2.1130   13.9660   28.0300 C.2     1  HEM1        0.0000
     37  O1D        1.0670   14.5200   28.4430 O.co2   1  HEM1        0.0000
     38  O2D        3.2640   14.2820   28.4190 O.co2   1  HEM1        0.0000
     39  NA         3.5590   11.7210   21.1770 N.ar    1  HEM1        0.0000
     40  NB         3.3140    9.2570   19.7690 N.2     1  HEM1        0.0000
     41  NC         1.0770    8.6510   21.3570 N.ar    1  HEM1        0.0000
     42  ND         1.2990   11.1500   22.8280 N.2     1  HEM1        0.0000
     43 FE          2.2930   10.1710   21.2940 Fe      1  HEM1        0.0000
@<TRIPOS>BOND
     1    19    16    1
     2    20    21    2
     3    20    17    1
     4    16    17    2
     5    16    15    1
     6    17    18    1
     7    15     2    1
     8    15    40    2
     9    18     3    2
    10    18    40    1
    11     2     8    2
    12     3    22    1
    13    40    43    1
    14     9     7    1
    15    26    23    1
    16     8     7   ar
    17     8    39   ar
    18    22    23   ar
    19    22    41   ar
    20     7     6   ar
    21    23    24   ar
    22    39    43    1
    23    39     5   ar
    24    43    41    1
    25    43    42    1
    26    41    25   ar
    27     6     5   ar
    28     6    10    1
    29    24    25   ar
    30    24    27    1
    31     5     1    2
    32    25     4    1
    33    10    11    1
    34    27    28    2
    35    42    32    2
    36    42    29    1
    37     1    32    1
    38     4    29    2
    39    14    12   ar
    40    11    12    1
    41    32    31    1
    42    29    30    1
    43    12    13   ar
    44    31    30    2
    45    31    34    1
    46    30    33    1
    47    34    35    1
    48    35    36    1
    49    36    38   ar
    50    36    37   ar
