@<TRIPOS>MOLECULE
3lfa_1N1_A_1.pdb
 33 36 0 0 0
SMALL
GASTEIGER

@<TRIPOS>ATOM
      1  C1        21.8210    0.0050  -24.4030 C.ar  361  1N1361      0.1120
      2  C2        22.0750    0.3610  -23.1370 C.ar  361  1N1361      0.1065
      3  C3        22.3500   -0.5470  -21.9540 C.2   361  1N1361      0.2766
      4  N6        21.6810   10.7960  -27.1840 N.3   361  1N1361     -0.2675
      5  C7        22.9820   -4.4820  -19.0270 C.ar  361  1N1361      0.0006
      6  C8        21.7260   -3.9670  -19.3380 C.ar  361  1N1361     -0.0029
      7  C9        21.5480   -3.0810  -20.4020 C.ar  361  1N1361     -0.0057
      8  C10       20.1230   -2.5790  -20.7050 C.3   361  1N1361      0.0324
      9  C11       21.6210    4.6100  -24.7880 C.2   361  1N1361      0.2025
     10  C12       21.5530    5.7640  -25.5900 C.3   361  1N1361      0.1532
     11  C13       21.7180    7.0220  -24.9810 C.2   361  1N1361      0.1809
     12  C14       21.9750    5.9500  -22.9070 C.1   361  1N1361      0.1168
     13  C15       22.1910    6.0280  -21.3960 C.3   361  1N1361      0.1429
     14  C16       21.5030    8.2870  -27.1940 C.3   361  1N1361      0.1102
     15  C19       21.8000    9.5410  -24.9570 C.3   361  1N1361      0.1102
     16  C20       22.5630   11.9610  -27.4620 C.3   361  1N1361      0.1082
     17  C21       21.7110   13.2180  -27.7560 C.3   361  1N1361      0.1993
     18  N         21.4750    3.3870  -25.3210 N.pl3 361  1N1361     -0.1613
     19  C         21.6630    2.2480  -24.6520 C.ar  361  1N1361      0.1855
     20  N1        21.6000    1.0460  -25.2340 N.ar  361  1N1361     -0.2208
     21  S         22.0030    2.0520  -22.9690 S.2   361  1N1361     -0.0450
     22  N2        22.4970   -1.8620  -22.2000 N.am  361  1N1361     -0.1744
     23  C4        22.6620   -2.7110  -21.1720 C.ar  361  1N1361      0.0802
     24  C5        23.9190   -3.2210  -20.8440 C.ar  361  1N1361      0.0726
     25  C6        24.0880   -4.1040  -19.7870 C.ar  361  1N1361      0.0127
     26 CL         25.3040   -2.7860  -21.7730 Cl    361  1N1361     -0.0809
     27  O         22.4220   -0.0280  -20.8450 O.2   361  1N1361     -0.2674
     28  N3        21.9230    7.0670  -23.6510 N.2   361  1N1361     -0.3326
     29  N4        21.8220    4.7440  -23.4720 N.2   361  1N1361     -0.3308
     30  N5        21.6690    8.2490  -25.7100 N.pl3 361  1N1361     -0.2831
     31  C17       22.2140    9.5360  -27.7710 C.3   361  1N1361      0.0939
     32  C18       21.2230   10.7400  -25.7580 C.3   361  1N1361      0.0939
     33  O1        22.4380   14.1800  -28.5660 O.3   361  1N1361     -0.2189
@<TRIPOS>BOND
     1    33    17    1
     2    31    14    1
     3    31     4    1
     4    17    16    1
     5    16     4    1
     6    14    30    1
     7     4    32    1
     8    32    15    1
     9    30    11    1
    10    30    15    1
    11    10    11    1
    12    10     9    1
    13    18     9    1
    14    18    19    1
    15    20    19   ar
    16    20     1   ar
    17    11    28    2
    18     9    29    2
    19    19    21   ar
    20     1     2   ar
    21    28    12    2
    22    29    12    2
    23     2    21   ar
    24     2     3    1
    25    12    13    1
    26    22     3   am
    27    22    23    1
    28     3    27    2
    29    26    24    1
    30    23    24   ar
    31    23     7   ar
    32    24    25   ar
    33     8     7    1
    34     7     6   ar
    35    25     5   ar
    36     6     5   ar
