@<TRIPOS>MOLECULE
3lfb_Z87_A_1.pdb
 25 27 0 0 0
SMALL
GASTEIGER

@<TRIPOS>ATOM
      1  CAA       14.0470   -7.9050  -19.1430 C.3   361  Z87361      0.0060
      2  CAB       15.2910  -10.0730  -19.0180 C.3   361  Z87361      0.0060
      3  CAC       13.8240   -9.3340  -17.1300 C.3   361  Z87361      0.0060
      4  OAE       18.2990   -5.2300  -19.2010 O.2   361  Z87361     -0.2483
      5  CAL       18.7580   -6.1530  -13.0260 C.ar  361  Z87361     -0.0027
      6  CAM       18.6990   -8.5660  -12.8520 C.ar  361  Z87361     -0.0027
      7  CAN       18.1580   -6.2270  -14.2870 C.ar  361  Z87361      0.0189
      8  CAO       18.1130   -8.6360  -14.1140 C.ar  361  Z87361      0.0189
      9  CAP       21.5250   -2.3990  -20.8810 C.ar  361  Z87361      0.0588
     10  CAQ       16.9080   -7.4450  -18.1700 C.ar  361  Z87361      0.0527
     11  CAU       19.6810   -7.2460  -10.9130 C.3   361  Z87361      0.0310
     12  NAV       22.1780   -3.8600  -19.2560 N.ar  361  Z87361     -0.2209
     13  NAW       16.2440   -8.2510  -16.2580 N.ar  361  Z87361     -0.1683
     14  NAX       18.8260   -6.3110  -17.2990 N.am  361  Z87361     -0.1417
     15  NAY       20.3090   -4.8730  -18.2060 N.am  361  Z87361     -0.1356
     16  SBA       20.0730   -3.0170  -20.2400 S.2   361  Z87361     -0.0491
     17  CBC       19.1010   -5.4560  -18.2910 C.2   361  Z87361      0.3508
     18  CBE       19.0300   -7.3210  -12.3050 C.ar  361  Z87361     -0.0218
     19  CBF       22.5400   -2.9810  -20.2180 C.ar  361  Z87361      0.1079
     20  CBG       17.8380   -7.4690  -14.8370 C.ar  361  Z87361      0.0842
     21  CBH       15.9800   -8.1830  -17.5590 C.ar  361  Z87361      0.0811
     22  CBI       17.7180   -7.0590  -17.1820 C.ar  361  Z87361      0.1587
     23  CBJ       20.8520   -4.0220  -19.1020 C.ar  361  Z87361      0.1873
     24  NBK       17.2700   -7.5920  -16.0450 N.ar  361  Z87361     -0.2145
     25  CBL       14.7850   -8.8710  -18.2200 C.3   361  Z87361      0.0372
@<TRIPOS>BOND
     1     9    16   ar
     2     9    19   ar
     3    16    23   ar
     4    19    12   ar
     5    12    23   ar
     6     4    17    2
     7     1    25    1
     8    23    15    1
     9     2    25    1
    10    17    15   am
    11    17    14   am
    12    25    21    1
    13    25     3    1
    14    10    21   ar
    15    10    22   ar
    16    21    13   ar
    17    14    22    1
    18    22    24   ar
    19    13    24   ar
    20    24    20    1
    21    20     7   ar
    22    20     8   ar
    23     7     5   ar
    24     8     6   ar
    25     5    18   ar
    26     6    18   ar
    27    18    11    1
