@<TRIPOS>MOLECULE
3lfc_Z86_A_1.pdb
 38 41 0 0 0
SMALL
GASTEIGER

@<TRIPOS>ATOM
      1  CAA       13.8270   -7.5540  -18.5830 C.3   361  Z86361      0.0060
      2  CAB       15.1780   -9.6460  -18.9940 C.3   361  Z86361      0.0060
      3  CAC       13.8210   -9.4060  -16.9040 C.3   361  Z86361      0.0060
      4  OAD       18.4640   -8.0160   -9.4660 O.co2 361  Z86361     -0.2453
      5  OAE       17.5140   -4.4390  -18.1250 O.2   361  Z86361     -0.2483
      6  OAF       19.0310   -5.8850   -9.0490 O.co2 361  Z86361     -0.2453
      7  CAG       24.4010   -4.4380  -21.3740 C.ar  361  Z86361     -0.0000
      8  CAH       23.1300   -4.4420  -20.8000 C.ar  361  Z86361     -0.0002
      9  CAI       25.0150   -3.2200  -21.6900 C.ar  361  Z86361     -0.0002
     10  CAJ       22.4810   -3.2300  -20.5470 C.ar  361  Z86361     -0.0019
     11  CAK       24.3730   -2.0040  -21.4370 C.ar  361  Z86361     -0.0019
     12  CAL       18.8180   -5.8550  -12.8860 C.ar  361  Z86361     -0.0022
     13  CAM       18.9840   -8.2660  -12.7740 C.ar  361  Z86361     -0.0022
     14  CAN       18.1270   -5.9600  -14.0990 C.ar  361  Z86361      0.0189
     15  CAO       18.2990   -8.3680  -13.9830 C.ar  361  Z86361      0.0189
     16  CAP       19.3530   -0.5040  -19.1450 C.3   361  Z86361      0.1202
     17  CAQ       16.7700   -7.2270  -17.9170 C.ar  361  Z86361      0.0527
     18  CAR       22.6890    0.1220  -18.3330 C.3   361  Z86361      0.1497
     19  CAS       21.2710    0.5180  -17.8820 C.3   361  Z86361      0.0874
     20  CAT       22.4370   -0.8270  -20.6110 C.3   361  Z86361      0.1686
     21  CAU       20.0140   -6.9370  -10.9060 C.3   361  Z86361      0.1404
     22  NAV       20.4980   -1.8620  -17.7080 N.2   361  Z86361     -0.3866
     23  NAW       16.2080   -8.0550  -15.9800 N.ar  361  Z86361     -0.1683
     24  NAX       18.6960   -6.0520  -17.1280 N.am  361  Z86361     -0.1417
     25  NAY       19.6530   -4.0430  -17.6830 N.am  361  Z86361     -0.1248
     26  OAZ       22.9840    0.2260  -19.7580 O.3   361  Z86361     -0.3486
     27  SBA       18.6230   -2.0080  -19.2610 S.3   361  Z86361     -0.0579
     28  CBB       19.0820   -6.9490   -9.7080 C.2   361  Z86361      0.3692
     29  CBC       18.5740   -4.8250  -17.6520 C.2   361  Z86361      0.3516
     30  CBD       23.1020   -2.0160  -20.8590 C.ar  361  Z86361      0.0073
     31  CBE       19.2430   -7.0120  -12.2220 C.ar  361  Z86361     -0.0109
     32  CBF       20.3420   -0.6300  -18.2470 C.2   361  Z86361      0.1028
     33  CBG       17.8650   -7.2180  -14.6500 C.ar  361  Z86361      0.0842
     34  CBH       15.8850   -7.9860  -17.2710 C.ar  361  Z86361      0.0811
     35  CBI       17.6350   -6.8580  -16.9840 C.ar  361  Z86361      0.1587
     36  CBJ       19.6470   -2.7830  -18.1420 C.2   361  Z86361      0.2338
     37  NBK       17.2240   -7.3660  -15.8160 N.ar  361  Z86361     -0.2145
     38  CBL       14.6750   -8.6630  -17.9340 C.3   361  Z86361      0.0372
@<TRIPOS>BOND
     1     9    11   ar
     2     9     7   ar
     3    11    30   ar
     4     7     8   ar
     5    30    20    1
     6    30    10   ar
     7     8    10   ar
     8    20    26    1
     9    26    18    1
    10    27    16    1
    11    27    36    1
    12    16    32    1
    13     2    38    1
    14     1    38    1
    15    18    19    1
    16    32    19    1
    17    32    22    2
    18    36    22    2
    19    36    25    1
    20     5    29    2
    21    38    34    1
    22    38     3    1
    23    17    34   ar
    24    17    35   ar
    25    25    29   am
    26    29    24   am
    27    34    23   ar
    28    24    35    1
    29    35    37   ar
    30    23    37   ar
    31    37    33    1
    32    33    14   ar
    33    33    15   ar
    34    14    12   ar
    35    15    13   ar
    36    12    31   ar
    37    13    31   ar
    38    31    21    1
    39    21    28    1
    40    28     4   ar
    41    28     6   ar
