@<TRIPOS>MOLECULE
3lfd_Z85_A_1.pdb
 35 38 0 0 0
SMALL
GASTEIGER

@<TRIPOS>ATOM
      1  CAA       19.4950   -7.0600  -10.3580 C.3   361  Z85361      0.0310
      2  CAB       13.7140   -8.6290  -16.8890 C.3   361  Z85361      0.0060
      3  CAC       14.3850   -7.4380  -18.9670 C.3   361  Z85361      0.0060
      4  CAD       15.2800   -9.7300  -18.5110 C.3   361  Z85361      0.0060
      5  OAE       17.8690   -4.2830  -17.7110 O.2   361  Z85361     -0.2483
      6  CAF       23.7840   -4.8720  -20.8620 C.ar  361  Z85361     -0.0000
      7  CAG       22.6690   -4.2030  -20.3680 C.ar  361  Z85361     -0.0002
      8  CAH       24.8570   -4.1640  -21.4130 C.ar  361  Z85361     -0.0002
      9  CAI       22.6390   -2.8150  -20.4310 C.ar  361  Z85361     -0.0019
     10  CAJ       24.8220   -2.7720  -21.4720 C.ar  361  Z85361     -0.0019
     11  CAK       17.5110   -7.0060  -11.9540 C.ar  361  Z85361     -0.0027
     12  CAL       19.7420   -7.2980  -12.8560 C.ar  361  Z85361     -0.0027
     13  CAM       16.9840   -7.0660  -13.2470 C.ar  361  Z85361      0.0189
     14  CAN       19.2080   -7.3610  -14.1410 C.ar  361  Z85361      0.0189
     15  CAO       20.4290   -0.6740  -18.7860 C.3   361  Z85361      0.1202
     16  CAP       17.0090   -7.0660  -17.7070 C.ar  361  Z85361      0.0527
     17  CAQ       23.3750    0.4030  -18.9340 C.3   361  Z85361      0.1497
     18  CAR       22.6150   -0.0340  -17.6720 C.3   361  Z85361      0.0874
     19  CAS       23.6680   -0.7070  -21.0340 C.3   361  Z85361      0.1686
     20  NAT       21.3940   -2.2250  -17.4310 N.2   361  Z85361     -0.3866
     21  NAU       16.2840   -7.9170  -15.8470 N.ar  361  Z85361     -0.1683
     22  NAV       18.9200   -6.0320  -16.7960 N.am  361  Z85361     -0.1417
     23  NAW       20.0960   -4.1930  -17.3480 N.am  361  Z85361     -0.1248
     24  OAX       22.7590    0.0380  -20.1900 O.3   361  Z85361     -0.3486
     25  SAY       19.4010   -2.0030  -18.8370 S.3   361  Z85361     -0.0579
     26  CAZ       18.9070   -4.8020  -17.3020 C.2   361  Z85361      0.3516
     27  CBA       18.8950   -7.1220  -11.7640 C.ar  361  Z85361     -0.0218
     28  CBB       23.7080   -2.0990  -20.9780 C.ar  361  Z85361      0.0073
     29  CBC       21.4570   -0.9900  -17.9730 C.2   361  Z85361      0.1028
     30  CBD       17.8330   -7.2370  -14.3500 C.ar  361  Z85361      0.0842
     31  CBE       17.8110   -6.7590  -16.6970 C.ar  361  Z85361      0.1587
     32  CBF       16.0490   -7.7920  -17.1500 C.ar  361  Z85361      0.0811
     33  CBG       20.3290   -2.9450  -17.7880 C.2   361  Z85361      0.2338
     34  NBH       17.3200   -7.3040  -15.5840 N.ar  361  Z85361     -0.2145
     35  CBI       14.8530   -8.4030  -17.8850 C.3   361  Z85361      0.0372
@<TRIPOS>BOND
     1    10     8   ar
     2    10    28   ar
     3     8     6   ar
     4    19    28    1
     5    19    24    1
     6    28     9   ar
     7     6     7   ar
     8     9     7   ar
     9    24    17    1
    10     3    35    1
    11    17    18    1
    12    25    15    1
    13    25    33    1
    14    15    29    1
    15     4    35    1
    16    29    18    1
    17    29    20    2
    18    35    32    1
    19    35     2    1
    20    33    20    2
    21    33    23    1
    22     5    26    2
    23    16    32   ar
    24    16    31   ar
    25    23    26   am
    26    26    22   am
    27    32    21   ar
    28    22    31    1
    29    31    34   ar
    30    21    34   ar
    31    34    30    1
    32    30    14   ar
    33    30    13   ar
    34    14    12   ar
    35    13    11   ar
    36    12    27   ar
    37    11    27   ar
    38    27     1    1
