@<TRIPOS>MOLECULE
3lfe_Z84_A_1.pdb
 35 38 0 0 0
SMALL
GASTEIGER

@<TRIPOS>ATOM
      1  CAA       20.1010   -7.1730  -10.7180 C.3   361  Z84361      0.0310
      2  CAB       13.9990   -7.7060  -18.8200 C.3   361  Z84361      0.0060
      3  CAC       15.2360   -9.8580  -18.4670 C.3   361  Z84361      0.0060
      4  CAD       13.5700   -9.1460  -16.8120 C.3   361  Z84361      0.0060
      5  OAE       18.1050   -4.8500  -18.6090 O.2   361  Z84361     -0.2483
      6  CAF       20.2850    1.7900  -25.4600 C.ar  361  Z84361      0.0986
      7  CAG       19.8160   -0.3660  -24.7340 C.ar  361  Z84361      0.0986
      8  CAH       21.0580    2.0400  -24.3150 C.ar  361  Z84361      0.0188
      9  CAI       20.5720   -0.1820  -23.5670 C.ar  361  Z84361      0.0188
     10  CAJ       19.0540   -8.4870  -12.6440 C.ar  361  Z84361     -0.0027
     11  CAK       18.8510   -6.0940  -12.6640 C.ar  361  Z84361     -0.0027
     12  CAL       18.3380   -8.5390  -13.8480 C.ar  361  Z84361      0.0189
     13  CAM       18.1450   -6.1430  -13.8750 C.ar  361  Z84361      0.0189
     14  CAN       20.6310   -1.7110  -19.9220 C.3   361  Z84361      0.1202
     15  CAO       16.7340   -7.1950  -17.7160 C.ar  361  Z84361      0.0527
     16  CAP       22.9090   -0.9070  -21.4930 C.3   361  Z84361      0.1497
     17  CAQ       23.0990   -1.9900  -20.4030 C.3   361  Z84361      0.0874
     18  CAR       21.9960    1.2980  -22.1840 C.3   361  Z84361      0.1687
     19  NAS       19.6940    0.6070  -25.6330 N.ar  361  Z84361     -0.2423
     20  NAT       21.6660   -3.4160  -18.8500 N.2   361  Z84361     -0.3866
     21  NAU       16.1790   -8.1030  -15.8250 N.ar  361  Z84361     -0.1683
     22  NAV       18.6730   -6.1110  -16.8230 N.am  361  Z84361     -0.1417
     23  NAW       20.0570   -4.5210  -17.5110 N.am  361  Z84361     -0.1248
     24  OAX       22.2400    0.3310  -21.0950 O.3   361  Z84361     -0.3486
     25  SAY       19.3930   -2.4100  -18.9970 S.3   361  Z84361     -0.0579
     26  CAZ       18.9030   -5.1530  -17.7110 C.2   361  Z84361      0.3516
     27  CBA       19.3180   -7.2580  -12.0440 C.ar  361  Z84361     -0.0218
     28  CBB       21.2130    1.0430  -23.3410 C.ar  361  Z84361      0.0104
     29  CBC       21.7840   -2.3820  -19.7180 C.2   361  Z84361      0.1028
     30  CBD       17.8650   -7.3670  -14.4560 C.ar  361  Z84361      0.0842
     31  CBE       17.5890   -6.8760  -16.7510 C.ar  361  Z84361      0.1587
     32  CBF       15.8340   -7.9560  -17.0960 C.ar  361  Z84361      0.0811
     33  CBG       20.4290   -3.5730  -18.3480 C.2   361  Z84361      0.2338
     34  NBH       17.2010   -7.4560  -15.6210 N.ar  361  Z84361     -0.2145
     35  CBI       14.6250   -8.6420  -17.7770 C.3   361  Z84361      0.0372
@<TRIPOS>BOND
     1    19     6   ar
     2    19     7   ar
     3     6     8   ar
     4     7     9   ar
     5     8    28   ar
     6     9    28   ar
     7    28    18    1
     8    18    24    1
     9    16    24    1
    10    16    17    1
    11    17    29    1
    12    14    29    1
    13    14    25    1
    14    29    20    2
    15    25    33    1
    16    20    33    2
    17     2    35    1
    18     5    26    2
    19     3    35    1
    20    33    23    1
    21    35    32    1
    22    35     4    1
    23    15    32   ar
    24    15    31   ar
    25    26    23   am
    26    26    22   am
    27    32    21   ar
    28    22    31    1
    29    31    34   ar
    30    21    34   ar
    31    34    30    1
    32    30    13   ar
    33    30    12   ar
    34    13    11   ar
    35    12    10   ar
    36    11    27   ar
    37    10    27   ar
    38    27     1    1
