@<TRIPOS>MOLECULE
3lff_Z83_A_1.pdb
 28 30 0 0 0
SMALL
GASTEIGER

@<TRIPOS>ATOM
      1  CAA       15.1630   -9.9340  -19.3630 C.3   362  Z83362      0.0060
      2  CAB       13.7150   -9.1290  -17.4930 C.3   362  Z83362      0.0060
      3  CAC       13.9780   -7.7380  -19.5660 C.3   362  Z83362      0.0060
      4  OAD       18.2510   -6.0560   -9.4820 O.co2 362  Z83362     -0.2453
      5  OAE       18.2210   -4.8930  -19.4780 O.2   362  Z83362     -0.2483
      6  OAF       17.3430   -7.9960  -10.0820 O.co2 362  Z83362     -0.2453
      7  CAG       22.1330   -2.3560  -20.4380 C.ar  362  Z83362      0.1079
      8  CAH       21.0930   -2.0950  -21.2460 C.ar  362  Z83362      0.0588
      9  CAI       18.5860   -6.1320  -13.2930 C.ar  362  Z83362     -0.0022
     10  CAJ       18.4410   -8.5270  -13.1890 C.ar  362  Z83362     -0.0022
     11  CAK       18.0640   -6.1540  -14.5880 C.ar  362  Z83362      0.0189
     12  CAL       17.9260   -8.5460  -14.4830 C.ar  362  Z83362      0.0189
     13  CAM       16.8440   -7.2590  -18.5570 C.ar  362  Z83362      0.0527
     14  CAN       19.3470   -7.3150  -11.1680 C.3   362  Z83362      0.1404
     15  NAO       21.9190   -3.2580  -19.4560 N.ar  362  Z83362     -0.2209
     16  NAP       16.1870   -8.0910  -16.6530 N.ar  362  Z83362     -0.1683
     17  NAQ       18.8020   -6.1550  -17.6850 N.am  362  Z83362     -0.1417
     18  NAR       20.2560   -4.6690  -18.5590 N.am  362  Z83362     -0.1356
     19  SAS       19.8090   -3.0610  -20.6990 S.2   362  Z83362     -0.0491
     20  CAT       18.2150   -7.1020  -10.1600 C.2   362  Z83362      0.3692
     21  CAU       19.0470   -5.2380  -18.6300 C.2   362  Z83362      0.3508
     22  CAV       18.7760   -7.3200  -12.5950 C.ar  362  Z83362     -0.0109
     23  CAW       17.7420   -7.3660  -15.1960 C.ar  362  Z83362      0.0842
     24  CAX       15.9080   -8.0040  -17.9530 C.ar  362  Z83362      0.0811
     25  CAY       17.6710   -6.8930  -17.5670 C.ar  362  Z83362      0.1587
     26  CAZ       20.6760   -3.7500  -19.4270 C.ar  362  Z83362      0.1873
     27  NBA       17.2210   -7.4440  -16.4320 N.ar  362  Z83362     -0.2145
     28  CBB       14.6850   -8.6910  -18.5990 C.3   362  Z83362      0.0372
@<TRIPOS>BOND
     1     8    19   ar
     2     8     7   ar
     3    19    26   ar
     4     7    15   ar
     5     3    28    1
     6     5    21    2
     7    15    26   ar
     8    26    18    1
     9     1    28    1
    10    21    18   am
    11    21    17   am
    12    28    24    1
    13    28     2    1
    14    13    24   ar
    15    13    25   ar
    16    24    16   ar
    17    17    25    1
    18    25    27   ar
    19    16    27   ar
    20    27    23    1
    21    23    11   ar
    22    23    12   ar
    23    11     9   ar
    24    12    10   ar
    25     9    22   ar
    26    10    22   ar
    27    22    14    1
    28    14    20    1
    29    20     6   ar
    30    20     4   ar
