@<TRIPOS>MOLECULE
3lfi_BGC_A_1.pdb
 12 12 0 0 0
SMALL
GASTEIGER

@<TRIPOS>ATOM
      1  C2       110.8420   18.0940  121.6250 C.3     1  BGC1        0.2434
      2  C3       112.1450   18.3170  120.8520 C.3     1  BGC1        0.2199
      3  C4       113.3070   17.5570  121.5360 C.3     1  BGC1        0.2144
      4  C5       112.9700   16.1140  121.9460 C.3     1  BGC1        0.1836
      5  C6       113.9650   15.6460  122.9960 C.3     1  BGC1        0.2142
      6  C1       110.6470   16.5920  121.6600 C.3     1  BGC1        0.3024
      7  O1       109.3930   16.2790  122.1290 O.3     1  BGC1       -0.1869
      8  O2       109.7290   18.7300  120.9990 O.3     1  BGC1       -0.2148
      9  O3       112.4410   19.7040  120.8210 O.3     1  BGC1       -0.2174
     10  O4       114.4380   17.5170  120.6820 O.3     1  BGC1       -0.2176
     11  O5       111.6420   16.0260  122.5270 O.3     1  BGC1       -0.3236
     12  O6       114.2870   15.6740  124.3170 O.3     1  BGC1       -0.2176
@<TRIPOS>BOND
     1    10     3    1
     2     9     2    1
     3     2     3    1
     4     2     1    1
     5     8     1    1
     6     3     4    1
     7     1     6    1
     8     6     7    1
     9     6    11    1
    10     4    11    1
    11     4     5    1
    12     5    12    1
