@<TRIPOS>MOLECULE
3lfl_GSH_A_1.pdb
 20 19 0 0 0
SMALL
GASTEIGER

@<TRIPOS>ATOM
      1  N1        44.2370    0.8400   17.3440 N.3   241  GSH241     -0.1208
      2  CA1       45.6420    1.0240   17.6410 C.3   241  GSH241      0.1948
      3  C1        45.7880    1.8030   18.9630 C.2   241  GSH241      0.3819
      4  O11       44.8580    2.3650   19.4310 O.co2 241  GSH241     -0.2441
      5  O12       46.7410    1.6370   19.6370 O.co2 241  GSH241     -0.2441
      6  CB1       46.3130    1.7930   16.4940 C.3   241  GSH241      0.0402
      7  CG1       47.7980    1.9540   16.8110 C.3   241  GSH241      0.0889
      8  CD1       48.6040    2.3840   15.5880 C.2   241  GSH241      0.2418
      9  OE1       48.1160    2.4170   14.5150 O.2   241  GSH241     -0.2733
     10  N2        49.9960    2.7650   15.7380 N.am  241  GSH241     -0.1968
     11  CA2       50.7600    2.8770   14.5170 C.3   241  GSH241      0.1843
     12  C2        51.5930    1.6330   14.2140 C.2   241  GSH241      0.2627
     13  O2        52.1220    1.0170   15.0940 O.2   241  GSH241     -0.2714
     14  CB2       51.6280    4.1250   14.6730 C.3   241  GSH241      0.0997
     15  SG2       50.6450    5.5900   15.0990 S.3   241  GSH241     -0.0797
     16  N3        51.9020    1.3940   12.8170 N.am  241  GSH241     -0.1917
     17  CA3       52.9370    0.4910   12.3660 C.3   241  GSH241      0.2285
     18  C3        52.3160   -0.2350   11.1840 C.2   241  GSH241      0.3865
     19  O31       52.9360   -1.0450   10.5740 O.co2 241  GSH241     -0.2437
     20  O32       51.1930    0.0140   10.9000 O.co2 241  GSH241     -0.2437
@<TRIPOS>BOND
     1    19    18   ar
     2    20    18   ar
     3    18    17    1
     4    17    16    1
     5    16    12   am
     6    12    11    1
     7    12    13    2
     8     9     8    2
     9    11    14    1
    10    11    10    1
    11    14    15    1
    12     8    10   am
    13     8     7    1
    14     6     7    1
    15     6     2    1
    16     1     2    1
    17     2     3    1
    18     3     4   ar
    19     3     5   ar
