@<TRIPOS>MOLECULE
3lfm_3DT_A_1.pdb
 18 19 0 0 0
SMALL
GASTEIGER

@<TRIPOS>ATOM
      1  N1        29.1080   -6.7830  -28.8720 N.ar  506  3DT506     -0.2572
      2  C2        28.5620   -7.3040  -27.6960 C.ar  506  3DT506      0.3355
      3  O2        29.1680   -8.1660  -27.0600 O.2   506  3DT506     -0.2461
      4  N3        27.2990   -6.8700  -27.2690 N.ar  506  3DT506     -0.2469
      5  C4        26.5910   -5.9280  -28.0240 C.ar  506  3DT506      0.2617
      6  O4        25.4810   -5.5530  -27.6480 O.2   506  3DT506     -0.2671
      7  C5        27.1390   -5.4170  -29.1970 C.ar  506  3DT506      0.0517
      8  C6        28.3940   -5.8410  -29.6200 C.ar  506  3DT506      0.0823
      9  C7        26.3670   -4.3940  -30.0300 C.3   506  3DT506      0.0376
     10  CN        26.7190   -7.3940  -26.0120 C.3   506  3DT506      0.1382
     11  C1'       30.4490   -7.2190  -29.3310 C.3   506  3DT506      0.2107
     12  C2'       30.3880   -8.2240  -30.4760 C.3   506  3DT506      0.0895
     13  C3'       31.8770   -8.2080  -30.8110 C.3   506  3DT506      0.1860
     14  O3'       32.6040   -8.8940  -29.7870 O.3   506  3DT506     -0.2203
     15  C4'       32.1700   -6.7080  -30.7890 C.3   506  3DT506      0.1804
     16  O4'       31.2080   -6.1310  -29.8840 O.3   506  3DT506     -0.3325
     17  C5'       31.9360   -6.0970  -32.1740 C.3   506  3DT506      0.2141
     18  O5'       30.6300   -6.4320  -32.6450 O.3   506  3DT506     -0.2176
@<TRIPOS>BOND
     1    18    17    1
     2    17    15    1
     3    13    15    1
     4    13    12    1
     5    13    14    1
     6    15    16    1
     7    12    11    1
     8     9     7    1
     9    16    11    1
    10     8     7   ar
    11     8     1   ar
    12    11     1    1
    13     7     5   ar
    14     1     2   ar
    15     5     6    2
    16     5     4   ar
    17     2     4   ar
    18     2     3    2
    19     4    10    1
