@<TRIPOS>MOLECULE
3lfn_A27_A_1.pdb
 28 31 0 0 0
SMALL
GASTEIGER

@<TRIPOS>ATOM
      1  C1        38.4760   -6.9670   27.6650 C.ar  299  A27299     -0.0003
      2  C2        38.7670   -7.8590   26.6150 C.ar  299  A27299     -0.0036
      3  C3        39.0740   -7.3820   25.3280 C.ar  299  A27299     -0.0143
      4  C4        39.1280   -5.9940   25.1150 C.ar  299  A27299     -0.0036
      5  C5        38.8470   -5.1040   26.1550 C.ar  299  A27299     -0.0003
      6  C6        38.5160   -5.5890   27.4290 C.ar  299  A27299     -0.0000
      7  C12       39.3850   -8.2550   24.2700 C.3   299  A27299      0.0667
      8  C13       38.6430   -8.3330   23.0630 C.2   299  A27299     -0.0127
      9  C14       39.0840   -9.1830   22.0430 C.2   299  A27299      0.0196
     10  C15       40.2340   -9.9550   22.1960 C.2   299  A27299      0.1345
     11  C16       40.9740   -9.8770   23.3690 C.2   299  A27299      0.1064
     12  C17       40.5430   -9.0360   24.4000 C.2   299  A27299     -0.0084
     13  C20       37.4790   -7.6120   22.8050 C.ar  299  A27299     -0.0031
     14  C21       37.3270   -7.0710   21.5260 C.ar  299  A27299      0.0030
     15  C22       36.2100   -6.3090   21.2130 C.ar  299  A27299      0.0420
     16  C23       35.2150   -6.1260   22.1670 C.ar  299  A27299      0.1957
     17  C24       35.3470   -6.6840   23.4390 C.ar  299  A27299      0.0420
     18  C25       36.4610   -7.4660   23.7540 C.ar  299  A27299      0.0030
     19  O30       34.1130   -5.4060   21.8380 O.3   299  A27299     -0.2866
     20  N31       40.8560  -10.8010   21.3770 N.2   299  A27299     -0.0339
     21  N32       41.8720  -11.2570   21.9120 N.2   299  A27299      0.0846
     22  C33       42.0350  -10.7480   23.1300 C.2   299  A27299      0.3963
     23  N34       43.1070  -11.0760   23.8700 N.am  299  A27299      0.0340
     24  C35       43.5290  -10.6280   25.0590 C.2   299  A27299      0.3525
     25  C36       44.8490  -11.2560   25.5110 C.3   299  A27299      0.1167
     26  C37       44.6370  -12.7000   25.9650 C.3   299  A27299      0.0122
     27  C40       45.8120  -13.1940   26.8070 C.3   299  A27299      0.0006
     28  O46       42.9620   -9.8040   25.7770 O.2   299  A27299     -0.2429
@<TRIPOS>BOND
     1    15    14   ar
     2    15    16   ar
     3    20    21    1
     4    20    10    2
     5    14    13   ar
     6    19    16    1
     7    21    22    2
     8     9    10    1
     9     9     8    2
    10    16    17   ar
    11    10    11    1
    12    13     8    1
    13    13    18   ar
    14     8     7    1
    15    22    11    1
    16    22    23    1
    17    11    12    2
    18    17    18   ar
    19    23    24   am
    20     7    12    1
    21     7     3    1
    22    24    25    1
    23    24    28    2
    24     4     3   ar
    25     4     5   ar
    26     3     2   ar
    27    25    26    1
    28    26    27    1
    29     5     6   ar
    30     2     1   ar
    31     6     1   ar
