@<TRIPOS>MOLECULE
3lfq_A28_A_1.pdb
 23 25 0 0 0
SMALL
GASTEIGER

@<TRIPOS>ATOM
      1  C1        40.0150   -8.6240   24.7250 C.2   299  A28299      0.0267
      2  C2        39.3430   -8.6810   23.4930 C.2   299  A28299      0.1559
      3  C3        39.7550   -9.5730   22.4960 C.3   299  A28299      0.2538
      4  C4        41.1350   -9.4560   24.9210 C.2   299  A28299      0.0110
      5  N5        41.4720  -11.2960   21.9250 N.2   299  A28299     -0.0351
      6  N6        42.4090  -11.8330   22.5270 N.2   299  A28299      0.0844
      7  C7        42.5160  -11.3370   23.7590 C.2   299  A28299      0.3964
      8  C8        41.5160  -10.3810   23.9310 C.2   299  A28299      0.1091
      9  C9        40.8370  -10.4240   22.7160 C.2   299  A28299      0.1515
     10  C10       39.6580   -7.6480   25.6740 C.ar  299  A28299      0.0019
     11  C11       38.3290   -7.4460   26.0740 C.ar  299  A28299      0.0001
     12  C12       38.0090   -6.4480   27.0000 C.ar  299  A28299      0.0000
     13  C13       39.0080   -5.6270   27.5250 C.ar  299  A28299      0.0000
     14  C14       40.3300   -5.8070   27.1170 C.ar  299  A28299      0.0000
     15  C15       40.6430   -6.7990   26.1840 C.ar  299  A28299      0.0001
     16  F16       38.2980   -7.8740   23.2310 F     299  A28299     -0.2056
     17  F17       39.0820   -9.6200   21.3310 F     299  A28299     -0.2232
     18  N18       43.5430  -11.6510   24.5640 N.am  299  A28299      0.0340
     19  C19       43.5400  -11.6610   25.9090 C.2   299  A28299      0.3525
     20  C20       44.8740  -12.0750   26.5480 C.3   299  A28299      0.1167
     21  O21       42.5840  -11.3850   26.6290 O.2   299  A28299     -0.2429
     22  C22       45.7870  -10.8650   26.7400 C.3   299  A28299      0.0122
     23  C23       46.7970  -11.1270   27.8560 C.3   299  A28299      0.0006
@<TRIPOS>BOND
     1    17     3    1
     2     5     6    1
     3     5     9    2
     4     3     9    1
     5     3     2    1
     6     6     7    2
     7     9     8    1
     8    16     2    1
     9     2     1    2
    10     7     8    1
    11     7    18    1
    12     8     4    2
    13    18    19   am
    14     1     4    1
    15     1    10    1
    16    10    11   ar
    17    10    15   ar
    18    19    20    1
    19    19    21    2
    20    11    12   ar
    21    15    14   ar
    22    20    22    1
    23    22    23    1
    24    12    13   ar
    25    14    13   ar
