@<TRIPOS>MOLECULE
3lfr_AMP_A_1.pdb
 23 25 0 0 0
SMALL
GASTEIGER

@<TRIPOS>ATOM
      1  P         28.8170   20.9840   17.5960 P.3     1  AMP1        0.5327
      2  O1P       27.6090   21.8680   17.7770 O.3     1  AMP1       -0.1145
      3  O2P       28.4330   19.5220   17.6790 O.3     1  AMP1       -0.1145
      4  O3P       29.6550   21.3740   16.3960 O.2     1  AMP1       -0.2224
      5  O5'       29.7150   21.3520   18.8810 O.3     1  AMP1       -0.2675
      6  C5'       30.0810   22.7070   19.1690 C.3     1  AMP1        0.1860
      7  C4'       30.0960   22.9680   20.6710 C.3     1  AMP1        0.1823
      8  O4'       28.7710   22.9060   21.2370 O.3     1  AMP1       -0.3135
      9  C3'       30.9080   21.9490   21.4730 C.3     1  AMP1        0.2184
     10  O3'       32.2920   22.2980   21.5300 O.3     1  AMP1       -0.2174
     11  C2'       30.2760   22.0240   22.8450 C.3     1  AMP1        0.2570
     12  O2'       30.6550   23.1920   23.5860 O.3     1  AMP1       -0.2130
     13  C1'       28.8320   22.2680   22.5210 C.3     1  AMP1        0.3186
     14  N9        28.0240   21.0450   22.3870 N.pl3   1  AMP1       -0.1439
     15  C8        28.1990   20.0440   21.5000 C.3     1  AMP1        0.3377
     16  N7        27.2290   19.1050   21.6400 N.2     1  AMP1       -0.2095
     17  C5        26.4090   19.5400   22.6110 C.2     1  AMP1        0.2526
     18  C6        25.1910   19.0360   23.2520 C.2     1  AMP1        0.4393
     19  N6        24.6340   17.8840   22.8440 N.pl3   1  AMP1        0.2180
     20  N1        24.6460   19.7880   24.2330 N.2     1  AMP1        0.0021
     21  C2        25.1770   20.9570   24.6400 C.3     1  AMP1        0.5254
     22  N3        26.2890   21.4830   24.0980 N.2     1  AMP1       -0.0055
     23  C4        26.9340   20.8130   23.1080 C.2     1  AMP1        0.3518
@<TRIPOS>BOND
     1     4     1    2
     2     1     3    1
     3     1     2    1
     4     1     5    1
     5     5     6    1
     6     6     7    1
     7     7     8    1
     8     7     9    1
     9     8    13    1
    10     9    10    1
    11     9    11    1
    12    15    16    1
    13    15    14    1
    14    16    17    2
    15    14    13    1
    16    14    23    1
    17    13    11    1
    18    17    23    1
    19    17    18    1
    20    19    18    1
    21    11    12    1
    22    23    22    2
    23    18    20    2
    24    22    21    1
    25    20    21    1
