@<TRIPOS>MOLECULE
3lfs_A07_A_1.pdb
 22 24 0 0 0
SMALL
GASTEIGER

@<TRIPOS>ATOM
      1  C1        39.4270   -7.6870   25.5620 C.ar  299  A07299      0.0005
      2 CL1        37.9800   -7.6880   22.8980 Cl    299  A07299     -0.0865
      3  C2        40.2440   -6.5870   25.8510 C.ar  299  A07299      0.0000
      4  C3        39.8200   -5.6070   26.7540 C.ar  299  A07299      0.0000
      5  C4        38.5750   -5.7250   27.3790 C.ar  299  A07299      0.0000
      6  C5        37.7640   -6.8320   27.1060 C.ar  299  A07299      0.0000
      7  C6        38.1830   -7.8050   26.1900 C.ar  299  A07299      0.0000
      8  C12       39.3150   -8.6950   23.3510 C.2   299  A07299      0.0415
      9  C13       39.8160   -9.6030   22.4150 C.3   299  A07299      0.0879
     10  C14       40.8690  -10.4530   22.7620 C.2   299  A07299      0.1179
     11  C15       41.4350  -10.3960   24.0320 C.2   299  A07299      0.1063
     12  C16       40.9560   -9.4580   24.9590 C.2   299  A07299      0.0095
     13  C17       39.8680   -8.6360   24.6400 C.2   299  A07299      0.0072
     14  N20       41.5610  -11.3490   22.0640 N.2   299  A07299     -0.0379
     15  N21       42.4290  -11.8890   22.7660 N.2   299  A07299      0.0843
     16  C22       42.4770  -11.3210   23.9680 C.2   299  A07299      0.3963
     17  N23       43.3290  -11.7590   24.9180 N.am  299  A07299      0.0340
     18  C24       43.4730  -11.3490   26.1890 C.2   299  A07299      0.3525
     19  C25       44.5440  -12.1110   26.9810 C.3   299  A07299      0.1167
     20  C26       45.9230  -11.4400   26.9320 C.3   299  A07299      0.0122
     21  C29       45.8560   -9.9340   27.2150 C.3   299  A07299      0.0006
     22  O35       42.8300  -10.4590   26.7450 O.2   299  A07299     -0.2429
@<TRIPOS>BOND
     1    14    10    2
     2    14    15    1
     3     9    10    1
     4     9     8    1
     5    10    11    1
     6    15    16    2
     7     2     8    1
     8     8    13    2
     9    16    11    1
    10    16    17    1
    11    11    12    2
    12    13    12    1
    13    13     1    1
    14    17    18   am
    15     1     3   ar
    16     1     7   ar
    17     3     4   ar
    18    18    22    2
    19    18    19    1
    20     7     6   ar
    21     4     5   ar
    22    20    19    1
    23    20    21    1
    24     6     5   ar
