@<TRIPOS>MOLECULE
3lft_TRP_A_1.pdb
 15 16 0 0 0
SMALL
GASTEIGER

@<TRIPOS>ATOM
      1  N         14.2210    2.9540    1.5110 N.3     1  TRP1       -0.1205
      2  CA        15.0250    3.2880    0.2990 C.3     1  TRP1        0.1987
      3  C         15.2140    4.7670    0.2030 C.2     1  TRP1        0.3822
      4  O         15.5080    5.2870   -0.8770 O.co2   1  TRP1       -0.2440
      5  CB        14.3380    2.7190   -0.9530 C.3     1  TRP1        0.0585
      6  CG        14.2220    1.2170   -0.8870 C.2     1  TRP1        0.0001
      7  CD1       13.1030    0.4620   -0.5370 C.2     1  TRP1        0.0946
      8  CD2       15.2980    0.2550   -1.1510 C.2     1  TRP1        0.0113
      9  NE1       13.4180   -0.8760   -0.5790 N.2     1  TRP1       -0.2442
     10  CE2       14.6950   -1.0600   -0.9160 C.2     1  TRP1        0.0804
     11  CE3       16.6190    0.4060   -1.5020 C.2     1  TRP1       -0.0202
     12  CZ2       15.4900   -2.1800   -1.0800 C.2     1  TRP1        0.0148
     13  CZ3       17.3920   -0.7410   -1.6520 C.3     1  TRP1        0.0521
     14  CH2       16.8170   -2.0110   -1.4460 C.2     1  TRP1       -0.0199
     15  OXT       15.0720    5.4620    1.2190 O.co2   1  TRP1       -0.2440
@<TRIPOS>BOND
     1    13    11    1
     2    13    14    1
     3    11     8    2
     4    14    12    2
     5     8    10    1
     6     8     6    1
     7    12    10    1
     8     5     6    1
     9     5     2    1
    10    10     9    2
    11     6     7    2
    12     4     3   ar
    13     9     7    1
    14     3     2    1
    15     3    15   ar
    16     2     1    1
