@<TRIPOS>MOLECULE
3lfz_AMP_A_1.pdb
 23 25 0 0 0
SMALL
GASTEIGER

@<TRIPOS>ATOM
      1  P         35.5090    0.9020   17.4200 P.3   284  AMP284      0.5327
      2  O1P       36.8380    1.2940   17.9590 O.3   284  AMP284     -0.1145
      3  O2P       34.5220    0.3530   18.5790 O.3   284  AMP284     -0.1145
      4  O3P       35.6280   -0.3210   16.3620 O.2   284  AMP284     -0.2224
      5  O5'       34.7060    2.0760   16.6850 O.3   284  AMP284     -0.2675
      6  C5'       35.0160    2.4460   15.3370 C.3   284  AMP284      0.1860
      7  C4'       34.4470    3.8240   15.0360 C.3   284  AMP284      0.1823
      8  O4'       33.0270    3.7790   15.3020 O.3   284  AMP284     -0.3135
      9  C3'       35.0130    4.8190   16.0450 C.3   284  AMP284      0.2184
     10  O3'       36.2140    5.3960   15.5270 O.3   284  AMP284     -0.2174
     11  C2'       33.9140    5.8650   16.1270 C.3   284  AMP284      0.2570
     12  O2'       34.0300    6.7990   15.0490 O.3   284  AMP284     -0.2130
     13  C1'       32.6400    5.0370   15.9320 C.3   284  AMP284      0.3186
     14  N9        31.9770    4.7900   17.2390 N.pl3 284  AMP284     -0.1439
     15  C8        32.0780    3.6940   17.9940 C.3   284  AMP284      0.3377
     16  N7        31.3340    3.8460   19.0920 N.2   284  AMP284     -0.2095
     17  C5        30.7580    5.0420   19.0330 C.2   284  AMP284      0.2526
     18  C6        29.8940    5.7470   19.8650 C.2   284  AMP284      0.4393
     19  N6        29.4700    5.2200   21.0110 N.pl3 284  AMP284      0.2180
     20  N1        29.4910    6.9760   19.4940 N.2   284  AMP284      0.0021
     21  C2        29.9050    7.5180   18.3550 C.3   284  AMP284      0.5254
     22  N3        30.7290    6.8710   17.5430 N.2   284  AMP284     -0.0055
     23  C4        31.1680    5.6410   17.8550 C.2   284  AMP284      0.3518
@<TRIPOS>BOND
     1     7     8    1
     2     7     6    1
     3     7     9    1
     4    12    11    1
     5     8    13    1
     6     6     5    1
     7    10     9    1
     8    13    11    1
     9    13    14    1
    10     9    11    1
    11     4     1    2
    12     5     1    1
    13    14    23    1
    14    14    15    1
    15     1     2    1
    16     1     3    1
    17    22    23    2
    18    22    21    1
    19    23    17    1
    20    15    16    1
    21    21    20    1
    22    17    16    2
    23    17    18    1
    24    20    18    2
    25    18    19    1
