@<TRIPOS>MOLECULE
3lfz_ATP_A_1.pdb
 31 33 0 0 0
SMALL
GASTEIGER

@<TRIPOS>ATOM
      1  PG        13.2940   19.4260   28.0490 P.3   281  ATP281      0.5373
      2  O1G       13.4630   19.9610   26.5410 O.2   281  ATP281     -0.2221
      3  O2G       13.5210   20.5020   29.0450 O.3   281  ATP281     -0.1143
      4  O3G       11.7680   18.8750   28.0950 O.3   281  ATP281     -0.1143
      5  PB        15.8050   18.1410   28.7060 P.3   281  ATP281      0.2277
      6  O1B       16.5440   19.3220   28.2030 O.2   281  ATP281     -0.5168
      7  O2B       15.7980   17.8470   30.1540 O.3   281  ATP281     -0.4368
      8  O3B       14.2670   18.1260   28.1590 O.3   281  ATP281     -0.2258
      9  PA        16.4100   16.5860   26.4380 P.3   281  ATP281      0.2189
     10  O1A       15.4790   15.4780   26.1370 O.3   281  ATP281     -0.4371
     11  O2A       16.2920   17.8700   25.7110 O.2   281  ATP281     -0.5170
     12  O3A       16.3940   16.8150   28.0200 O.3   281  ATP281     -0.2700
     13  O5'       17.8970   15.9990   26.2370 O.3   281  ATP281     -0.3112
     14  C5'       19.0480   16.8160   25.9630 C.3   281  ATP281      0.1813
     15  C4'       20.3130   16.1500   26.5290 C.3   281  ATP281      0.1821
     16  O4'       20.2840   16.3580   27.9670 O.3   281  ATP281     -0.3135
     17  C3'       20.3130   14.6300   26.2990 C.3   281  ATP281      0.2184
     18  O3'       21.6230   14.2150   25.9040 O.3   281  ATP281     -0.2174
     19  C2'       19.9400   14.0620   27.6690 C.3   281  ATP281      0.2570
     20  O2'       20.5190   12.7710   27.8750 O.3   281  ATP281     -0.2130
     21  C1'       20.5580   15.0950   28.6090 C.3   281  ATP281      0.3186
     22  N9        19.8850   15.1190   29.9340 N.pl3 281  ATP281     -0.1439
     23  C8        18.5710   15.2060   30.1660 C.3   281  ATP281      0.3377
     24  N7        18.3500   15.2010   31.4820 N.2   281  ATP281     -0.2095
     25  C5        19.5280   15.1190   32.0920 C.2   281  ATP281      0.2526
     26  C6        19.9340   15.0800   33.4240 C.2   281  ATP281      0.4393
     27  N6        19.0510   15.1240   34.4200 N.pl3 281  ATP281      0.2180
     28  N1        21.2460   14.9950   33.6970 N.2   281  ATP281      0.0021
     29  C2        22.1540   14.9480   32.7280 C.3   281  ATP281      0.5254
     30  N3        21.7980   14.9840   31.4520 N.2   281  ATP281     -0.0055
     31  C4        20.5020   15.0700   31.1070 C.2   281  ATP281      0.3518
@<TRIPOS>BOND
     1    11     9    2
     2    18    17    1
     3    14    13    1
     4    14    15    1
     5    10     9    1
     6    13     9    1
     7    17    15    1
     8    17    19    1
     9     9    12    1
    10    15    16    1
    11     2     1    2
    12    19    20    1
    13    19    21    1
    14    16    21    1
    15    12     5    1
    16     1     4    1
    17     1     8    1
    18     1     3    1
    19     8     5    1
    20     6     5    2
    21    21    22    1
    22     5     7    1
    23    22    23    1
    24    22    31    1
    25    23    24    1
    26    31    30    2
    27    31    25    1
    28    30    29    1
    29    24    25    2
    30    25    26    1
    31    29    28    1
    32    26    28    2
    33    26    27    1
