@<TRIPOS>MOLECULE
3lfz_ADP_A_1.pdb
 27 29 0 0 0
SMALL
GASTEIGER

@<TRIPOS>ATOM
      1  PB        12.5900   22.5420   24.3120 P.3   282  ADP282      0.5373
      2  O1B       11.3350   22.1550   25.0000 O.3   282  ADP282     -0.1143
      3  O2B       12.3650   22.7800   22.7160 O.2   282  ADP282     -0.2221
      4  O3B       13.8070   21.4660   24.4250 O.3   282  ADP282     -0.1143
      5  PA        13.2580   24.1190   26.4950 P.3   282  ADP282      0.2231
      6  O1A       11.9560   23.9230   27.1860 O.3   282  ADP282     -0.4370
      7  O2A       14.4580   23.1490   27.0190 O.2   282  ADP282     -0.5169
      8  O3A       13.1670   23.8940   24.9010 O.3   282  ADP282     -0.2261
      9  O5'       13.6190   25.6660   26.5870 O.3   282  ADP282     -0.3111
     10  C5'       14.8780   26.2710   26.8500 C.3   282  ADP282      0.1813
     11  C4'       14.8130   27.7120   26.2970 C.3   282  ADP282      0.1821
     12  O4'       14.9640   27.6140   24.8490 O.3   282  ADP282     -0.3135
     13  C3'       13.4520   28.3850   26.5590 C.3   282  ADP282      0.2184
     14  O3'       13.6420   29.7800   26.8170 O.3   282  ADP282     -0.2174
     15  C2'       12.6970   28.1800   25.2470 C.3   282  ADP282      0.2570
     16  O2'       11.7290   29.2070   25.0310 O.3   282  ADP282     -0.2130
     17  C1'       13.8180   28.2480   24.2100 C.3   282  ADP282      0.3186
     18  N9        13.4190   27.4980   22.9840 N.pl3 282  ADP282     -0.1439
     19  C8        12.7900   26.3190   22.9340 C.3   282  ADP282      0.3377
     20  N7        12.5950   25.9650   21.6630 N.2   282  ADP282     -0.2095
     21  C5        13.1010   26.9200   20.8940 C.2   282  ADP282      0.2526
     22  C6        13.1940   27.1050   19.5190 C.2   282  ADP282      0.4393
     23  N6        12.7090   26.2010   18.6710 N.pl3 282  ADP282      0.2180
     24  N1        13.7900   28.2180   19.0580 N.2   282  ADP282      0.0021
     25  C2        14.2790   29.1280   19.8920 C.3   282  ADP282      0.5254
     26  N3        14.2050   28.9810   21.2060 N.2   282  ADP282     -0.0055
     27  C4        13.6230   27.8940   21.7340 C.2   282  ADP282      0.3518
@<TRIPOS>BOND
     1    23    22    1
     2    24    22    2
     3    24    25    1
     4    22    21    1
     5    25    26    1
     6    21    20    2
     7    21    27    1
     8    26    27    2
     9    20    19    1
    10    27    18    1
    11     3     1    2
    12    19    18    1
    13    18    17    1
    14    17    12    1
    15    17    15    1
    16     1     4    1
    17     1     8    1
    18     1     2    1
    19    12    11    1
    20     8     5    1
    21    16    15    1
    22    15    13    1
    23    11    13    1
    24    11    10    1
    25     5     9    1
    26     5     7    2
    27     5     6    1
    28    13    14    1
    29     9    10    1
