@<TRIPOS>MOLECULE
3lg1_HEC_A_1.pdb
 43 50 0 0 0
SMALL
GASTEIGER

@<TRIPOS>ATOM
      1 FE         35.5430   24.5340  148.5920 Fe    1004  HEC1004     0.0000
      2  CHA       36.2670   27.6250  147.4120 C.2   1004  HEC1004     0.0000
      3  CHB       38.0320   23.1820  146.6600 C.2   1004  HEC1004     0.0000
      4  CHC       34.8850   21.5320  149.8980 C.2   1004  HEC1004     0.0000
      5  CHD       32.7980   25.8370  150.3070 C.2   1004  HEC1004     0.0000
      6  NA        36.8840   25.2510  147.2800 N.ar  1004  HEC1004     0.0000
      7  C1A       36.9810   26.5720  146.8970 C.ar  1004  HEC1004     0.0000
      8  C2A       37.9960   26.6840  145.8770 C.ar  1004  HEC1004     0.0000
      9  C3A       38.4830   25.4520  145.6650 C.ar  1004  HEC1004     0.0000
     10  C4A       37.8090   24.5370  146.5400 C.ar  1004  HEC1004     0.0000
     11  CMA       39.5990   25.0990  144.6720 C.3   1004  HEC1004     0.0000
     12  CAA       38.4390   27.9940  145.1860 C.3   1004  HEC1004     0.0000
     13  CBA       39.3970   28.7580  146.1290 C.3   1004  HEC1004     0.0000
     14  CGA       40.5420   27.9270  146.7080 C.2   1004  HEC1004     0.0000
     15  O1A       41.5390   27.6230  146.0020 O.co2 1004  HEC1004     0.0000
     16  O2A       40.5110   27.5830  147.9180 O.co2 1004  HEC1004     0.0000
     17  NB        36.3190   22.7030  148.3180 N.2   1004  HEC1004     0.0000
     18  C1B       37.4020   22.3450  147.5690 C.2   1004  HEC1004     0.0000
     19  C2B       37.8020   20.9930  147.9390 C.2   1004  HEC1004     0.0000
     20  C3B       36.9070   20.4970  148.8190 C.2   1004  HEC1004     0.0000
     21  C4B       35.9890   21.6030  149.0820 C.2   1004  HEC1004     0.0000
     22  CMB       38.9690   20.3050  147.2170 C.3   1004  HEC1004     0.0000
     23  CAB       36.8460   19.0560  149.4720 C.3   1004  HEC1004     0.0000
     24  CBB       38.2330   18.7140  150.0740 C.3   1004  HEC1004     0.0000
     25  NC        34.1140   23.8400  149.8710 N.ar  1004  HEC1004     0.0000
     26  C1C       34.0040   22.5150  150.2220 C.ar  1004  HEC1004     0.0000
     27  C2C       32.9130   22.3690  151.1760 C.ar  1004  HEC1004     0.0000
     28  C3C       32.2200   23.5390  151.1990 C.ar  1004  HEC1004     0.0000
     29  C4C       33.0390   24.4960  150.4580 C.ar  1004  HEC1004     0.0000
     30  CMC       32.3550   20.9800  151.5740 C.3   1004  HEC1004     0.0000
     31  CAC       30.8470   23.7970  151.8700 C.3   1004  HEC1004     0.0000
     32  CBC       30.7570   23.5590  153.4100 C.3   1004  HEC1004     0.0000
     33  ND        34.6830   26.3730  148.8090 N.2   1004  HEC1004     0.0000
     34  C1D       33.5960   26.7020  149.6060 C.2   1004  HEC1004     0.0000
     35  C2D       33.4010   28.1320  149.6490 C.2   1004  HEC1004     0.0000
     36  C3D       34.4830   28.6950  148.7810 C.2   1004  HEC1004     0.0000
     37  C4D       35.2230   27.5430  148.2930 C.2   1004  HEC1004     0.0000
     38  CMD       32.2980   28.8980  150.4400 C.3   1004  HEC1004     0.0000
     39  CAD       34.6910   30.2000  148.4960 C.3   1004  HEC1004     0.0000
     40  CBD       35.2750   30.9200  149.7310 C.3   1004  HEC1004     0.0000
     41  CGD       36.7470   30.6520  149.9920 C.2   1004  HEC1004     0.0000
     42  O1D       37.4450   30.0850  149.1040 O.co2 1004  HEC1004     0.0000
     43  O2D       37.2790   31.0300  151.0830 O.co2 1004  HEC1004     0.0000
@<TRIPOS>BOND
     1    11     9    1
     2    12     8    1
     3    12    13    1
     4     9     8   ar
     5     9    10   ar
     6     8     7   ar
     7    15    14   ar
     8    13    14    1
     9    10     3    2
    10    10     6   ar
    11     3    18    1
    12    14    16   ar
    13     7     6   ar
    14     7     2    2
    15    22    19    1
    16     6     1    1
    17     2    37    1
    18    18    19    1
    19    18    17    2
    20    19    20    2
    21    37    36    1
    22    37    33    2
    23    17     1    1
    24    17    21    1
    25    39    36    1
    26    39    40    1
    27     1    33    1
    28     1    25    1
    29    36    35    2
    30    33    34    1
    31    20    21    1
    32    20    23    1
    33    21     4    2
    34    42    41   ar
    35    23    24    1
    36    34    35    1
    37    34     5    2
    38    35    38    1
    39    40    41    1
    40    25    26   ar
    41    25    29   ar
    42     4    26    1
    43    41    43   ar
    44    26    27   ar
    45     5    29    1
    46    29    28   ar
    47    27    28   ar
    48    27    30    1
    49    28    31    1
    50    31    32    1
