@<TRIPOS>MOLECULE
3lg4_52V_A_1.pdb
 29 31 0 0 0
SMALL
GASTEIGER

@<TRIPOS>ATOM
      1  C1       -17.8260  -23.8330   13.2810 C.2   168  52V168      0.2282
      2  C2       -23.1880  -32.0110   11.6690 C.3   168  52V168      0.2525
      3  C3       -15.5270  -24.1580   13.0310 C.1   168  52V168      0.2419
      4  C6       -18.0680  -24.9720   12.5160 C.3   168  52V168      0.1831
      5  C12      -21.9040  -26.2410   11.7120 C.3   168  52V168      0.0864
      6  C13      -22.7060  -26.1860   13.0240 C.3   168  52V168      0.0187
      7  C14      -21.9430  -27.6510   11.0470 C.ar  168  52V168     -0.0074
      8  C15      -21.9420  -28.8400   11.7970 C.ar  168  52V168      0.0336
      9  C16      -21.9880  -30.0910   11.1590 C.ar  168  52V168      0.1384
     10  C17      -22.0290  -30.1590    9.7700 C.ar  168  52V168      0.0369
     11  C18      -22.0330  -28.9910    9.0140 C.ar  168  52V168      0.0021
     12  C26      -19.5940  -29.7740    7.6190 C.3   168  52V168      0.0310
     13  C20      -20.9220  -29.4710    6.9050 C.ar  168  52V168     -0.0221
     14  C21      -20.9570  -29.5760    5.5130 C.ar  168  52V168     -0.0043
     15  C22      -22.1330  -29.3140    4.8180 C.ar  168  52V168     -0.0006
     16  C23      -23.2780  -28.9470    5.5200 C.ar  168  52V168     -0.0043
     17  C24      -23.2610  -28.8340    6.9070 C.ar  168  52V168     -0.0221
     18  C27      -24.5630  -28.4220    7.6050 C.3   168  52V168      0.0310
     19  C25      -22.0760  -29.0950    7.6180 C.ar  168  52V168     -0.0078
     20  C19      -21.9890  -27.7410    9.6510 C.ar  168  52V168     -0.0031
     21  O17      -21.9820  -31.2520   11.8800 O.3   168  52V168     -0.4714
     22  C11      -20.5310  -25.7980   11.9950 C.1   168  52V168     -0.0868
     23  C10      -19.4040  -25.4120   12.2400 C.1   168  52V168     -0.0761
     24  C5       -16.9780  -25.6810   12.0220 C.2   168  52V168      0.1207
     25  C8       -17.1840  -26.9370   11.1770 C.3   168  52V168      0.0641
     26  N4       -15.7360  -25.2550   12.2930 N.2   168  52V168     -0.3332
     27  N7       -14.2860  -23.7700   13.2770 N.pl3 168  52V168     -0.0232
     28  N2       -16.5590  -23.4540   13.5200 N.2   168  52V168     -0.3105
     29  N9       -18.8360  -23.1200   13.7740 N.pl3 168  52V168     -0.0955
@<TRIPOS>BOND
     1    15    14   ar
     2    15    16   ar
     3    14    13   ar
     4    16    17   ar
     5    13    19   ar
     6    13    12    1
     7    17    18    1
     8    17    19   ar
     9    19    11    1
    10    11    20   ar
    11    11    10   ar
    12    20     7   ar
    13    10     9   ar
    14     7     5    1
    15     7     8   ar
    16     9     8   ar
    17     9    21    1
    18    25    24    1
    19     2    21    1
    20     5    22    1
    21     5     6    1
    22    22    23    3
    23    24    26    2
    24    24     4    1
    25    23     4    1
    26    26     3    2
    27     4     1    1
    28     3    27    1
    29     3    28    2
    30     1    28    2
    31     1    29    1
