@<TRIPOS>MOLECULE
3lg4_NAP_A_1.pdb
 48 52 0 0 0
SMALL
GASTEIGER

@<TRIPOS>ATOM
      1  PA       -27.6270  -17.2280   11.4380 P.3   207  NAP207      0.2189
      2  O1A      -26.6970  -16.3340   12.1690 O.3   207  NAP207     -0.4371
      3  O2A      -27.6640  -18.5700   12.0480 O.2   207  NAP207     -0.5170
      4  O5B      -29.1060  -16.6070   11.3810 O.3   207  NAP207     -0.3112
      5  C5B      -29.4070  -15.3760   11.9950 C.3   207  NAP207      0.1813
      6  C4B      -30.6790  -15.5360   12.8040 C.3   207  NAP207      0.1820
      7  O4B      -30.4000  -15.5590   14.1890 O.3   207  NAP207     -0.3136
      8  C3B      -31.6500  -14.3890   12.5970 C.3   207  NAP207      0.2157
      9  O3B      -32.4750  -14.6060   11.4770 O.3   207  NAP207     -0.2175
     10  C2B      -32.4450  -14.4380   13.8770 C.3   207  NAP207      0.2314
     11  O2B      -33.4060  -15.4650   13.7890 O.3   207  NAP207     -0.2630
     12  C1B      -31.4170  -14.8800   14.9000 C.3   207  NAP207      0.3158
     13  N9A      -30.8800  -13.7090   15.6210 N.pl3 207  NAP207     -0.1439
     14  C8A      -29.6780  -13.0860   15.4020 C.3   207  NAP207      0.3377
     15  N7A      -29.5640  -12.0590   16.2770 N.2   207  NAP207     -0.2095
     16  C5A      -30.6740  -12.0110   17.0510 C.2   207  NAP207      0.2526
     17  C6A      -31.0770  -11.1720   18.0970 C.2   207  NAP207      0.4393
     18  N6A      -30.2990  -10.1740   18.5060 N.pl3 207  NAP207      0.2180
     19  N1A      -32.2990  -11.3740   18.7170 N.2   207  NAP207      0.0021
     20  C2A      -33.1170  -12.4090   18.3000 C.3   207  NAP207      0.5254
     21  N3A      -32.7100  -13.2380   17.2660 N.2   207  NAP207     -0.0055
     22  C4A      -31.5110  -13.0460   16.6490 C.2   207  NAP207      0.3518
     23  O3       -27.2310  -17.3410    9.8850 O.3   207  NAP207     -0.2703
     24  PN       -26.5940  -16.3050    8.8350 P.3   207  NAP207      0.2189
     25  O1N      -27.6050  -16.0450    7.7870 O.2   207  NAP207     -0.5170
     26  O2N      -25.9880  -15.1740    9.5720 O.3   207  NAP207     -0.4371
     27  O5D      -25.4230  -17.1950    8.1810 O.3   207  NAP207     -0.3112
     28  C5D      -25.6740  -18.5220    7.7720 C.3   207  NAP207      0.1813
     29  C4D      -24.4470  -19.0160    7.0220 C.3   207  NAP207      0.1799
     30  O4D      -23.3810  -19.1970    7.9250 O.3   207  NAP207     -0.3327
     31  C3D      -24.6640  -20.3430    6.3140 C.3   207  NAP207      0.2158
     32  O3D      -24.3580  -20.1660    4.9450 O.3   207  NAP207     -0.2175
     33  C2D      -23.6930  -21.3070    6.9680 C.3   207  NAP207      0.2309
     34  O2D      -23.1120  -22.1420    5.9960 O.3   207  NAP207     -0.2158
     35  C1D      -22.6670  -20.3670    7.5890 C.3   207  NAP207      0.2263
     36  N1N      -21.9500  -20.8710    8.7810 N.pl3 207  NAP207     -0.2787
     37  C2N      -20.5910  -21.0680    8.6910 C.3   207  NAP207      0.1244
     38  C3N      -19.8480  -21.5270    9.7840 C.2   207  NAP207      0.0544
     39  C7N      -18.3430  -21.5950    9.7130 C.2   207  NAP207      0.2818
     40  O7N      -17.5840  -21.6720   10.8990 O.2   207  NAP207     -0.2670
     41  N7N      -17.7470  -21.5820    8.5220 N.am  207  NAP207     -0.0839
     42  C4N      -20.5110  -21.7750   10.9880 C.2   207  NAP207      0.0033
     43  C5N      -21.8890  -21.5590   11.0780 C.2   207  NAP207      0.0157
     44  C6N      -22.6020  -21.0990    9.9690 C.2   207  NAP207      0.0633
     45  P2B      -34.9850  -15.1600   13.7780 P.3   207  NAP207      0.5328
     46  O1X      -35.2900  -14.3080   12.5670 O.2   207  NAP207     -0.2224
     47  O2X      -35.7390  -16.4630   13.6810 O.3   207  NAP207     -0.1145
     48  O3X      -35.3860  -14.4430   15.0490 O.3   207  NAP207     -0.1145
@<TRIPOS>BOND
     1    32    31    1
     2    34    33    1
     3    31    33    1
     4    31    29    1
     5    33    35    1
     6    29    28    1
     7    29    30    1
     8    35    30    1
     9    35    36    1
    10    28    27    1
    11    25    24    2
    12    27    24    1
    13    41    39   am
    14    37    36    1
    15    37    38    1
    16    36    44    1
    17    24    26    1
    18    24    23    1
    19    39    38    1
    20    39    40    2
    21    38    42    2
    22    23     1    1
    23    44    43    2
    24    42    43    1
    25     4     1    1
    26     4     5    1
    27     1     3    2
    28     1     2    1
    29     9     8    1
    30     5     6    1
    31    46    45    2
    32     8     6    1
    33     8    10    1
    34     6     7    1
    35    47    45    1
    36    45    11    1
    37    45    48    1
    38    11    10    1
    39    10    12    1
    40     7    12    1
    41    12    13    1
    42    14    13    1
    43    14    15    1
    44    13    22    1
    45    15    16    2
    46    22    16    1
    47    22    21    2
    48    16    17    1
    49    21    20    1
    50    17    18    1
    51    17    19    2
    52    20    19    1
