@<TRIPOS>MOLECULE
3lg5_BTM_A_1.pdb
 14 14 0 0 0
SMALL
GASTEIGER

@<TRIPOS>ATOM
      1  N          6.1070   -0.5760   18.3790 N.4   704  BTM704      0.3926
      2  C1         4.6780   -0.5080   18.7900 C.3   704  BTM704     -0.0456
      3  C2         6.2090   -0.0140   17.0000 C.3   704  BTM704     -0.0726
      4  C3         7.6570    0.1160   16.4380 C.3   704  BTM704     -0.0244
      5  C4         6.5300   -1.9920   18.2190 C.3   704  BTM704     -0.0726
      6  C5         6.0870   -2.7550   16.9500 C.3   704  BTM704     -0.0244
      7  C6         6.9420    0.0320   19.4620 C.3   704  BTM704     -0.0726
      8  C7         6.8800   -0.3050   20.9630 C.3   704  BTM704     -0.0244
      9  C8         4.0000    0.8670   18.6010 C.ar  704  BTM704     -0.0426
     10  C9         3.2420    1.0980   17.4140 C.ar  704  BTM704     -0.0063
     11  C10        2.5880    2.4830   17.2500 C.ar  704  BTM704     -0.0004
     12  C11        2.7090    3.4680   18.2790 C.ar  704  BTM704     -0.0000
     13  C12        3.4890    3.1770   19.4830 C.ar  704  BTM704     -0.0004
     14  C13        4.1360    1.8440   19.6860 C.ar  704  BTM704     -0.0063
@<TRIPOS>BOND
     1     4     3    1
     2     6     5    1
     3     3     1    1
     4    11    10   ar
     5    11    12   ar
     6    10     9   ar
     7     5     1    1
     8    12    13   ar
     9     1     2    1
    10     1     7    1
    11     9     2    1
    12     9    14   ar
    13     7     8    1
    14    13    14   ar
