@<TRIPOS>MOLECULE
3lga_SAH_A_1.pdb
 26 28 0 0 0
SMALL
GASTEIGER

@<TRIPOS>ATOM
      1  N         -9.8620   21.4120   23.8050 N.3   301  SAH301     -0.1208
      2  CA       -11.3620   21.1390   23.7210 C.3   301  SAH301      0.1952
      3  CB       -12.1020   22.2330   24.5080 C.3   301  SAH301      0.0422
      4  CG       -11.7950   22.2480   26.0230 C.3   301  SAH301      0.0597
      5  SD       -12.7900   23.5240   26.9030 S.3   301  SAH301     -0.1375
      6  C        -11.8910   21.0370   22.2670 C.2   301  SAH301      0.3819
      7  O        -11.1360   21.3700   21.3360 O.co2 301  SAH301     -0.2441
      8  OXT      -13.0470   20.6720   21.9580 O.co2 301  SAH301     -0.2441
      9  C5'      -12.1030   23.2600   28.5910 C.3   301  SAH301      0.0899
     10  C4'      -12.6430   21.9580   29.2030 C.3   301  SAH301      0.1630
     11  O4'      -11.8600   21.5400   30.3060 O.3   301  SAH301     -0.3153
     12  C3'      -14.0660   22.1060   29.7220 C.3   301  SAH301      0.2168
     13  O3'      -14.7820   21.0680   29.1110 O.3   301  SAH301     -0.2175
     14  C2'      -13.9500   21.8990   31.2250 C.3   301  SAH301      0.2569
     15  O2'      -15.0780   21.2530   31.7450 O.3   301  SAH301     -0.2130
     16  C1'      -12.7070   21.0250   31.3130 C.3   301  SAH301      0.3185
     17  N9       -11.9650   21.1210   32.5670 N.pl3 301  SAH301     -0.1439
     18  C8       -11.7380   22.2530   33.3220 C.3   301  SAH301      0.3377
     19  N7       -10.9710   21.8880   34.3900 N.2   301  SAH301     -0.2095
     20  C5       -10.7270   20.5670   34.3260 C.2   301  SAH301      0.2526
     21  C6       -10.0150   19.6980   35.1740 C.2   301  SAH301      0.4393
     22  N6        -9.4140   20.1580   36.2760 N.pl3 301  SAH301      0.2180
     23  N1        -9.9180   18.3700   34.8260 N.2   301  SAH301      0.0021
     24  C2       -10.5330   17.8900   33.6930 C.3   301  SAH301      0.5254
     25  N3       -11.2560   18.7440   32.8550 N.2   301  SAH301     -0.0055
     26  C4       -11.3420   20.0640   33.1800 C.2   301  SAH301      0.3518
@<TRIPOS>BOND
     1     7     6   ar
     2     8     6   ar
     3     6     2    1
     4     2     1    1
     5     2     3    1
     6     3     4    1
     7     4     5    1
     8     5     9    1
     9     9    10    1
    10    13    12    1
    11    10    12    1
    12    10    11    1
    13    12    14    1
    14    11    16    1
    15    14    16    1
    16    14    15    1
    17    16    17    1
    18    17    26    1
    19    17    18    1
    20    25    26    2
    21    25    24    1
    22    26    20    1
    23    18    19    1
    24    24    23    1
    25    20    19    2
    26    20    21    1
    27    23    21    2
    28    21    22    1
