@<TRIPOS>MOLECULE
3lgf_LYS_B_1.pdb
 11 10 0 0 0
SMALL
GASTEIGER

@<TRIPOS>ATOM
      1  N         -7.3620   -0.0550    7.2850 N.3   370  LYS370     -0.1245
      2  CA        -7.1270    0.8720    8.4230 C.3   370  LYS370      0.1561
      3  CB        -5.6410    1.1870    8.5340 C.3   370  LYS370      0.0271
      4  CG        -5.1380    0.9760    9.9570 C.3   370  LYS370      0.0034
      5  CD        -4.3610   -0.3290   10.0720 C.3   370  LYS370      0.0174
      6  CE        -3.4220   -0.2920   11.2730 C.3   370  LYS370      0.0722
      7  NZ        -3.8370   -1.2740   12.2840 N.3   370  LYS370     -0.2703
      8  CH1       -2.7080   -1.5520   13.1820 C.3   370  LYS370      0.0897
      9  CH2       -4.2440   -2.5220   11.6260 C.3   370  LYS370      0.0897
     10  C         -7.8840    2.1560    8.2570 C.2   370  LYS370      0.2260
     11  O         -8.1330    2.5580    7.0990 O.2   370  LYS370     -0.2867
@<TRIPOS>BOND
     1    11    10    2
     2     1     2    1
     3    10     2    1
     4     2     3    1
     5     3     4    1
     6     4     5    1
     7     5     6    1
     8     6     7    1
     9     9     7    1
    10     7     8    1
