@<TRIPOS>MOLECULE
3lgg_CFE_A_1.pdb
 20 22 0 0 0
SMALL
GASTEIGER

@<TRIPOS>ATOM
      1  N1        12.2330   10.5830   13.5460 N.2   513  CFE513     -0.2181
      2  C2        13.4100   11.1440   13.9390 C.3   513  CFE513      0.3373
      3  N3        14.4700   10.3800   13.5950 N.pl3 513  CFE513     -0.1440
      4  N4        14.6850    8.2750   12.4530 N.2   513  CFE513     -0.0132
      5  C5        14.3110    7.4090   11.5970 C.2   513  CFE513      0.3344
      6  N6        13.2080    7.2770   10.9550 N.2   513  CFE513     -0.2226
      7  C7        11.9730    8.0820   10.9330 C.3   513  CFE513      0.1687
      8  C8        11.5040    8.4810   12.3220 C.3   513  CFE513      0.2229
      9  O8        11.3690    7.3110   13.1350 O.3   513  CFE513     -0.2142
     10  C9        12.4770    9.4170   12.9200 C.2   513  CFE513      0.1720
     11  C10       13.9500    9.3310   12.9520 C.2   513  CFE513      0.3450
     12  C1S       15.9050   10.6880   13.8470 C.3   513  CFE513      0.3186
     13  C2S       16.3570   11.7280   12.8320 C.3   513  CFE513      0.2570
     14  O2S       17.4460   11.1950   12.0770 O.3   513  CFE513     -0.2130
     15  C3S       16.7560   12.9560   13.6400 C.3   513  CFE513      0.2186
     16  O3S       17.9840   13.5580   13.2110 O.3   513  CFE513     -0.2174
     17  C4S       16.8960   12.4450   15.0620 C.3   513  CFE513      0.1851
     18  O4S       16.1000   11.2620   15.1460 O.3   513  CFE513     -0.3134
     19  C5S       16.4330   13.4720   16.0820 C.3   513  CFE513      0.2143
     20  O5S       16.8230   13.0030   17.3780 O.3   513  CFE513     -0.2176
@<TRIPOS>BOND
     1     7     6    1
     2     7     8    1
     3     6     5    2
     4     5     4    1
     5    14    13    1
     6     8    10    1
     7     8     9    1
     8     4    11    2
     9    13    15    1
    10    13    12    1
    11    10    11    1
    12    10     1    2
    13    11     3    1
    14    16    15    1
    15     1     2    1
    16     3    12    1
    17     3     2    1
    18    15    17    1
    19    12    18    1
    20    17    18    1
    21    17    19    1
    22    19    20    1
