@<TRIPOS>MOLECULE
3lgl_LYS_B_1.pdb
 27 26 0 0 0
SMALL
GASTEIGER

@<TRIPOS>ATOM
      1  N         -8.6250    2.5060    6.8590 N.3   382  LYS382     -0.2453
      2  CA        -7.8540    3.1080    7.9390 C.3   382  LYS382      0.0877
      3  CB        -6.3520    2.7860    7.9950 C.3   382  LYS382     -0.0289
      4  CG        -5.7350    1.7060    8.8830 C.3   382  LYS382     -0.0500
      5  CD        -4.9360    2.1950   10.0820 C.3   382  LYS382     -0.0402
      6  CE        -4.1410    1.1260   10.8190 C.3   382  LYS382     -0.0017
      7  NZ        -4.6440    0.5280   12.0280 N.3   382  LYS382     -0.3083
      8  CH1       -4.2310   -0.8530   12.0860 C.3   382  LYS382     -0.0131
      9  CH2       -6.0770    0.5200   11.9080 C.3   382  LYS382     -0.0131
     10  C         -7.9960    4.6170    7.8880 C.2   382  LYS382      0.2177
     11  O         -7.9850    5.2110    8.9080 O.2   382  LYS382     -0.2872
     12  H         -9.6020    2.7080    6.9900 H     382  LYS382      0.1414
     13  HA        -8.2930    2.7720    8.8780 H     382  LYS382      0.0557
     14  HB2       -6.0540    2.5480    6.9750 H     382  LYS382      0.0285
     15  HB3       -5.8520    3.7170    8.2580 H     382  LYS382      0.0285
     16  HG2       -6.5390    1.0710    9.2490 H     382  LYS382      0.0266
     17  HG3       -5.0750    1.0980    8.2640 H     382  LYS382      0.0266
     18  HD2       -4.2430    2.9610    9.7400 H     382  LYS382      0.0278
     19  HD3       -5.6280    2.6530   10.7890 H     382  LYS382      0.0278
     20  HE2       -3.1710    1.5600   11.0580 H     382  LYS382      0.0426
     21  HE3       -3.9680    0.3150   10.1110 H     382  LYS382      0.0426
     22 HH11       -4.8610   -1.4490   11.4270 H     382  LYS382      0.0391
     23 HH12       -4.3260   -1.2190   13.1070 H     382  LYS382      0.0391
     24 HH13       -3.1930   -0.9360   11.7670 H     382  LYS382      0.0391
     25 HH21       -6.3590    0.0880   10.9500 H     382  LYS382      0.0391
     26 HH22       -6.4510    1.5410   11.9700 H     382  LYS382      0.0391
     27 HH23       -6.5060   -0.0730   12.7150 H     382  LYS382      0.0391
@<TRIPOS>BOND
     1     1    12    1
     2     1     2    1
     3    14     3    1
     4    10     2    1
     5    10    11    2
     6     2     3    1
     7     2    13    1
     8     3    15    1
     9     3     4    1
    10    17     4    1
    11     4    16    1
    12     4     5    1
    13    18     5    1
    14     5    19    1
    15     5     6    1
    16    21     6    1
    17     6    20    1
    18     6     7    1
    19    25     9    1
    20    22     8    1
    21    24     8    1
    22     9    26    1
    23     9     7    1
    24     9    27    1
    25     7     8    1
    26     8    23    1
