@<TRIPOS>MOLECULE
3lgm_HEM_A_1.pdb
 43 50 0 0 0
SMALL
GASTEIGER

@<TRIPOS>ATOM
      1  CHA       10.3270  -28.7690  -13.1250 C.2   200  HEM200      0.0000
      2  CHB       15.1010  -29.0690  -14.0300 C.2   200  HEM200      0.0000
      3  CHC       15.4780  -26.5570   -9.9340 C.2   200  HEM200      0.0000
      4  CHD       11.5770  -24.2820  -11.7320 C.2   200  HEM200      0.0000
      5  C1A       11.5120  -29.1630  -13.7470 C.ar  200  HEM200      0.0000
      6  C2A       11.7360  -30.0250  -14.9030 C.ar  200  HEM200      0.0000
      7  C3A       13.0620  -30.0930  -15.1390 C.ar  200  HEM200      0.0000
      8  C4A       13.7320  -29.2730  -14.1620 C.ar  200  HEM200      0.0000
      9  CMA       13.7610  -30.8970  -16.2680 C.3   200  HEM200      0.0000
     10  CAA       10.6510  -30.7650  -15.7350 C.3   200  HEM200      0.0000
     11  CBA        9.8300  -31.6990  -14.8460 C.3   200  HEM200      0.0000
     12  CGA       10.1310  -33.1650  -15.0380 C.2   200  HEM200      0.0000
     13  O1A       10.8240  -33.5720  -16.0070 O.co2 200  HEM200      0.0000
     14  O2A        9.6420  -33.9570  -14.2040 O.co2 200  HEM200      0.0000
     15  C1B       15.6870  -28.5510  -12.8910 C.2   200  HEM200      0.0000
     16  C2B       17.0560  -28.7070  -12.3940 C.2   200  HEM200      0.0000
     17  C3B       17.1560  -28.0080  -11.2440 C.2   200  HEM200      0.0000
     18  C4B       15.8690  -27.3930  -10.9700 C.2   200  HEM200      0.0000
     19  CMB       18.1890  -29.5350  -13.0470 C.3   200  HEM200      0.0000
     20  CAB       18.4140  -27.8910  -10.3500 C.2   200  HEM200      0.0000
     21  CBB       18.3730  -28.4180   -9.1160 C.2   200  HEM200      0.0000
     22  C1C       14.5490  -25.5520  -10.1560 C.ar  200  HEM200      0.0000
     23  C2C       14.5390  -24.2190   -9.6060 C.ar  200  HEM200      0.0000
     24  C3C       13.4630  -23.5770  -10.1010 C.ar  200  HEM200      0.0000
     25  C4C       12.7480  -24.4840  -11.0060 C.ar  200  HEM200      0.0000
     26  CMC       15.6110  -23.6870   -8.6070 C.3   200  HEM200      0.0000
     27  CAC       13.0610  -22.1200   -9.7930 C.2   200  HEM200      0.0000
     28  CBC       12.6590  -21.2930  -10.7770 C.2   200  HEM200      0.0000
     29  C1D       10.7510  -25.3250  -12.1360 C.2   200  HEM200      0.0000
     30  C2D        9.3150  -25.2970  -12.2990 C.2   200  HEM200      0.0000
     31  C3D        8.8980  -26.7030  -12.7140 C.2   200  HEM200      0.0000
     32  C4D       10.1320  -27.4630  -12.7630 C.2   200  HEM200      0.0000
     33  CMD        8.3980  -24.0730  -12.0920 C.3   200  HEM200      0.0000
     34  CAD        7.4510  -27.1880  -12.9680 C.3   200  HEM200      0.0000
     35  CBD        6.9180  -27.3010  -11.5090 C.3   200  HEM200      0.0000
     36  CGD        5.4990  -27.8420  -11.3610 C.2   200  HEM200      0.0000
     37  O1D        5.0460  -28.1420  -10.2000 O.co2 200  HEM200      0.0000
     38  O2D        4.8180  -27.9670  -12.4100 O.co2 200  HEM200      0.0000
     39  NA        12.7560  -28.7170  -13.3470 N.ar  200  HEM200      0.0000
     40  NB        15.0230  -27.7520  -11.9940 N.2   200  HEM200      0.0000
     41  NC        13.4430  -25.6760  -10.9880 N.ar  200  HEM200      0.0000
     42  ND        11.1620  -26.6240  -12.3930 N.2   200  HEM200      0.0000
     43 FE         13.0700  -27.2140  -12.1430 Fe    200  HEM200      0.0000
@<TRIPOS>BOND
     1     9     7    1
     2    13    12   ar
     3    10     6    1
     4    10    11    1
     5     7     6   ar
     6     7     8   ar
     7    12    11    1
     8    12    14   ar
     9     6     5   ar
    10     8     2    2
    11     8    39   ar
    12     2    15    1
    13     5    39   ar
    14     5     1    2
    15    39    43    1
    16     1    32    1
    17    19    16    1
    18    34    31    1
    19    34    35    1
    20    15    16    1
    21    15    40    2
    22    32    31    1
    23    32    42    2
    24    31    30    2
    25    38    36   ar
    26    16    17    2
    27    42    43    1
    28    42    29    1
    29    30    29    1
    30    30    33    1
    31    43    40    1
    32    43    41    1
    33    29     4    2
    34    40    18    1
    35     4    25    1
    36    35    36    1
    37    36    37   ar
    38    17    18    1
    39    17    20    1
    40    25    41   ar
    41    25    24   ar
    42    41    22   ar
    43    18     3    2
    44    28    27    2
    45    20    21    2
    46    22     3    1
    47    22    23   ar
    48    24    27    1
    49    24    23   ar
    50    23    26    1
