@<TRIPOS>MOLECULE
3lgn_HEM_A_1.pdb
 43 50 0 0 0
SMALL
GASTEIGER

@<TRIPOS>ATOM
      1  CHA       10.4260  -28.4540  -12.7010 C.2   200  HEM200      0.0000
      2  CHB       15.1840  -28.8030  -13.6320 C.2   200  HEM200      0.0000
      3  CHC       15.5700  -26.2280   -9.5550 C.2   200  HEM200      0.0000
      4  CHD       11.6680  -23.9600  -11.2880 C.2   200  HEM200      0.0000
      5  C1A       11.6120  -28.8880  -13.2840 C.ar  200  HEM200      0.0000
      6  C2A       11.8080  -29.8600  -14.3440 C.ar  200  HEM200      0.0000
      7  C3A       13.1300  -29.9520  -14.5980 C.ar  200  HEM200      0.0000
      8  C4A       13.8190  -29.0320  -13.7180 C.ar  200  HEM200      0.0000
      9  CMA       13.8220  -30.8630  -15.6400 C.3   200  HEM200      0.0000
     10  CAA       10.6830  -30.6790  -15.0180 C.3   200  HEM200      0.0000
     11  CBA       10.4390  -31.8100  -14.0130 C.3   200  HEM200      0.0000
     12  CGA        9.9910  -33.1040  -14.6320 C.2   200  HEM200      0.0000
     13  O1A       10.5530  -33.5410  -15.6680 O.co2 200  HEM200      0.0000
     14  O2A        9.0480  -33.7080  -14.0620 O.co2 200  HEM200      0.0000
     15  C1B       15.7690  -28.2700  -12.4970 C.2   200  HEM200      0.0000
     16  C2B       17.1160  -28.4390  -11.9710 C.2   200  HEM200      0.0000
     17  C3B       17.2050  -27.7270  -10.8350 C.2   200  HEM200      0.0000
     18  C4B       15.9350  -27.0790  -10.5900 C.2   200  HEM200      0.0000
     19  CMB       18.2390  -29.2880  -12.6080 C.3   200  HEM200      0.0000
     20  CAB       18.4330  -27.6060   -9.9110 C.2   200  HEM200      0.0000
     21  CBB       18.3460  -28.0690   -8.6600 C.2   200  HEM200      0.0000
     22  C1C       14.6450  -25.2160   -9.7500 C.ar  200  HEM200      0.0000
     23  C2C       14.6000  -23.8760   -9.1940 C.ar  200  HEM200      0.0000
     24  C3C       13.5250  -23.2450   -9.6950 C.ar  200  HEM200      0.0000
     25  C4C       12.8340  -24.1690  -10.5710 C.ar  200  HEM200      0.0000
     26  CMC       15.6290  -23.2810   -8.2060 C.3   200  HEM200      0.0000
     27  CAC       13.0680  -21.8020   -9.3960 C.2   200  HEM200      0.0000
     28  CBC       12.7210  -20.9990  -10.4090 C.2   200  HEM200      0.0000
     29  C1D       10.8550  -25.0010  -11.6860 C.2   200  HEM200      0.0000
     30  C2D        9.4260  -24.9590  -11.8600 C.2   200  HEM200      0.0000
     31  C3D        9.0200  -26.3640  -12.3020 C.2   200  HEM200      0.0000
     32  C4D       10.2480  -27.1370  -12.3370 C.2   200  HEM200      0.0000
     33  CMD        8.5000  -23.7490  -11.6650 C.3   200  HEM200      0.0000
     34  CAD        7.5750  -26.8310  -12.5710 C.3   200  HEM200      0.0000
     35  CBD        7.0390  -27.1080  -11.1550 C.3   200  HEM200      0.0000
     36  CGD        5.5620  -27.4460  -11.0830 C.2   200  HEM200      0.0000
     37  O1D        5.0690  -27.6480   -9.9390 O.co2 200  HEM200      0.0000
     38  O2D        4.8720  -27.5130  -12.1370 O.co2 200  HEM200      0.0000
     39  NA        12.8610  -28.3960  -12.9500 N.ar  200  HEM200      0.0000
     40  NB        15.1050  -27.4490  -11.6210 N.2   200  HEM200      0.0000
     41  NC        13.5520  -25.3460  -10.5730 N.ar  200  HEM200      0.0000
     42  ND        11.2910  -26.2930  -11.9660 N.2   200  HEM200      0.0000
     43 FE         13.1880  -26.8810  -11.7620 Fe    200  HEM200      0.0000
@<TRIPOS>BOND
     1    13    12   ar
     2     9     7    1
     3    10     6    1
     4    10    11    1
     5    12    14   ar
     6    12    11    1
     7     7     6   ar
     8     7     8   ar
     9     6     5   ar
    10     8     2    2
    11     8    39   ar
    12     2    15    1
    13     5    39   ar
    14     5     1    2
    15    39    43    1
    16     1    32    1
    17    19    16    1
    18    34    31    1
    19    34    35    1
    20    15    16    1
    21    15    40    2
    22    32    31    1
    23    32    42    2
    24    31    30    2
    25    38    36   ar
    26    16    17    2
    27    42    43    1
    28    42    29    1
    29    30    29    1
    30    30    33    1
    31    43    40    1
    32    43    41    1
    33    29     4    2
    34    40    18    1
    35     4    25    1
    36    35    36    1
    37    36    37   ar
    38    17    18    1
    39    17    20    1
    40    18     3    2
    41    41    25   ar
    42    41    22   ar
    43    25    24   ar
    44    28    27    2
    45    20    21    2
    46    22     3    1
    47    22    23   ar
    48    24    27    1
    49    24    23   ar
    50    23    26    1
