@<TRIPOS>MOLECULE
3lgp_50X_A_1.pdb
 41 45 0 0 0
SMALL
GASTEIGER

@<TRIPOS>ATOM
      1  N1         5.6520   11.7720   21.4920 N.am  485  50X485     -0.2753
      2  C2         6.0790   12.1030   20.1490 C.3   485  50X485      0.0980
      3  C3         4.8590   11.8620   19.2330 C.3   485  50X485      0.0261
      4  C4         3.8930   10.9710   20.0510 C.3   485  50X485      0.0236
      5  C5         4.3410   11.0020   21.5500 C.3   485  50X485      0.0938
      6  C6         8.8720    5.3210   31.6940 C.2   485  50X485      0.0797
      7  C7         9.3350    3.9740   31.7980 C.2   485  50X485      0.1284
      8  C8         8.4160    2.9260   32.1580 C.3   485  50X485      0.0863
      9  C9         7.0380    3.2680   32.4160 C.2   485  50X485     -0.0186
     10  C10        6.5840    4.6300   32.3500 C.2   485  50X485     -0.0028
     11  C11        7.5040    5.6450   31.9610 C.2   485  50X485      0.0168
     12  N12       10.0370    6.0480   31.3190 N.pl3 485  50X485     -0.2527
     13  C13       11.0750    5.1150   31.2070 C.2   485  50X485      0.2593
     14  N14       10.6650    3.8930   31.5000 N.2   485  50X485     -0.3855
     15  C15        7.6900    8.0880   28.0590 C.ar  485  50X485      0.0288
     16  S16        7.7860    8.2870   29.8030 S.2   485  50X485     -0.0922
     17  C17        9.4610    7.8480   29.7830 C.ar  485  50X485      0.0273
     18  C18        9.8430    7.4240   28.4830 C.ar  485  50X485      0.0041
     19  C19        8.8760    7.7010   27.4600 C.ar  485  50X485      0.0041
     20  C20        6.4500   12.2280   22.5690 C.2   485  50X485      0.2595
     21  C21        5.9780   11.6570   23.9710 C.3   485  50X485      0.2665
     22  C22        6.5210   10.2790   23.9900 C.3   485  50X485      0.2680
     23  C23        6.0230    9.3460   25.0680 C.2   485  50X485      0.2753
     24  O24        4.9090    8.8250   25.0380 O.2   485  50X485     -0.2705
     25  N25        6.8690    9.1960   26.1520 N.am  485  50X485     -0.1978
     26  O26        6.4670   12.5140   24.9840 O.3   485  50X485     -0.2099
     27  C27        6.4940    8.5770   27.3870 C.3   485  50X485      0.1479
     28  O28        7.9590   10.4540   23.9400 O.3   485  50X485     -0.2098
     29  O29        7.4260   13.0900   22.4360 O.2   485  50X485     -0.2720
     30  C30       10.1700    7.5030   31.0720 C.3   485  50X485      0.1309
     31  C31       12.5070    5.4620   30.8310 C.3   485  50X485      0.4605
     32  F32       13.1710    4.3240   30.5880 F     485  50X485     -0.1625
     33  F33       12.6150    6.2450   29.6550 F     485  50X485     -0.1625
     34  F34       13.1600    6.0450   31.9310 F     485  50X485     -0.1625
     35  C35        7.3180   11.3140   19.7720 C.ar  485  50X485     -0.0034
     36  C36        7.4900    9.9540   20.1560 C.ar  485  50X485      0.0087
     37  C37        8.6700    9.2490   19.7710 C.ar  485  50X485      0.0574
     38  C38        9.6780    9.8900   19.0210 C.ar  485  50X485      0.0114
     39  C39        9.4900   11.2600   18.6360 C.ar  485  50X485      0.0006
     40  C40        8.3270   11.9700   19.0060 C.ar  485  50X485     -0.0026
     41 CL41        8.8280    7.6000   20.2440 Cl    485  50X485     -0.0823
@<TRIPOS>BOND
     1    39    40   ar
     2    39    38   ar
     3    40    35   ar
     4    38    37   ar
     5     3     4    1
     6     3     2    1
     7    37    36   ar
     8    37    41    1
     9    35     2    1
    10    35    36   ar
    11     4     5    1
    12     2     1    1
    13     1     5    1
    14     1    20   am
    15    29    20    2
    16    20    21    1
    17    28    22    1
    18    21    22    1
    19    21    26    1
    20    22    23    1
    21    24    23    2
    22    23    25   am
    23    25    27    1
    24    27    15    1
    25    19    15   ar
    26    19    18   ar
    27    15    16   ar
    28    18    17   ar
    29    33    31    1
    30    17    16   ar
    31    17    30    1
    32    32    31    1
    33    31    13    1
    34    31    34    1
    35    30    12    1
    36    13    12    1
    37    13    14    2
    38    12     6    1
    39    14     7    2
    40     6     7    1
    41     6    11    2
    42     7     8    1
    43    11    10    1
    44     8     9    1
    45    10     9    2
