@<TRIPOS>MOLECULE
3lgq_HEC_A_1.pdb
 43 50 0 0 0
SMALL
GASTEIGER

@<TRIPOS>ATOM
      1 FE         34.8910   26.6670  150.5360 Fe    1004  HEC1004     0.0000
      2  CHA       35.7340   29.8020  149.4270 C.2   1004  HEC1004     0.0000
      3  CHB       37.3790   25.2700  148.5620 C.2   1004  HEC1004     0.0000
      4  CHC       34.2010   23.5960  151.8320 C.2   1004  HEC1004     0.0000
      5  CHD       32.1620   28.0140  152.2570 C.2   1004  HEC1004     0.0000
      6  NA        36.2780   27.3670  149.2570 N.ar  1004  HEC1004     0.0000
      7  C1A       36.4200   28.7180  148.8960 C.ar  1004  HEC1004     0.0000
      8  C2A       37.4250   28.7910  147.8660 C.ar  1004  HEC1004     0.0000
      9  C3A       37.8470   27.5530  147.6280 C.ar  1004  HEC1004     0.0000
     10  C4A       37.1540   26.6290  148.4990 C.ar  1004  HEC1004     0.0000
     11  CMA       38.9070   27.1180  146.6120 C.3   1004  HEC1004     0.0000
     12  CAA       37.9210   30.0830  147.1590 C.3   1004  HEC1004     0.0000
     13  CBA       38.9360   30.8010  148.0850 C.3   1004  HEC1004     0.0000
     14  CGA       40.1650   29.9620  148.4130 C.2   1004  HEC1004     0.0000
     15  O1A       40.9620   29.6930  147.4860 O.co2 1004  HEC1004     0.0000
     16  O2A       40.3720   29.5370  149.5950 O.co2 1004  HEC1004     0.0000
     17  NB        35.6400   24.7890  150.2320 N.2   1004  HEC1004     0.0000
     18  C1B       36.7490   24.4250  149.4780 C.2   1004  HEC1004     0.0000
     19  C2B       37.1380   23.0590  149.8420 C.2   1004  HEC1004     0.0000
     20  C3B       36.2210   22.5670  150.7280 C.2   1004  HEC1004     0.0000
     21  C4B       35.2960   23.6690  151.0070 C.2   1004  HEC1004     0.0000
     22  CMB       38.3110   22.3350  149.1330 C.3   1004  HEC1004     0.0000
     23  CAB       36.1600   21.1450  151.3870 C.3   1004  HEC1004     0.0000
     24  CBB       37.5200   20.8020  152.0490 C.3   1004  HEC1004     0.0000
     25  NC        33.4610   25.9640  151.8060 N.ar  1004  HEC1004     0.0000
     26  C1C       33.3410   24.6330  152.1570 C.ar  1004  HEC1004     0.0000
     27  C2C       32.2330   24.5090  153.0800 C.ar  1004  HEC1004     0.0000
     28  C3C       31.5750   25.7010  153.1210 C.ar  1004  HEC1004     0.0000
     29  C4C       32.4040   26.6560  152.3590 C.ar  1004  HEC1004     0.0000
     30  CMC       31.6900   23.1040  153.5210 C.3   1004  HEC1004     0.0000
     31  CAC       30.2150   26.0300  153.8070 C.3   1004  HEC1004     0.0000
     32  CBC       30.1330   25.7710  155.3440 C.3   1004  HEC1004     0.0000
     33  ND        34.0960   28.5540  150.8120 N.2   1004  HEC1004     0.0000
     34  C1D       32.9810   28.8970  151.5840 C.2   1004  HEC1004     0.0000
     35  C2D       32.7870   30.3110  151.6100 C.2   1004  HEC1004     0.0000
     36  C3D       33.9010   30.8710  150.7470 C.2   1004  HEC1004     0.0000
     37  C4D       34.6510   29.7290  150.2810 C.2   1004  HEC1004     0.0000
     38  CMD       31.6770   31.0680  152.3630 C.3   1004  HEC1004     0.0000
     39  CAD       34.1300   32.3540  150.4130 C.3   1004  HEC1004     0.0000
     40  CBD       34.7310   33.0920  151.6060 C.3   1004  HEC1004     0.0000
     41  CGD       36.2110   32.8530  151.7620 C.2   1004  HEC1004     0.0000
     42  O1D       36.9310   32.4860  150.7920 O.co2 1004  HEC1004     0.0000
     43  O2D       36.7100   33.0270  152.9180 O.co2 1004  HEC1004     0.0000
@<TRIPOS>BOND
     1    11     9    1
     2    12     8    1
     3    12    13    1
     4    15    14   ar
     5     9     8   ar
     6     9    10   ar
     7     8     7   ar
     8    13    14    1
     9    14    16   ar
    10    10     3    2
    11    10     6   ar
    12     3    18    1
    13     7     6   ar
    14     7     2    2
    15    22    19    1
    16     6     1    1
    17     2    37    1
    18    18    19    1
    19    18    17    2
    20    19    20    2
    21    17     1    1
    22    17    21    1
    23    37    36    1
    24    37    33    2
    25    39    36    1
    26    39    40    1
    27     1    33    1
    28     1    25    1
    29    20    21    1
    30    20    23    1
    31    36    35    2
    32    42    41   ar
    33    33    34    1
    34    21     4    2
    35    23    24    1
    36    34    35    1
    37    34     5    2
    38    40    41    1
    39    35    38    1
    40    41    43   ar
    41    25    26   ar
    42    25    29   ar
    43     4    26    1
    44    26    27   ar
    45     5    29    1
    46    29    28   ar
    47    27    28   ar
    48    27    30    1
    49    28    31    1
    50    31    32    1
