@<TRIPOS>MOLECULE
3lgr_PDC_A_1.pdb
 12 12 0 0 0
SMALL
GASTEIGER

@<TRIPOS>ATOM
      1  N1        53.1640   20.3800   -0.6200 N.2   303  PDC303     -0.3925
      2  C2        52.6380   21.2310    0.2810 C.2   303  PDC303      0.2102
      3  C3        51.3980   21.8530    0.0180 C.2   303  PDC303      0.0347
      4  C4        50.6790   21.5060   -1.1140 C.2   303  PDC303     -0.0156
      5  C5        51.2260   20.5520   -2.0010 C.3   303  PDC303      0.0920
      6  C6        52.4820   20.0200   -1.7050 C.2   303  PDC303      0.1927
      7  C7        53.5740   21.4860    1.4380 C.2   303  PDC303      0.4168
      8  O1        54.7730   20.9590    1.3320 O.co2 303  PDC303     -0.2377
      9  O2        53.1340   22.3120    2.2780 O.co2 303  PDC303     -0.2377
     10  C8        53.2020   18.9930   -2.5650 C.2   303  PDC303      0.4130
     11  O3        52.6270   18.5580   -3.5840 O.co2 303  PDC303     -0.2380
     12  O4        54.3310   18.6080   -2.1370 O.co2 303  PDC303     -0.2380
@<TRIPOS>BOND
     1    11    10   ar
     2    10    12   ar
     3    10     6    1
     4     5     6    1
     5     5     4    1
     6     6     1    2
     7     4     3    2
     8     1     2    2
     9     3     2    1
    10     2     7    1
    11     8     7   ar
    12     7     9   ar
