@<TRIPOS>MOLECULE
3lgs_SAH_A_1.pdb
 17 19 0 0 0
SMALL
GASTEIGER

@<TRIPOS>ATOM
      1  C4'       21.5800   -7.9660    8.5140 C.3   268  SAH268      0.1820
      2  O4'       22.0840   -9.2510    8.8970 O.3   268  SAH268     -0.3135
      3  C3'       21.4010   -7.1640    9.7920 C.3   268  SAH268      0.2184
      4  O3'       20.0400   -6.7200    9.9090 O.3   268  SAH268     -0.2174
      5  C2'       21.7490   -8.1080   10.9350 C.3   268  SAH268      0.2570
      6  O2'       20.5550   -8.4860   11.6440 O.3   268  SAH268     -0.2130
      7  C1'       22.3580   -9.3410   10.3010 C.3   268  SAH268      0.3186
      8  N9        23.8220   -9.4950   10.5860 N.pl3 268  SAH268     -0.1439
      9  C8        24.6880  -10.2080    9.8320 C.3   268  SAH268      0.3377
     10  N7        25.9410  -10.1740   10.3520 N.2   268  SAH268     -0.2095
     11  C5        25.9020   -9.4290   11.4660 C.2   268  SAH268      0.2526
     12  C6        26.8840   -8.9870   12.4920 C.2   268  SAH268      0.4393
     13  N6        28.2000   -9.3300   12.4340 N.pl3 268  SAH268      0.2180
     14  N1        26.4270   -8.2060   13.4920 N.2   268  SAH268      0.0021
     15  C2        25.1400   -7.8430   13.5600 C.3   268  SAH268      0.5254
     16  N3        24.2020   -8.2120   12.6700 N.2   268  SAH268     -0.0055
     17  C4        24.5060   -8.9900   11.6130 C.2   268  SAH268      0.3518
@<TRIPOS>BOND
     1     1     2    1
     2     1     3    1
     3     2     7    1
     4     3     4    1
     5     3     5    1
     6     9    10    1
     7     9     8    1
     8     7     8    1
     9     7     5    1
    10    10    11    2
    11     8    17    1
    12     5     6    1
    13    11    17    1
    14    11    12    1
    15    17    16    2
    16    13    12    1
    17    12    14    2
    18    16    15    1
    19    14    15    1
