@<TRIPOS>MOLECULE
3lgs_ADE_A_1.pdb
 10 11 0 0 0
SMALL
GASTEIGER

@<TRIPOS>ATOM
      1  N9        24.1540   -9.5190   10.6540 N.2   269  ADE269     -0.1914
      2  C8        25.0680  -10.2680    9.9620 C.3   269  ADE269      0.2618
      3  N7        26.2660  -10.2430   10.4920 N.2   269  ADE269     -0.2267
      4  C5        26.1340   -9.4230   11.5940 C.2   269  ADE269      0.2303
      5  C6        27.0500   -8.9890   12.5750 C.2   269  ADE269      0.4393
      6  N6        28.3440   -9.3370   12.5910 N.pl3 269  ADE269      0.2185
      7  N1        26.5850   -8.1660   13.5350 N.2   269  ADE269     -0.0265
      8  C2        25.3010   -7.8110   13.5060 C.3   269  ADE269      0.4008
      9  N3        24.3510   -8.1580   12.6430 N.2   269  ADE269     -0.1640
     10  C4        24.8380   -8.9720   11.7040 C.1   269  ADE269      0.0579
@<TRIPOS>BOND
     1     2     3    1
     2     2     1    1
     3     3     4    2
     4     1    10    2
     5     4    10    1
     6     4     5    1
     7    10     9    2
     8     5     6    1
     9     5     7    2
    10     9     8    1
    11     8     7    1
