@<TRIPOS>MOLECULE
3lgx_ATP_A_1.pdb
 31 33 0 0 0
SMALL
GASTEIGER

@<TRIPOS>ATOM
      1  PG        46.4220   66.8870   44.6540 P.3   600  ATP600      0.5373
      2  O1G       47.0430   68.1950   45.1150 O.3   600  ATP600     -0.1143
      3  O2G       45.7560   67.0190   43.3030 O.2   600  ATP600     -0.2221
      4  O3G       47.3140   65.6770   44.8470 O.3   600  ATP600     -0.1143
      5  PB        45.4410   66.5910   47.2820 P.3   600  ATP600      0.2277
      6  O1B       45.5690   65.1410   47.6660 O.2   600  ATP600     -0.5168
      7  O2B       44.3570   67.5030   47.8130 O.3   600  ATP600     -0.4368
      8  O3B       45.2210   66.6200   45.6930 O.3   600  ATP600     -0.2258
      9  PA        48.1950   66.8070   48.2230 P.3   600  ATP600      0.2189
     10  O1A       48.9350   67.9570   48.8060 O.3   600  ATP600     -0.4371
     11  O2A       48.8820   65.9680   47.1880 O.2   600  ATP600     -0.5170
     12  O3A       46.8290   67.3850   47.5760 O.3   600  ATP600     -0.2700
     13  O5'       47.6790   65.8120   49.3800 O.3   600  ATP600     -0.3112
     14  C5'       48.4600   65.5160   50.5390 C.3   600  ATP600      0.1813
     15  C4'       47.7750   64.3510   51.2250 C.3   600  ATP600      0.1821
     16  O4'       48.1970   63.1050   50.6740 O.3   600  ATP600     -0.3135
     17  C3'       48.0360   64.2260   52.7130 C.3   600  ATP600      0.2184
     18  O3'       47.0080   64.9280   53.3860 O.3   600  ATP600     -0.2174
     19  C2'       47.8440   62.7590   52.9810 C.3   600  ATP600      0.2570
     20  O2'       46.4370   62.5160   53.0960 O.3   600  ATP600     -0.2130
     21  C1'       48.2550   62.1040   51.6860 C.3   600  ATP600      0.3186
     22  N9        49.6260   61.5650   51.7320 N.pl3 600  ATP600     -0.1439
     23  C8        50.7140   62.1860   51.2930 C.3   600  ATP600      0.3377
     24  N7        51.8050   61.4080   51.5020 N.2   600  ATP600     -0.2095
     25  C5        51.4070   60.2590   52.0800 C.2   600  ATP600      0.2526
     26  C6        52.0330   59.0160   52.5290 C.2   600  ATP600      0.4393
     27  N6        53.3680   58.8300   52.4290 N.pl3 600  ATP600      0.2180
     28  N1        51.2610   58.0560   53.0760 N.2   600  ATP600      0.0021
     29  C2        49.9510   58.2270   53.2340 C.3   600  ATP600      0.5254
     30  N3        49.3190   59.3450   52.8200 N.2   600  ATP600     -0.0055
     31  C4        49.9770   60.3760   52.2410 C.2   600  ATP600      0.3518
@<TRIPOS>BOND
     1     3     1    2
     2     1     4    1
     3     1     2    1
     4     1     8    1
     5     8     5    1
     6    11     9    2
     7     5    12    1
     8     5     6    2
     9     5     7    1
    10    12     9    1
    11     9    10    1
    12     9    13    1
    13    13    14    1
    14    14    15    1
    15    16    15    1
    16    16    21    1
    17    15    17    1
    18    23    24    1
    19    23    22    1
    20    24    25    2
    21    21    22    1
    22    21    19    1
    23    22    31    1
    24    25    31    1
    25    25    26    1
    26    31    30    2
    27    27    26    1
    28    26    28    2
    29    17    19    1
    30    17    18    1
    31    30    29    1
    32    19    20    1
    33    28    29    1
