@<TRIPOS>MOLECULE
3lgz_PS7_B_1.pdb
 39 39 0 0 0
SMALL
GASTEIGER

@<TRIPOS>ATOM
      1  CAA      -27.7110   15.6950   11.5850 C.3   288  PS7288      0.0260
      2  CAB      -25.1760   15.6750   12.0140 C.3   288  PS7288      0.0260
      3  CAC      -22.5180   20.6010    9.5020 C.3   288  PS7288      0.0260
      4  CAD      -23.4060   22.3940    7.9090 C.3   288  PS7288      0.0260
      5  CAE      -29.1250   12.3550    8.0720 C.3   288  PS7288      0.0260
      6  CAF      -23.5770   15.9860    8.9600 C.3   288  PS7288      0.0260
      7  CAG      -27.6940    8.1800    5.5350 C.3   288  PS7288      0.0260
      8  CAH      -22.9130   10.9780    5.7180 C.3   288  PS7288      0.0004
      9  OAI      -20.2080    8.0450    9.9890 O.3   288  PS7288     -0.1143
     10  OAJ      -24.5230    7.0720    9.2380 O.2   288  PS7288     -0.5169
     11  OAK      -21.9550    6.5060    8.7880 O.2   288  PS7288     -0.2221
     12  OAL      -20.9860    6.0120   11.1280 O.3   288  PS7288     -0.1143
     13  OAM      -24.9660    8.4420   11.3930 O.3   288  PS7288     -0.4370
     14  CAN      -26.3500   13.8280   10.7620 C.2   288  PS7288     -0.0342
     15  CAO      -23.4450   19.9880    7.2840 C.2   288  PS7288     -0.0342
     16  CAP      -28.9090   10.0550    8.6140 C.2   288  PS7288     -0.0342
     17  CAQ      -24.3480   15.1640    6.6970 C.2   288  PS7288     -0.0346
     18  CAR      -26.7800   10.4360    6.2670 C.2   288  PS7288     -0.0348
     19  CAS      -27.6050   13.1860   10.1990 C.3   288  PS7288      0.0297
     20  CAT      -23.1820   18.5240    7.5660 C.3   288  PS7288      0.0297
     21  CAU      -29.8660    9.9120    7.4360 C.3   288  PS7288      0.0297
     22  CAV      -24.1130   13.7070    7.0610 C.3   288  PS7288      0.0254
     23  CAW      -27.5840   11.6550   10.0620 C.3   288  PS7288      0.0263
     24  CAX      -24.3440   17.6330    7.1170 C.3   288  PS7288      0.0263
     25  CAY      -29.2170   10.2180    6.0800 C.3   288  PS7288      0.0263
     26  CAZ      -23.6330    9.6340    8.0700 C.3   288  PS7288      0.1494
     27  CBA      -24.8300   12.7480    6.1170 C.3   288  PS7288      0.0051
     28  OBB      -23.8160    9.5150    9.4670 O.3   288  PS7288     -0.3138
     29  OBC      -22.5550    7.8770   10.7610 O.3   288  PS7288     -0.2261
     30  CBD      -26.3960   15.0090   11.4220 C.2   288  PS7288     -0.0478
     31  CBE      -23.1420   20.9490    8.1940 C.2   288  PS7288     -0.0478
     32  CBF      -28.5310   11.2980    8.9340 C.2   288  PS7288     -0.0478
     33  CBG      -24.0980   16.2010    7.5470 C.2   288  PS7288     -0.0478
     34  CBH      -27.8310    9.6290    5.9720 C.2   288  PS7288     -0.0478
     35  CBI      -25.3030   10.0790    6.2520 C.3   288  PS7288      0.0239
     36  CBJ      -24.6630   10.6250    7.5440 C.3   288  PS7288      0.0344
     37  CBK      -24.3350   11.2770    6.1980 C.3   288  PS7288      0.0068
     38  PBL      -21.3350    7.0520   10.0660 P.3   288  PS7288      0.5373
     39  PBM      -24.0590    8.1140   10.2340 P.3   288  PS7288      0.2230
@<TRIPOS>BOND
     1     7    34    1
     2     8    37    1
     3    34    25    1
     4    34    18    2
     5    25    21    1
     6    27    37    1
     7    27    22    1
     8    37    35    1
     9    37    36    1
    10    35    18    1
    11    35    36    1
    12    17    22    1
    13    17    33    2
    14    24    33    1
    15    24    20    1
    16    15    20    1
    17    15    31    2
    18    21    16    1
    19    36    26    1
    20    33     6    1
    21     4    31    1
    22    26    28    1
    23     5    32    1
    24    31     3    1
    25    16    32    2
    26    11    38    2
    27    32    23    1
    28    10    39    2
    29    28    39    1
    30     9    38    1
    31    23    19    1
    32    38    29    1
    33    38    12    1
    34    19    14    1
    35    39    29    1
    36    39    13    1
    37    14    30    2
    38    30     1    1
    39    30     2    1
