@<TRIPOS>MOLECULE
3lh0_LYS_B_1.pdb
 11 10 0 0 0
SMALL
GASTEIGER

@<TRIPOS>ATOM
      1  N         -8.3620    1.7260    7.0230 N.3   372  LYS372     -0.1245
      2  CA        -7.5150    2.0410    8.2050 C.3   372  LYS372      0.1561
      3  CB        -6.2240    1.2330    8.1510 C.3   372  LYS372      0.0271
      4  CG        -5.7090    0.9310    9.5530 C.3   372  LYS372      0.0034
      5  CD        -5.6150   -0.5710    9.7890 C.3   372  LYS372      0.0174
      6  CE        -4.3490   -0.9260   10.5600 C.3   372  LYS372      0.0722
      7  NZ        -4.7130   -1.5620   11.8330 N.3   372  LYS372     -0.2703
      8  CH1       -3.6310   -2.4580   12.2600 C.3   372  LYS372      0.0897
      9  CH2       -5.9490   -2.3360   11.6580 C.3   372  LYS372      0.0897
     10  C         -7.1880    3.5030    8.2760 C.2   372  LYS372      0.2260
     11  O         -7.8720    4.2310    9.0270 O.2   372  LYS372     -0.2867
@<TRIPOS>BOND
     1     1     2    1
     2     3     2    1
     3     3     4    1
     4     2    10    1
     5    10    11    2
     6     4     5    1
     7     5     6    1
     8     6     7    1
     9     9     7    1
    10     7     8    1
