@<TRIPOS>MOLECULE
3lhb_HEM_A_1.pdb
 43 50 0 0 0
SMALL
GASTEIGER

@<TRIPOS>ATOM
      1 FE         20.8770  221.0900   -0.2220 Fe    150  HEM150      0.0000
      2  CHA       24.2670  221.1990   -0.2150 C.2   150  HEM150      0.0000
      3  CHB       21.0290  219.6580    2.9360 C.2   150  HEM150      0.0000
      4  CHC       17.6040  220.0610   -0.3510 C.2   150  HEM150      0.0000
      5  CHD       20.8440  221.5920   -3.5450 C.2   150  HEM150      0.0000
      6  NA        22.3360  220.5820    1.0600 N.2   150  HEM150      0.0000
      7  C1A       23.6890  220.7800    0.9420 C.2   150  HEM150      0.0000
      8  C2A       24.4300  220.4050    2.1440 C.2   150  HEM150      0.0000
      9  C3A       23.5170  219.9460    3.0270 C.2   150  HEM150      0.0000
     10  C4A       22.2210  220.0370    2.3420 C.2   150  HEM150      0.0000
     11  CMA       23.7680  219.5050    4.4660 C.3   150  HEM150      0.0000
     12  CAA       25.9220  220.4790    2.3850 C.3   150  HEM150      0.0000
     13  CBA       26.3530  221.9160    2.5720 C.3   150  HEM150      0.0000
     14  CGA       27.8450  222.0580    2.8880 C.2   150  HEM150      0.0000
     15  O1A       28.6600  221.2310    2.4170 O.co2 150  HEM150      0.0000
     16  O2A       28.1990  223.0130    3.6120 O.co2 150  HEM150      0.0000
     17  NB        19.5860  220.1620    1.0470 N.ar  150  HEM150      0.0000
     18  C1B       19.7930  219.7140    2.3380 C.ar  150  HEM150      0.0000
     19  C2B       18.5670  219.1860    2.9690 C.ar  150  HEM150      0.0000
     20  C3B       17.6190  219.2300    2.0270 C.ar  150  HEM150      0.0000
     21  C4B       18.2530  219.8760    0.8610 C.ar  150  HEM150      0.0000
     22  CMB       18.3810  218.6590    4.3950 C.3   150  HEM150      0.0000
     23  CAB       16.4510  218.4740    2.0210 C.3   150  HEM150      0.0000
     24  CBB       15.1990  218.8460    2.5820 C.3   150  HEM150      0.0000
     25  NC        19.5260  220.8890   -1.6310 N.2   150  HEM150      0.0000
     26  C1C       18.2010  220.4870   -1.5280 C.2   150  HEM150      0.0000
     27  C2C       17.4920  220.6080   -2.8000 C.2   150  HEM150      0.0000
     28  C3C       18.3900  221.1030   -3.7040 C.2   150  HEM150      0.0000
     29  C4C       19.6500  221.2330   -2.9670 C.2   150  HEM150      0.0000
     30  CMC       16.0510  220.2290   -3.0900 C.3   150  HEM150      0.0000
     31  CAC       18.2290  221.3220   -5.0910 C.3   150  HEM150      0.0000
     32  CBC       17.1740  222.0430   -5.8000 C.3   150  HEM150      0.0000
     33  ND        22.2350  221.3790   -1.5560 N.ar  150  HEM150      0.0000
     34  C1D       22.0450  221.6780   -2.8980 C.ar  150  HEM150      0.0000
     35  C2D       23.2830  222.0240   -3.5610 C.ar  150  HEM150      0.0000
     36  C3D       24.2510  221.8920   -2.6180 C.ar  150  HEM150      0.0000
     37  C4D       23.5980  221.4730   -1.3850 C.ar  150  HEM150      0.0000
     38  CMD       23.4930  222.4470   -5.0030 C.3   150  HEM150      0.0000
     39  CAD       25.7370  222.1840   -2.8240 C.3   150  HEM150      0.0000
     40  CBD       26.4870  220.9130   -3.2140 C.3   150  HEM150      0.0000
     41  CGD       27.9530  221.1750   -3.5360 C.2   150  HEM150      0.0000
     42  O1D       28.2480  222.1450   -4.2750 O.co2 150  HEM150      0.0000
     43  O2D       28.8050  220.4050   -3.0430 O.co2 150  HEM150      0.0000
@<TRIPOS>BOND
     1    32    31    1
     2    31    28    1
     3    38    35    1
     4    42    41   ar
     5    28    29    1
     6    28    27    2
     7    35    34   ar
     8    35    36   ar
     9     5    29    1
    10     5    34    2
    11    41    40    1
    12    41    43   ar
    13    40    39    1
    14    30    27    1
    15    29    25    2
    16    34    33   ar
    17    39    36    1
    18    27    26    1
    19    36    37   ar
    20    25    26    1
    21    25     1    1
    22    33    37   ar
    23    33     1    1
    24    26     4    2
    25    37     2    2
    26     4    21    1
    27     1    17    1
    28     1     6    1
    29     2     7    1
    30    21    17   ar
    31    21    20   ar
    32     7     6    2
    33     7     8    1
    34    17    18   ar
    35     6    10    1
    36    23    20    1
    37    23    24    1
    38    20    19   ar
    39     8    12    1
    40     8     9    2
    41    18     3    1
    42    18    19   ar
    43    10     3    2
    44    10     9    1
    45    12    13    1
    46    15    14   ar
    47    13    14    1
    48    14    16   ar
    49    19    22    1
    50     9    11    1
