@<TRIPOS>MOLECULE
3lhd_SAH_A_1.pdb
 26 28 0 0 0
SMALL
GASTEIGER

@<TRIPOS>ATOM
      1  N         34.4940  -18.9730  -40.7080 N.3   301  SAH301     -0.1208
      2  CA        33.1960  -19.1760  -41.4360 C.3   301  SAH301      0.1952
      3  CB        32.6220  -17.8920  -42.0510 C.3   301  SAH301      0.0422
      4  CG        33.4390  -16.6200  -41.8220 C.3   301  SAH301      0.0597
      5  SD        34.7710  -16.5050  -42.9820 S.3   301  SAH301     -0.1375
      6  C         33.3480  -20.2350  -42.5050 C.2   301  SAH301      0.3819
      7  O         32.4190  -21.0140  -42.7360 O.co2 301  SAH301     -0.2441
      8  OXT       34.3800  -20.3630  -43.1770 O.co2 301  SAH301     -0.2441
      9  C5'       33.9630  -16.1600  -44.5150 C.3   301  SAH301      0.0899
     10  C4'       34.9200  -16.2120  -45.7120 C.3   301  SAH301      0.1630
     11  O4'       36.0270  -15.3220  -45.5520 O.3   301  SAH301     -0.3153
     12  C3'       35.5370  -17.5720  -45.9860 C.3   301  SAH301      0.2168
     13  O3'       35.4300  -17.7640  -47.3960 O.3   301  SAH301     -0.2175
     14  C2'       36.9940  -17.4380  -45.5850 C.3   301  SAH301      0.2569
     15  O2'       37.8280  -18.2840  -46.3680 O.3   301  SAH301     -0.2130
     16  C1'       37.2520  -15.9820  -45.9010 C.3   301  SAH301      0.3185
     17  N9        38.3200  -15.2950  -45.1450 N.pl3 301  SAH301     -0.1439
     18  C8        38.5860  -15.3810  -43.8310 C.3   301  SAH301      0.3377
     19  N7        39.6130  -14.5530  -43.4960 N.2   301  SAH301     -0.2095
     20  C5        40.0060  -13.9100  -44.6120 C.2   301  SAH301      0.2526
     21  C6        41.0320  -12.9050  -44.9790 C.2   301  SAH301      0.4393
     22  N6        41.8800  -12.3910  -44.0560 N.pl3 301  SAH301      0.2180
     23  N1        41.1030  -12.5040  -46.2680 N.2   301  SAH301      0.0021
     24  C2        40.2720  -12.9940  -47.2050 C.3   301  SAH301      0.5254
     25  N3        39.3210  -13.9110  -46.9410 N.2   301  SAH301     -0.0055
     26  C4        39.1400  -14.3980  -45.6900 C.2   301  SAH301      0.3518
@<TRIPOS>BOND
     1    13    12    1
     2    24    25    1
     3    24    23    1
     4    25    26    2
     5    15    14    1
     6    23    21    2
     7    12    10    1
     8    12    14    1
     9    16    14    1
    10    16    11    1
    11    16    17    1
    12    10    11    1
    13    10     9    1
    14    26    17    1
    15    26    20    1
    16    17    18    1
    17    21    20    1
    18    21    22    1
    19    20    19    2
    20     9     5    1
    21    18    19    1
    22     8     6   ar
    23     5     4    1
    24     7     6   ar
    25     6     2    1
    26     3     4    1
    27     3     2    1
    28     2     1    1
