@<TRIPOS>MOLECULE
3lhg_Z81_A_1.pdb
 28 31 0 0 0
SMALL
GASTEIGER

@<TRIPOS>ATOM
      1  C1        10.4030   -8.5530   16.6750 C.ar    1  Z811       -0.0002
      2  F1        10.3880   -2.5690   12.8550 F       1  Z811       -0.2042
      3  N1        15.6220  -11.4310   17.5630 N.ar    1  Z811       -0.2423
      4  O1        14.1740   -6.3220   18.8820 O.2     1  Z811       -0.2520
      5  C2         9.7940   -7.3590   16.2630 C.ar    1  Z811        0.0001
      6  F2         8.5570   -4.8790   17.4570 F       1  Z811       -0.2042
      7  N2        14.6990   -6.9240   15.4370 N.2     1  Z811       -0.0835
      8  C3        11.7950   -8.6260   16.8110 C.ar    1  Z811       -0.0002
      9  N3        15.2620   -5.4750   17.0500 N.am    1  Z811       -0.1363
     10  C4         8.9520   -2.5130   14.7290 C.ar    1  Z811        0.0319
     11  N4        16.1690   -5.1750   14.8820 N.pl3   1  Z811        0.1440
     12  C5         8.4890   -3.1050   15.9030 C.ar    1  Z811        0.0319
     13  C6        14.7450   -9.2980   18.3220 C.ar    1  Z811        0.0205
     14  C7        15.0140   -9.7170   15.9690 C.ar    1  Z811        0.0205
     15  C8        11.9500   -6.3090   16.1310 C.ar    1  Z811       -0.0001
     16  C9        10.4810   -4.3740   14.3880 C.ar    1  Z811        0.0319
     17  C10       15.2430  -10.5760   18.5450 C.ar    1  Z811        0.0987
     18  C11       15.5010  -10.9770   16.2960 C.ar    1  Z811        0.0987
     19  C12       10.5730   -6.2310   15.9950 C.ar    1  Z811        0.0021
     20  C13       10.0120   -4.9620   15.5660 C.ar    1  Z811        0.0297
     21  C14       12.5600   -7.4870   16.5370 C.ar    1  Z811        0.0273
     22  C15       14.6370   -8.8710   17.0090 C.ar    1  Z811        0.0304
     23  C16        9.9440   -3.1500   13.9740 C.ar    1  Z811        0.1403
     24  C17        9.0210   -4.3270   16.3210 C.ar    1  Z811        0.1402
     25  C18       14.4950   -6.3880   17.7090 C.2     1  Z811        0.3315
     26  C19       15.3880   -5.8710   15.7560 C.2     1  Z811        0.4499
     27  C20       14.0850   -7.4710   16.6850 C.3     1  Z811        0.2672
     28  C21       15.8340   -4.2940   17.6980 C.3     1  Z811        0.2162
@<TRIPOS>BOND
     1     2    23    1
     2    23    16   ar
     3    23    10   ar
     4    16    20   ar
     5    10    12   ar
     6    11    26    1
     7     7    26    2
     8     7    27    1
     9    20    19    1
    10    20    24   ar
    11    26     9    1
    12    12    24   ar
    13    14    18   ar
    14    14    22   ar
    15    19    15   ar
    16    19     5   ar
    17    15    21   ar
    18     5     1   ar
    19    18     3   ar
    20    24     6    1
    21    21    27    1
    22    21     8   ar
    23     1     8   ar
    24    27    22    1
    25    27    25    1
    26    22    13   ar
    27     9    28    1
    28     9    25   am
    29     3    17   ar
    30    25     4    2
    31    13    17   ar
