@<TRIPOS>MOLECULE
3lhh_AMP_A_1.pdb
 23 25 0 0 0
SMALL
GASTEIGER

@<TRIPOS>ATOM
      1  P         21.6380   20.2660   59.3900 P.3   171  AMP171      0.5327
      2  O1P       22.1120   18.8530   59.1220 O.3   171  AMP171     -0.1145
      3  O2P       20.3410   20.5940   58.7020 O.2   171  AMP171     -0.2224
      4  O3P       21.7200   20.7190   60.8280 O.3   171  AMP171     -0.1145
      5  O5'       22.8170   21.1060   58.7010 O.3   171  AMP171     -0.2675
      6  C5'       24.1430   21.0360   59.2350 C.3   171  AMP171      0.1860
      7  C4'       25.1780   21.1260   58.1120 C.3   171  AMP171      0.1823
      8  O4'       25.0620   20.0250   57.1960 O.3   171  AMP171     -0.3135
      9  C3'       24.9960   22.3620   57.2370 C.3   171  AMP171      0.2184
     10  O3'       25.6010   23.5420   57.7980 O.3   171  AMP171     -0.2174
     11  C2'       25.6480   21.9250   55.9430 C.3   171  AMP171      0.2570
     12  O2'       27.0570   21.9340   56.1800 O.3   171  AMP171     -0.2130
     13  C1'       25.2470   20.4660   55.8380 C.3   171  AMP171      0.3186
     14  N9        23.9530   20.2560   55.1230 N.pl3 171  AMP171     -0.1439
     15  C8        22.7420   20.6940   55.5220 C.3   171  AMP171      0.3377
     16  N7        21.7590   20.3140   54.6730 N.2   171  AMP171     -0.2095
     17  C5        22.3520   19.6140   53.6880 C.2   171  AMP171      0.2526
     18  C6        21.8870   18.9090   52.4750 C.2   171  AMP171      0.4393
     19  N6        20.5730   18.8900   52.1220 N.pl3 171  AMP171      0.2180
     20  N1        22.8190   18.2780   51.7370 N.2   171  AMP171      0.0021
     21  C2        24.1280   18.2830   52.0810 C.3   171  AMP171      0.5254
     22  N3        24.6160   18.9070   53.1710 N.2   171  AMP171     -0.0055
     23  C4        23.7860   19.5780   53.9940 C.2   171  AMP171      0.3518
@<TRIPOS>BOND
     1    20    21    1
     2    20    18    2
     3    21    22    1
     4    19    18    1
     5    18    17    1
     6    22    23    2
     7    17    23    1
     8    17    16    2
     9    23    14    1
    10    16    15    1
    11    14    15    1
    12    14    13    1
    13    13    11    1
    14    13     8    1
    15    11    12    1
    16    11     9    1
    17     8     7    1
    18     9    10    1
    19     9     7    1
    20     7     6    1
    21     5     6    1
    22     5     1    1
    23     3     1    2
    24     2     1    1
    25     1     4    1
