@<TRIPOS>MOLECULE
3lhj_LHJ_A_1.pdb
 32 36 0 0 0
SMALL
GASTEIGER

@<TRIPOS>ATOM
      1  N1        -0.9710   10.9790   29.9030 N.ar  361  LHJ361     -0.2786
      2  N3         0.0600    8.7180   29.2870 N.ar  361  LHJ361     -0.2115
      3  C4        -3.1480   11.2410   28.8310 C.ar  361  LHJ361      0.0561
      4  C5        -3.0070    9.9880   28.2390 C.ar  361  LHJ361      0.0093
      5  C6        -1.4960    8.0340   28.0500 C.ar  361  LHJ361      0.1235
      6  C7         0.0840   11.5390   30.7860 C.3   361  LHJ361      0.1350
      7  C8        -4.2990   11.9790   28.5620 C.ar  361  LHJ361      0.0008
      8  C10        2.3270    9.3210   29.3080 C.ar  361  LHJ361      0.1600
      9  C13        2.6380    8.0220   31.7480 C.ar  361  LHJ361      0.0313
     10  C15       -4.2330   12.9240   27.5420 C.ar  361  LHJ361      0.0044
     11  C17       -6.5350   13.5260   27.9080 C.ar  361  LHJ361      0.0042
     12  C20       -5.6050   10.7660   30.3850 C.3   361  LHJ361      0.0310
     13  C21       -5.2040   14.7200   26.0870 C.2   361  LHJ361      0.2647
     14  C22       -6.2900   16.5030   24.8060 C.3   361  LHJ361      0.0957
     15  C24       -7.6080   16.6730   24.0550 C.3   361  LHJ361      0.0234
     16  C23       -6.4280   15.9800   23.3760 C.3   361  LHJ361      0.0234
     17  N4        -6.2750   15.4720   25.8580 N.am  361  LHJ361     -0.2034
     18  O2        -4.1540   14.8080   25.4510 O.2   361  LHJ361     -0.2684
     19  C16       -5.3400   13.6990   27.2130 C.ar  361  LHJ361      0.0550
     20  C18       -6.6100   12.5770   28.9290 C.ar  361  LHJ361     -0.0041
     21  C19       -5.4970   11.8000   29.2580 C.ar  361  LHJ361     -0.0217
     22  C3        -2.1340   11.7440   29.6570 C.ar  361  LHJ361      0.2619
     23  O1        -2.2530   12.8540   30.1760 O.2   361  LHJ361     -0.2669
     24  C2        -0.8460    9.7000   29.2950 C.ar  361  LHJ361      0.1491
     25  C1        -1.8680    9.2290   28.4770 C.ar  361  LHJ361      0.0553
     26  N2        -0.3020    7.7790   28.5780 N.ar  361  LHJ361     -0.1621
     27  C9         1.2340    8.6960   29.9110 C.ar  361  LHJ361      0.1119
     28  C14        1.3880    8.0370   31.1310 C.ar  361  LHJ361      0.0238
     29  C12        3.7210    8.6580   31.1430 C.ar  361  LHJ361      0.1425
     30  F2         4.9230    8.6420   31.7360 F     361  LHJ361     -0.2041
     31  C11        3.5740    9.3110   29.9260 C.ar  361  LHJ361      0.0608
     32  F1         2.1750    9.9530   28.1280 F     361  LHJ361     -0.2025
@<TRIPOS>BOND
     1    16    15    1
     2    16    14    1
     3    15    14    1
     4    14    17    1
     5    18    13    2
     6    17    13   am
     7    13    19    1
     8    19    10   ar
     9    19    11   ar
    10    10     7   ar
    11    11    20   ar
    12     5    25   ar
    13     5    26   ar
    14    32     8    1
    15     4    25   ar
    16     4     3   ar
    17    25    24   ar
    18     7     3    1
    19     7    21   ar
    20    26     2   ar
    21     3    22   ar
    22    20    21   ar
    23    21    12    1
    24     2    24   ar
    25     2    27    1
    26    24     1   ar
    27     8    27   ar
    28     8    31   ar
    29    22     1   ar
    30    22    23    2
    31     1     6    1
    32    27    28   ar
    33    31    29   ar
    34    28     9   ar
    35    29    30    1
    36    29     9   ar
