@<TRIPOS>MOLECULE
3lhs_SF8_A_1.pdb
 33 32 0 0 0
SMALL
GASTEIGER

@<TRIPOS>ATOM
      1  C1        10.1020   -6.6050    9.2670 C.2   501  SF8501      0.3680
      2  C2         9.0240   -7.5650    8.7450 C.3   501  SF8501      0.1560
      3  C3         7.5970   -7.5890    9.3460 C.3   501  SF8501      0.2381
      4  C4         6.8800   -8.8100    8.8060 C.3   501  SF8501      0.1289
      5  C5         5.6360   -9.1030    9.6170 C.2   501  SF8501      0.2449
      6  N6         5.6140  -10.2720   10.2820 N.am  501  SF8501     -0.1955
      7  C7         4.5960  -10.7380   11.2230 C.3   501  SF8501      0.1978
      8  C8         5.2440  -11.0330   12.5760 C.3   501  SF8501      0.0351
      9  C9         6.1080   -9.8380   12.9490 C.3   501  SF8501      0.0258
     10  C10        6.3540   -9.6740   14.4280 C.3   501  SF8501      0.1152
     11  N11        7.0970   -8.4350   14.6420 N.am  501  SF8501     -0.2053
     12  C12        6.9960   -7.6530   15.7360 C.2   501  SF8501      0.2445
     13  C13        7.8670   -6.3700   15.7900 C.3   501  SF8501      0.1288
     14  C14        8.0370   -5.6920   14.4230 C.3   501  SF8501      0.2381
     15  C15        8.8510   -4.4220   14.6310 C.3   501  SF8501      0.1560
     16  C16        9.3130   -3.6580   13.3680 C.2   501  SF8501      0.3680
     17  O17       11.1970   -6.6850    8.6870 O.co2 501  SF8501     -0.2455
     18  O18        9.8660   -5.8450   10.2600 O.co2 501  SF8501     -0.2455
     19  O19        7.6550   -7.6600   10.7980 O.3   501  SF8501     -0.2130
     20  C20        6.9690   -6.2410    8.9690 C.2   501  SF8501      0.3927
     21  O21        6.4520   -6.1150    7.8420 O.co2 501  SF8501     -0.2429
     22  O22        7.0090   -5.2510    9.7720 O.co2 501  SF8501     -0.2429
     23  O23        4.7260   -8.2960    9.6300 O.2   501  SF8501     -0.2732
     24  C24        3.8920  -11.9790   10.7390 C.2   501  SF8501      0.3842
     25  O25        2.8620  -12.3740   11.3360 O.co2 501  SF8501     -0.2437
     26  O26        4.3570  -12.5880    9.7500 O.co2 501  SF8501     -0.2437
     27  O27        6.2490   -7.9580   16.6520 O.2   501  SF8501     -0.2732
     28  C28        6.7000   -5.3100   13.8430 C.2   501  SF8501      0.3927
     29  O29        8.7080   -6.5030   13.4740 O.3   501  SF8501     -0.2130
     30  O30        6.4980   -5.3810   12.6130 O.co2 501  SF8501     -0.2429
     31  O31        5.8100   -5.0090   14.6240 O.co2 501  SF8501     -0.2429
     32  O32        8.9490   -3.8700   12.2320 O.co2 501  SF8501     -0.2455
     33  O33       10.0290   -2.6920   13.5090 O.co2 501  SF8501     -0.2455
@<TRIPOS>BOND
     1    21    20   ar
     2    17     1   ar
     3     2     1    1
     4     2     3    1
     5     4     3    1
     6     4     5    1
     7    20     3    1
     8    20    22   ar
     9     1    18   ar
    10     3    19    1
    11     5    23    2
    12     5     6   am
    13    26    24   ar
    14     6     7    1
    15    24     7    1
    16    24    25   ar
    17     7     8    1
    18    32    16   ar
    19     8     9    1
    20    30    28   ar
    21     9    10    1
    22    16    33   ar
    23    16    15    1
    24    29    14    1
    25    28    14    1
    26    28    31   ar
    27    14    15    1
    28    14    13    1
    29    10    11    1
    30    11    12   am
    31    12    13    1
    32    12    27    2
