@<TRIPOS>MOLECULE
3lht_BMQ_A_1.pdb
 22 23 0 0 0
SMALL
GASTEIGER

@<TRIPOS>ATOM
      1  P         25.0710   -2.4410    8.3580 P.3   229  BMQ229      0.5327
      2  O1P       25.7920   -3.3590    9.4180 O.3   229  BMQ229     -0.1145
      3  O2P       26.0420   -1.4680    7.7250 O.3   229  BMQ229     -0.1145
      4  O3P       24.2650   -3.1980    7.2470 O.2   229  BMQ229     -0.2224
      5  O5'       24.0700   -1.6010    9.2560 O.3   229  BMQ229     -0.2675
      6  C5'       22.8990   -1.0200    8.7530 C.3   229  BMQ229      0.1859
      7  C4'       22.1840   -0.2590    9.8390 C.3   229  BMQ229      0.1801
      8  O4'       21.1290    0.6770    9.3900 O.3   229  BMQ229     -0.3319
      9  C3'       21.5720   -0.9940   11.0070 C.3   229  BMQ229      0.2158
     10  O3'       21.5950   -0.3830   12.2370 O.3   229  BMQ229     -0.2175
     11  C2'       20.1880   -1.2550   10.5830 C.3   229  BMQ229      0.2320
     12  O2'       19.2490   -1.5520   11.5500 O.3   229  BMQ229     -0.2157
     13  C1'       19.8870   -0.1010    9.6820 C.3   229  BMQ229      0.2425
     14  N1        19.0020    0.2860    8.6490 N.am  229  BMQ229     -0.1473
     15  C2        19.1020   -0.7230    7.6110 C.1   229  BMQ229      0.2863
     16  O2        20.1650   -1.5150    7.4710 O.2   229  BMQ229     -0.1918
     17  N3        18.1830   -0.5750    6.4220 N.2   229  BMQ229     -0.2489
     18  C4        17.0010    0.3710    6.5680 C.1   229  BMQ229      0.2018
     19  O4        16.3320    0.6080    5.4210 O.2   229  BMQ229     -0.2129
     20  C5        16.9860    1.3440    7.6990 C.3   229  BMQ229      0.2213
     21  C6        17.9370    1.1640    8.7790 C.2   229  BMQ229      0.2591
     22  O1        17.9520    2.0630    9.7630 O.2   229  BMQ229     -0.2725
@<TRIPOS>BOND
     1    19    18    2
     2    17    18    2
     3    17    15    2
     4    18    20    1
     5     4     1    2
     6    16    15    2
     7    15    14   am
     8    20    21    1
     9     3     1    1
    10     1     5    1
    11     1     2    1
    12    14    21   am
    13    14    13    1
    14     6     5    1
    15     6     7    1
    16    21    22    2
    17     8    13    1
    18     8     7    1
    19    13    11    1
    20     7     9    1
    21    11     9    1
    22    11    12    1
    23     9    10    1
