@<TRIPOS>MOLECULE
3lhu_BMQ_A_1.pdb
 22 23 0 0 0
SMALL
GASTEIGER

@<TRIPOS>ATOM
      1  P         25.0900   -2.4580    8.3790 P.3   229  BMQ229      0.5327
      2  O1P       25.8380   -3.3260    9.3320 O.3   229  BMQ229     -0.1145
      3  O2P       26.1410   -1.4050    7.7540 O.3   229  BMQ229     -0.1145
      4  O3P       24.3780   -3.2890    7.3430 O.2   229  BMQ229     -0.2224
      5  O5'       24.1080   -1.6130    9.3060 O.3   229  BMQ229     -0.2675
      6  C5'       22.9790   -0.9300    8.7860 C.3   229  BMQ229      0.1859
      7  C4'       22.2910   -0.2300    9.9410 C.3   229  BMQ229      0.1801
      8  O4'       21.2190    0.5580    9.3950 O.3   229  BMQ229     -0.3319
      9  C3'       21.6260   -1.0830   11.0220 C.3   229  BMQ229      0.2158
     10  O3'       21.6570   -0.4520   12.3290 O.3   229  BMQ229     -0.2175
     11  C2'       20.2130   -1.2380   10.5080 C.3   229  BMQ229      0.2320
     12  O2'       19.2670   -1.6140   11.5260 O.3   229  BMQ229     -0.2157
     13  C1'       19.9700    0.1210    9.8610 C.3   229  BMQ229      0.2425
     14  N1        19.0070    0.2120    8.7300 N.am  229  BMQ229     -0.1473
     15  C2        19.1550   -0.6460    7.5910 C.1   229  BMQ229      0.2863
     16  O2        20.0890   -1.4290    7.4940 O.2   229  BMQ229     -0.1918
     17  N3        18.1870   -0.4970    6.6330 N.2   229  BMQ229     -0.2489
     18  C4        17.1510    0.4520    6.6050 C.1   229  BMQ229      0.2018
     19  O4        16.4600    0.5030    5.6090 O.2   229  BMQ229     -0.2129
     20  C5        17.0390    1.2680    7.7960 C.3   229  BMQ229      0.2213
     21  C6        17.9700    1.1970    8.7750 C.2   229  BMQ229      0.2591
     22  O1        17.9720    1.9930    9.7510 O.2   229  BMQ229     -0.2725
@<TRIPOS>BOND
     1    19    18    2
     2    18    17    2
     3    18    20    1
     4    17    15    2
     5     4     1    2
     6    16    15    2
     7    15    14   am
     8     3     1    1
     9    20    21    1
    10     1     5    1
    11     1     2    1
    12    14    21   am
    13    14    13    1
    14    21    22    2
    15     6     5    1
    16     6     7    1
    17     8    13    1
    18     8     7    1
    19    13    11    1
    20     7     9    1
    21    11     9    1
    22    11    12    1
    23     9    10    1
