@<TRIPOS>MOLECULE
3lhv_BMQ_A_1.pdb
 22 23 0 0 0
SMALL
GASTEIGER

@<TRIPOS>ATOM
      1  P         27.7070    2.5770    8.4330 P.3   229  BMQ229      0.5327
      2  O1P       26.5200    3.4460    8.2720 O.3   229  BMQ229     -0.1145
      3  O2P       27.7060    1.5320    7.2090 O.2   229  BMQ229     -0.2224
      4  O3P       28.9600    3.4010    8.5250 O.3   229  BMQ229     -0.1145
      5  O5'       27.4160    1.7240    9.7450 O.3   229  BMQ229     -0.2675
      6  C5'       28.4540    1.0710   10.4610 C.3   229  BMQ229      0.1859
      7  C4'       27.8160    0.3600   11.6350 C.3   229  BMQ229      0.1801
      8  O4'       28.8350   -0.4170   12.2760 O.3   229  BMQ229     -0.3319
      9  C3'       27.2160    1.2060   12.7510 C.3   229  BMQ229      0.2158
     10  O3'       26.0750    0.5740   13.3570 O.3   229  BMQ229     -0.2175
     11  C2'       28.3610    1.3590   13.7270 C.3   229  BMQ229      0.2320
     12  O2'       27.9360    1.6860   15.0620 O.3   229  BMQ229     -0.2157
     13  C1'       29.0750    0.0180   13.5820 C.3   229  BMQ229      0.2425
     14  N1        30.5450   -0.0400   13.8160 N.am  229  BMQ229     -0.1473
     15  C2        31.4290    0.8410   13.1060 C.1   229  BMQ229      0.2863
     16  O2        31.0170    1.6350   12.2780 O.2   229  BMQ229     -0.1918
     17  N3        32.7540    0.7060   13.4290 N.2   229  BMQ229     -0.2489
     18  C4        33.3180   -0.1950   14.3490 C.1   229  BMQ229      0.2018
     19  O4        34.5220   -0.1760   14.4790 O.2   229  BMQ229     -0.2129
     20  C5        32.3710   -1.0560   15.0350 C.3   229  BMQ229      0.2213
     21  C6        31.0560   -1.0140   14.7320 C.2   229  BMQ229      0.2591
     22  O1        30.2290   -1.8250   15.2260 O.2   229  BMQ229     -0.2725
@<TRIPOS>BOND
     1     3     1    2
     2     2     1    1
     3     1     4    1
     4     1     5    1
     5     5     6    1
     6     6     7    1
     7     7     8    1
     8     7     9    1
     9     8    13    1
    10    16    15    2
    11     9    10    1
    12     9    11    1
    13    15    17    2
    14    15    14   am
    15    17    18    2
    16    13    11    1
    17    13    14    1
    18    11    12    1
    19    14    21   am
    20    18    19    2
    21    18    20    1
    22    21    20    1
    23    21    22    2
