@<TRIPOS>MOLECULE
3lhw_BMQ_A_1.pdb
 22 23 0 0 0
SMALL
GASTEIGER

@<TRIPOS>ATOM
      1  P         25.0350   -2.3740    8.4620 P.3   229  BMQ229      0.5327
      2  O1P       25.7640   -3.2470    9.4150 O.3   229  BMQ229     -0.1145
      3  O2P       26.0940   -1.3490    7.8300 O.3   229  BMQ229     -0.1145
      4  O3P       24.3030   -3.1940    7.4380 O.2   229  BMQ229     -0.2224
      5  O5'       24.0570   -1.5040    9.3660 O.3   229  BMQ229     -0.2675
      6  C5'       22.8800   -0.8880    8.8500 C.3   229  BMQ229      0.1859
      7  C4'       22.2060   -0.1730   10.0030 C.3   229  BMQ229      0.1801
      8  O4'       21.1350    0.6280    9.4730 O.3   229  BMQ229     -0.3319
      9  C3'       21.5480   -1.0180   11.0830 C.3   229  BMQ229      0.2158
     10  O3'       21.5980   -0.3860   12.3740 O.3   229  BMQ229     -0.2175
     11  C2'       20.1270   -1.1670   10.5980 C.3   229  BMQ229      0.2320
     12  O2'       19.2070   -1.4940   11.6510 O.3   229  BMQ229     -0.2157
     13  C1'       19.8860    0.1790    9.9200 C.3   229  BMQ229      0.2425
     14  N1        18.9360    0.2390    8.7740 N.am  229  BMQ229     -0.1473
     15  C2        19.0960   -0.6330    7.6480 C.1   229  BMQ229      0.2863
     16  O2        20.0290   -1.4070    7.5640 O.2   229  BMQ229     -0.1918
     17  N3        18.1290   -0.5090    6.6830 N.2   229  BMQ229     -0.2489
     18  C4        17.0680    0.4130    6.6530 C.1   229  BMQ229      0.2018
     19  O4        16.3620    0.4180    5.6670 O.2   229  BMQ229     -0.2129
     20  C5        16.9580    1.2620    7.8220 C.3   229  BMQ229      0.2213
     21  C6        17.8900    1.2140    8.8020 C.2   229  BMQ229      0.2591
     22  O1        17.8900    2.0210    9.7690 O.2   229  BMQ229     -0.2725
@<TRIPOS>BOND
     1    19    18    2
     2    18    17    2
     3    18    20    1
     4    17    15    2
     5     4     1    2
     6    16    15    2
     7    15    14   am
     8    20    21    1
     9     3     1    1
    10     1     5    1
    11     1     2    1
    12    14    21   am
    13    14    13    1
    14    21    22    2
    15     6     5    1
    16     6     7    1
    17     8    13    1
    18     8     7    1
    19    13    11    1
    20     7     9    1
    21    11     9    1
    22    11    12    1
    23     9    10    1
