@<TRIPOS>MOLECULE
3lhy_BMQ_A_1.pdb
 22 23 0 0 0
SMALL
GASTEIGER

@<TRIPOS>ATOM
      1  P         24.9410   -2.4260    8.4410 P.3   229  BMQ229      0.5327
      2  O1P       25.6960   -3.2800    9.3950 O.3   229  BMQ229     -0.1145
      3  O2P       25.9810   -1.3940    7.7840 O.3   229  BMQ229     -0.1145
      4  O3P       24.2230   -3.2770    7.4400 O.2   229  BMQ229     -0.2224
      5  O5'       23.9590   -1.5580    9.3450 O.3   229  BMQ229     -0.2675
      6  C5'       22.7880   -0.9560    8.8240 C.3   229  BMQ229      0.1859
      7  C4'       22.1170   -0.2320    9.9690 C.3   229  BMQ229      0.1801
      8  O4'       21.0580    0.5740    9.4290 O.3   229  BMQ229     -0.3319
      9  C3'       21.4440   -1.0690   11.0560 C.3   229  BMQ229      0.2158
     10  O3'       21.4740   -0.4100   12.3370 O.3   229  BMQ229     -0.2175
     11  C2'       20.0310   -1.2170   10.5430 C.3   229  BMQ229      0.2320
     12  O2'       19.0840   -1.5470   11.5790 O.3   229  BMQ229     -0.2157
     13  C1'       19.8020    0.1280    9.8710 C.3   229  BMQ229      0.2425
     14  N1        18.8560    0.1870    8.7270 N.am  229  BMQ229     -0.1473
     15  C2        19.0220   -0.6900    7.5970 C.1   229  BMQ229      0.2863
     16  O2        19.9650   -1.4580    7.5230 O.2   229  BMQ229     -0.1918
     17  N3        18.0550   -0.5720    6.6240 N.2   229  BMQ229     -0.2489
     18  C4        17.0210    0.3890    6.5680 C.1   229  BMQ229      0.2018
     19  O4        16.3570    0.4370    5.5410 O.2   229  BMQ229     -0.2129
     20  C5        16.8840    1.2170    7.7620 C.3   229  BMQ229      0.2213
     21  C6        17.8120    1.1640    8.7540 C.2   229  BMQ229      0.2591
     22  O1        17.8090    1.9730    9.7400 O.2   229  BMQ229     -0.2725
@<TRIPOS>BOND
     1    19    18    2
     2    18    17    2
     3    18    20    1
     4    17    15    2
     5     4     1    2
     6    16    15    2
     7    15    14   am
     8    20    21    1
     9     3     1    1
    10     1     5    1
    11     1     2    1
    12    14    21   am
    13    14    13    1
    14    21    22    2
    15     6     5    1
    16     6     7    1
    17     8    13    1
    18     8     7    1
    19    13    11    1
    20     7     9    1
    21    11     9    1
    22    11    12    1
    23     9    10    1
