@<TRIPOS>MOLECULE
3lhz_BMQ_A_1.pdb
 22 23 0 0 0
SMALL
GASTEIGER

@<TRIPOS>ATOM
      1  P         25.0560   -2.5730    8.4590 P.3   229  BMQ229      0.5327
      2  O1P       25.7990   -3.4240    9.4210 O.3   229  BMQ229     -0.1145
      3  O2P       26.1010   -1.5440    7.8110 O.3   229  BMQ229     -0.1145
      4  O3P       24.3390   -3.4250    7.4450 O.2   229  BMQ229     -0.2224
      5  O5'       24.0650   -1.7030    9.3520 O.3   229  BMQ229     -0.2675
      6  C5'       22.9060   -1.0810    8.8120 C.3   229  BMQ229      0.1859
      7  C4'       22.2450   -0.3330    9.9470 C.3   229  BMQ229      0.1801
      8  O4'       21.2010    0.4880    9.4010 O.3   229  BMQ229     -0.3319
      9  C3'       21.5610   -1.1420   11.0340 C.3   229  BMQ229      0.2158
     10  O3'       21.6140   -0.4780   12.3070 O.3   229  BMQ229     -0.2175
     11  C2'       20.1450   -1.2730   10.5270 C.3   229  BMQ229      0.2320
     12  O2'       19.1910   -1.5730   11.5580 O.3   229  BMQ229     -0.2157
     13  C1'       19.9400    0.0670    9.8330 C.3   229  BMQ229      0.2425
     14  N1        19.0080    0.1340    8.6770 N.am  229  BMQ229     -0.1473
     15  C2        19.1780   -0.7400    7.5530 C.1   229  BMQ229      0.2863
     16  O2        20.1030   -1.5270    7.4900 O.2   229  BMQ229     -0.1918
     17  N3        18.2300   -0.6010    6.5710 N.2   229  BMQ229     -0.2489
     18  C4        17.1550    0.3100    6.5470 C.1   229  BMQ229      0.2018
     19  O4        16.4450    0.3130    5.5660 O.2   229  BMQ229     -0.2129
     20  C5        17.0330    1.1490    7.7210 C.3   229  BMQ229      0.2213
     21  C6        17.9630    1.1080    8.6990 C.2   229  BMQ229      0.2591
     22  O1        17.9630    1.9230    9.6620 O.2   229  BMQ229     -0.2725
@<TRIPOS>BOND
     1    19    18    2
     2    18    17    2
     3    18    20    1
     4    17    15    2
     5     4     1    2
     6    16    15    2
     7    15    14   am
     8    20    21    1
     9     3     1    1
    10     1     5    1
    11     1     2    1
    12    14    21   am
    13    14    13    1
    14    21    22    2
    15     6     5    1
    16     6     7    1
    17     8    13    1
    18     8     7    1
    19    13    11    1
    20     7     9    1
    21    11     9    1
    22    11    12    1
    23     9    10    1
