@<TRIPOS>MOLECULE
3li0_BMQ_A_1.pdb
 22 23 0 0 0
SMALL
GASTEIGER

@<TRIPOS>ATOM
      1  P        -11.3460   19.5230   -1.5220 P.3   229  BMQ229      0.5327
      2  O1P      -10.1030   20.3230   -1.4820 O.3   229  BMQ229     -0.1145
      3  O2P      -11.3600   18.6070   -0.2070 O.3   229  BMQ229     -0.1145
      4  O3P      -12.5430   20.4160   -1.6640 O.2   229  BMQ229     -0.2224
      5  O5'      -11.1680   18.5300   -2.7660 O.3   229  BMQ229     -0.2675
      6  C5'      -12.2810   17.8960   -3.3820 C.3   229  BMQ229      0.1859
      7  C4'      -11.7480   17.0250   -4.5000 C.3   229  BMQ229      0.1801
      8  O4'      -12.8270   16.1980   -4.9720 O.3   229  BMQ229     -0.3319
      9  C3'      -11.2150   17.7060   -5.7530 C.3   229  BMQ229      0.2158
     10  O3'      -10.1360   16.9610   -6.3550 O.3   229  BMQ229     -0.2175
     11  C2'      -12.4380   17.7680   -6.6490 C.3   229  BMQ229      0.2320
     12  O2'      -12.1220   17.9450   -8.0450 O.3   229  BMQ229     -0.2157
     13  C1'      -13.1370   16.4630   -6.3050 C.3   229  BMQ229      0.2425
     14  N1       -14.6190   16.3950   -6.4560 N.am  229  BMQ229     -0.1473
     15  C2       -15.4590   17.3230   -5.7490 C.1   229  BMQ229      0.2863
     16  O2       -14.9960   18.1610   -4.9960 O.2   229  BMQ229     -0.1918
     17  N3       -16.8000   17.1760   -5.9840 N.2   229  BMQ229     -0.2489
     18  C4       -17.4210   16.2430   -6.8320 C.1   229  BMQ229      0.2018
     19  O4       -18.6280   16.2540   -6.8770 O.2   229  BMQ229     -0.2129
     20  C5       -16.5150   15.3720   -7.5580 C.3   229  BMQ229      0.2213
     21  C6       -15.1900   15.3690   -7.2740 C.2   229  BMQ229      0.2591
     22  O1       -14.4150   14.4640   -7.6870 O.2   229  BMQ229     -0.2725
@<TRIPOS>BOND
     1    12    11    1
     2    22    21    2
     3    20    21    1
     4    20    18    1
     5    21    14   am
     6    19    18    2
     7    18    17    2
     8    11    13    1
     9    11     9    1
    10    14    13    1
    11    14    15   am
    12    10     9    1
    13    13     8    1
    14    17    15    2
    15     9     7    1
    16    15    16    2
    17     8     7    1
    18     7     6    1
    19     6     5    1
    20     5     1    1
    21     4     1    2
    22     1     2    1
    23     1     3    1
