@<TRIPOS>MOLECULE
3li1_BMQ_A_1.pdb
 22 23 0 0 0
SMALL
GASTEIGER

@<TRIPOS>ATOM
      1  P         25.1440   -2.5480    8.2360 P.3   229  BMQ229      0.5327
      2  O1P       25.8870   -3.4190    9.1850 O.3   229  BMQ229     -0.1145
      3  O2P       26.1860   -1.5070    7.5990 O.3   229  BMQ229     -0.1145
      4  O3P       24.4210   -3.3760    7.2090 O.2   229  BMQ229     -0.2224
      5  O5'       24.1520   -1.6950    9.1400 O.3   229  BMQ229     -0.2675
      6  C5'       23.0100   -1.0420    8.6060 C.3   229  BMQ229      0.1859
      7  C4'       22.3400   -0.3290    9.7550 C.3   229  BMQ229      0.1801
      8  O4'       21.2860    0.4850    9.2250 O.3   229  BMQ229     -0.3319
      9  C3'       21.6710   -1.1750   10.8220 C.3   229  BMQ229      0.2158
     10  O3'       21.7350   -0.5580   12.1110 O.3   229  BMQ229     -0.2175
     11  C2'       20.2470   -1.2940   10.3340 C.3   229  BMQ229      0.2320
     12  O2'       19.3090   -1.6180   11.3770 O.3   229  BMQ229     -0.2157
     13  C1'       20.0290    0.0600    9.6700 C.3   229  BMQ229      0.2425
     14  N1        19.0790    0.1400    8.5210 N.am  229  BMQ229     -0.1473
     15  C2        19.2400   -0.7260    7.3890 C.1   229  BMQ229      0.2863
     16  O2        20.1670   -1.5080    7.3080 O.2   229  BMQ229     -0.1918
     17  N3        18.2770   -0.5920    6.4250 N.2   229  BMQ229     -0.2489
     18  C4        17.2090    0.3320    6.4030 C.1   229  BMQ229      0.2018
     19  O4        16.4990    0.3490    5.4190 O.2   229  BMQ229     -0.2129
     20  C5        17.0950    1.1670    7.5800 C.3   229  BMQ229      0.2213
     21  C6        18.0230    1.1060    8.5620 C.2   229  BMQ229      0.2591
     22  O1        18.0110    1.8920    9.5440 O.2   229  BMQ229     -0.2725
@<TRIPOS>BOND
     1    19    18    2
     2    18    17    2
     3    18    20    1
     4    17    15    2
     5     4     1    2
     6    16    15    2
     7    15    14   am
     8    20    21    1
     9     3     1    1
    10     1     5    1
    11     1     2    1
    12    14    21   am
    13    14    13    1
    14    21    22    2
    15     6     5    1
    16     6     7    1
    17     8    13    1
    18     8     7    1
    19    13    11    1
    20     7     9    1
    21    11     9    1
    22    11    12    1
    23     9    10    1
