@<TRIPOS>MOLECULE
3li2_SF8_A_1.pdb
 33 32 0 0 0
SMALL
GASTEIGER

@<TRIPOS>ATOM
      1  C1        -5.7660   -6.1230    6.2080 C.2   501  SF8501      0.3680
      2  C2        -6.2550   -4.6840    6.0100 C.3   501  SF8501      0.1560
      3  C3        -5.2690   -3.7530    5.2810 C.3   501  SF8501      0.2381
      4  C4        -5.7430   -2.2850    5.3810 C.3   501  SF8501      0.1289
      5  C5        -4.6520   -1.2290    5.3970 C.2   501  SF8501      0.2449
      6  N6        -4.1530   -0.8280    6.5800 N.am  501  SF8501     -0.1955
      7  C7        -2.9730    0.0370    6.6520 C.3   501  SF8501      0.1978
      8  C8        -1.8110   -0.6300    7.3890 C.3   501  SF8501      0.0351
      9  C9        -1.2030   -1.7190    6.4930 C.3   501  SF8501      0.0258
     10  C10        0.1630   -2.1400    6.9750 C.3   501  SF8501      0.1152
     11  N11        0.3450   -3.5760    6.8520 N.am  501  SF8501     -0.2053
     12  C12        1.4440   -4.1660    6.4050 C.2   501  SF8501      0.2445
     13  C13        1.2690   -5.6250    5.9920 C.3   501  SF8501      0.1288
     14  C14       -0.0460   -5.9040    5.2400 C.3   501  SF8501      0.2381
     15  C15       -0.0290   -7.4020    4.8650 C.3   501  SF8501      0.1560
     16  C16       -1.2700   -7.9720    4.1950 C.2   501  SF8501      0.3680
     17  O17       -6.5890   -6.9590    6.6130 O.co2 501  SF8501     -0.2455
     18  O18       -4.5920   -6.4660    5.9730 O.co2 501  SF8501     -0.2455
     19  O19       -3.9900   -3.8940    5.8680 O.3   501  SF8501     -0.2130
     20  C20       -5.0760   -4.1890    3.8530 C.2   501  SF8501      0.3927
     21  O21       -5.9990   -3.9990    3.0150 O.co2 501  SF8501     -0.2429
     22  O22       -3.9710   -4.7190    3.5630 O.co2 501  SF8501     -0.2429
     23  O23       -4.2720   -0.7690    4.3250 O.2   501  SF8501     -0.2732
     24  C24       -3.2880    1.4180    7.2220 C.2   501  SF8501      0.3842
     25  O25       -2.5810    1.8940    8.1580 O.co2 501  SF8501     -0.2437
     26  O26       -4.2540    2.0550    6.7100 O.co2 501  SF8501     -0.2437
     27  O27        2.5550   -3.6270    6.3710 O.2   501  SF8501     -0.2732
     28  C28       -0.2380   -4.9700    4.0540 C.2   501  SF8501      0.3927
     29  O29       -1.2000   -5.6310    6.0410 O.3   501  SF8501     -0.2130
     30  O30       -1.3780   -4.5120    3.8530 O.co2 501  SF8501     -0.2429
     31  O31        0.6900   -4.6500    3.2900 O.co2 501  SF8501     -0.2429
     32  O32       -2.2860   -7.2570    3.9790 O.co2 501  SF8501     -0.2455
     33  O33       -1.2310   -9.1850    3.8560 O.co2 501  SF8501     -0.2455
@<TRIPOS>BOND
     1    21    20   ar
     2    31    28   ar
     3    22    20   ar
     4    20     3    1
     5    30    28   ar
     6    33    16   ar
     7    32    16   ar
     8    28    14    1
     9    16    15    1
    10    23     5    2
    11    15    14    1
    12    14    13    1
    13    14    29    1
    14     3     4    1
    15     3    19    1
    16     3     2    1
    17     4     5    1
    18     5     6   am
    19    18     1   ar
    20    13    12    1
    21     2     1    1
    22     1    17   ar
    23    27    12    2
    24    12    11   am
    25     9    10    1
    26     9     8    1
    27     6     7    1
    28     7    24    1
    29     7     8    1
    30    26    24   ar
    31    11    10    1
    32    24    25   ar
