@<TRIPOS>MOLECULE
3lih_RAF_A_1.pdb
 34 36 0 0 0
SMALL
GASTEIGER

@<TRIPOS>ATOM
      1  O6'       84.9220   12.9300   61.3050 O.2   654  RAF654     -0.2855
      2  C6'       85.4430   12.7440   60.1500 C.2   654  RAF654      0.2394
      3  C5'       84.5220   12.8160   58.9360 C.3   654  RAF654      0.2147
      4  C4'       85.2340   12.6160   57.5960 C.3   654  RAF654      0.2217
      5  O4'       85.3230   11.2220   57.2050 O.3   654  RAF654     -0.2171
      6  C3'       84.4030   13.4940   56.6890 C.3   654  RAF654      0.2385
      7  O3'       85.0900   13.8130   55.4400 O.3   654  RAF654     -0.2149
      8  O2'       83.9020   14.1360   58.8540 O.3   654  RAF654     -0.3219
      9  C2'       84.1940   14.7080   57.5610 C.3   654  RAF654      0.2519
     10  C1'       83.0330   15.5780   57.0620 C.3   654  RAF654      0.2406
     11  O1'       82.0660   15.8260   58.1390 O.3   654  RAF654     -0.2149
     12  O1        85.4670   15.4250   57.5440 O.3   654  RAF654     -0.3033
     13  C1        85.7610   16.3490   58.6110 C.3   654  RAF654      0.2713
     14  C2        86.0160   17.7630   58.0470 C.3   654  RAF654      0.2406
     15  O2        84.8690   18.2440   57.2720 O.3   654  RAF654     -0.2149
     16  C3        87.2640   17.7460   57.1660 C.3   654  RAF654      0.2198
     17  O3        87.5070   19.0780   56.6940 O.3   654  RAF654     -0.2174
     18  C4        88.4650   17.2550   57.9570 C.3   654  RAF654      0.2143
     19  O4        89.6460   17.2200   57.1180 O.3   654  RAF654     -0.2176
     20  C5        88.1840   15.8530   58.4940 C.3   654  RAF654      0.1802
     21  O5        86.9920   15.9200   59.3240 O.3   654  RAF654     -0.3257
     22  C6        89.3930   15.4430   59.2910 C.3   654  RAF654      0.1770
     23  O6        89.0750   15.5020   60.6830 O.3   654  RAF654     -0.3259
     24  C1X       90.2070   15.2020   61.5260 C.3   654  RAF654      0.2695
     25  O5X       91.3070   16.2200   61.4130 O.3   654  RAF654     -0.3256
     26  C5X       90.9700   17.5710   61.9210 C.3   654  RAF654      0.1835
     27  C6X       92.1640   18.5080   61.7810 C.3   654  RAF654      0.2142
     28  O6X       92.5320   18.5960   60.3950 O.3   654  RAF654     -0.2176
     29  C4X       90.5530   17.4690   63.3920 C.3   654  RAF654      0.2144
     30  O4X       91.6700   16.8790   64.0930 O.3   654  RAF654     -0.2176
     31  C3X       89.3620   16.5450   63.5010 C.3   654  RAF654      0.2198
     32  O3X       88.9500   16.4380   64.8810 O.3   654  RAF654     -0.2174
     33  C2X       89.7380   15.1720   62.9740 C.3   654  RAF654      0.2406
     34  O2X       88.6310   14.2430   63.0520 O.3   654  RAF654     -0.2149
@<TRIPOS>BOND
     1     7     6    1
     2     6     9    1
     3     6     4    1
     4    17    16    1
     5    10     9    1
     6    10    11    1
     7    19    18    1
     8    16    18    1
     9    16    14    1
    10     5     4    1
    11    15    14    1
    12    12     9    1
    13    12    13    1
    14     9     8    1
    15     4     3    1
    16    18    20    1
    17    14    13    1
    18    20    22    1
    19    20    21    1
    20    13    21    1
    21     8     3    1
    22     3     2    1
    23    22    23    1
    24     2     1    2
    25    28    27    1
    26    23    24    1
    27    25    24    1
    28    25    26    1
    29    24    33    1
    30    27    26    1
    31    26    29    1
    32    33    34    1
    33    33    31    1
    34    29    31    1
    35    29    30    1
    36    31    32    1
