@<TRIPOS>MOLECULE
3lij_ANP_A_1.pdb
 31 33 0 0 0
SMALL
GASTEIGER

@<TRIPOS>ATOM
      1  PG        -1.3950    5.6810   30.7440 P.3   522  ANP522      0.4884
      2  O1G       -1.2250    5.5680   29.1480 O.2   522  ANP522     -0.2331
      3  O2G       -1.1370    4.4020   31.4440 O.3   522  ANP522     -0.1240
      4  O3G       -2.8950    6.2160   30.9770 O.3   522  ANP522     -0.1240
      5  PB         1.1570    6.5850   31.0140 P.3   522  ANP522      0.4669
      6  O1B        2.0080    7.6520   31.5910 O.2   522  ANP522     -0.2351
      7  O2B        1.4640    5.1480   31.6820 O.3   522  ANP522     -0.1253
      8  N3B       -0.4280    6.8950   31.2360 N.3   522  ANP522     -0.0163
      9  PA         2.2780    7.4060   28.5650 P.3   522  ANP522      0.2220
     10  O1A        3.4640    7.8860   29.3090 O.3   522  ANP522     -0.4370
     11  O2A        2.6680    6.6350   27.2070 O.2   522  ANP522     -0.5170
     12  O3A        1.3690    6.3830   29.4230 O.3   522  ANP522     -0.2360
     13  O5'        1.2960    8.6010   28.1210 O.3   522  ANP522     -0.3111
     14  C5'        1.2350    9.7980   28.9040 C.3   522  ANP522      0.1813
     15  C4'        0.1920   10.7750   28.3520 C.3   522  ANP522      0.1821
     16  O4'        0.4590   11.0220   26.9410 O.3   522  ANP522     -0.3135
     17  C3'       -1.1840   10.1020   28.4290 C.3   522  ANP522      0.2184
     18  O3'       -2.1320   11.0450   28.9410 O.3   522  ANP522     -0.2174
     19  C2'       -1.4800    9.7800   26.9700 C.3   522  ANP522      0.2570
     20  O2'       -2.8930    9.7620   26.7300 O.3   522  ANP522     -0.2130
     21  C1'       -0.8110   10.9660   26.2770 C.3   522  ANP522      0.3186
     22  N9        -0.5840   10.7000   24.8450 N.pl3 522  ANP522     -0.1439
     23  C8         0.2010    9.7490   24.3310 C.3   522  ANP522      0.3377
     24  N7         0.1570    9.8090   22.9980 N.2   522  ANP522     -0.2095
     25  C5        -0.6580   10.8040   22.6580 C.2   522  ANP522      0.2526
     26  C6        -1.0990   11.3240   21.4430 C.2   522  ANP522      0.4393
     27  N6        -0.6760   10.8170   20.2880 N.pl3 522  ANP522      0.2180
     28  N1        -1.9560   12.3630   21.4520 N.2   522  ANP522      0.0021
     29  C2        -2.3770   12.8880   22.5990 C.3   522  ANP522      0.5254
     30  N3        -1.9930   12.4000   23.7750 N.2   522  ANP522     -0.0055
     31  C4        -1.1320   11.3700   23.8350 C.2   522  ANP522      0.3518
@<TRIPOS>BOND
     1    27    26    1
     2    26    28    2
     3    26    25    1
     4    28    29    1
     5    29    30    1
     6    25    24    2
     7    25    31    1
     8    24    23    1
     9    30    31    2
    10    31    22    1
    11    23    22    1
    12    22    21    1
    13    21    16    1
    14    21    19    1
    15    20    19    1
    16    16    15    1
    17    19    17    1
    18    11     9    2
    19    13     9    1
    20    13    14    1
    21    15    17    1
    22    15    14    1
    23    17    18    1
    24     9    10    1
    25     9    12    1
    26     2     1    2
    27    12     5    1
    28     1     4    1
    29     1     8    1
    30     1     3    1
    31     5     8    1
    32     5     6    2
    33     5     7    1
