@<TRIPOS>MOLECULE
3lik_EEG_A_1.pdb
 40 42 0 0 0
SMALL
GASTEIGER

@<TRIPOS>ATOM
      1  C1         6.7370   31.0620    8.1530 C.2   301  EEG301      0.2806
      2  N1         8.4630   29.5250    7.3940 N.am  301  EEG301     -0.1960
      3  O1         6.6200   28.5580    6.4770 O.2   301  EEG301     -0.2711
      4  C2         7.6500   29.8940    8.5330 C.3   301  EEG301      0.1750
      5  N2         7.8900   27.2780    4.4360 N.am  301  EEG301     -0.1932
      6  O2         9.8280   26.0040    4.5010 O.2   301  EEG301     -0.2733
      7  C3         8.5270   30.1650    9.7660 C.3   301  EEG301      0.0430
      8  C4         8.8270   31.6160   10.1530 C.3   301  EEG301      0.1163
      9  O4         8.7330   31.4260    1.5830 O.co2 301  EEG301     -0.2406
     10  C5        10.2150   31.9420   10.7150 C.2   301  EEG301      0.3649
     11  C6         7.7930   28.7170    6.3940 C.2   301  EEG301      0.2659
     12  C7         8.4970   28.4490    5.0590 C.3   301  EEG301      0.1949
     13  S7         2.7520   22.3740    8.6150 S.2   301  EEG301     -0.0864
     14  C8         8.3390   29.6620    4.1290 C.2   301  EEG301      0.0111
     15  O8        11.0590   32.7830    9.9790 O.co2 301  EEG301     -0.2457
     16  C9         9.5940   30.4250    3.7290 C.2   301  EEG301      0.0838
     17  N9         7.0570   31.8590    6.9870 N.am  301  EEG301     -0.0863
     18  O9         5.6780   31.1890    8.6720 O.2   301  EEG301     -0.2698
     19  C10        9.3820   31.6180    2.8020 C.2   301  EEG301      0.3877
     20  C11        8.7340   26.1580    4.0480 C.2   301  EEG301      0.2424
     21  C12        8.0240   25.0240    3.3070 C.3   301  EEG301      0.0915
     22  C13        7.8240   23.7690    4.1440 C.3   301  EEG301      0.0360
     23  C14        5.2080   24.1310    4.3600 C.ar  301  EEG301     -0.0042
     24  C15        5.3230   22.5490    6.7990 C.ar  301  EEG301      0.0002
     25  C16        4.0790   23.0640    6.2870 C.ar  301  EEG301      0.0060
     26  C17        4.0030   23.8460    5.0940 C.ar  301  EEG301      0.0002
     27  C18        2.8130   22.7430    7.0870 C.ar  301  EEG301      0.0295
     28  C19        1.4110   22.7470    6.4930 C.ar  301  EEG301      0.0070
     29  C20        0.3600   22.3420    7.7320 C.ar  301  EEG301      0.0070
     30  C21       -1.1480   22.2940    7.5200 C.ar  301  EEG301      0.0005
     31  C22       -1.9130   21.3110    8.0770 C.ar  301  EEG301      0.0000
     32  C23       -3.3230   21.3120    7.8240 C.ar  301  EEG301      0.0000
     33  C24       -3.8990   22.3170    6.9700 C.ar  301  EEG301      0.0000
     34  C25       -3.0940   23.3160    6.3790 C.ar  301  EEG301      0.0000
     35  C26       -1.7270   23.3270    6.6230 C.ar  301  EEG301      0.0000
     36  C27        6.5000   23.6030    4.9020 C.ar  301  EEG301     -0.0217
     37  C28        6.5490   22.8540    6.0560 C.ar  301  EEG301     -0.0042
     38  C29        1.1030   22.1290    8.9660 C.ar  301  EEG301      0.0354
     39  O4E        9.5890   32.7130    3.1980 O.co2 301  EEG301     -0.2406
     40  O8E       10.6920   31.2430   11.5470 O.co2 301  EEG301     -0.2457
@<TRIPOS>BOND
     1     9    19   ar
     2    19    39   ar
     3    19    16    1
     4    21    20    1
     5    21    22    1
     6    16    14    2
     7    20     5   am
     8    20     6    2
     9    14    12    1
    10    22    36    1
    11    23    36   ar
    12    23    26   ar
    13     5    12    1
    14    36    37   ar
    15    12    11    1
    16    26    25   ar
    17    37    24   ar
    18    25    24   ar
    19    25    27    1
    20    34    35   ar
    21    34    33   ar
    22    11     3    2
    23    11     2   am
    24    28    27   ar
    25    28    29   ar
    26    35    30   ar
    27    33    32   ar
    28    17     1   am
    29    27    13   ar
    30     2     4    1
    31    30    29    1
    32    30    31   ar
    33    29    38   ar
    34    32    31   ar
    35     1     4    1
    36     1    18    2
    37     4     7    1
    38    13    38   ar
    39     7     8    1
    40    15    10   ar
    41     8    10    1
    42    10    40   ar
