@<TRIPOS>MOLECULE
3lil_EEA_A_1.pdb
 41 43 0 0 0
SMALL
GASTEIGER

@<TRIPOS>ATOM
      1  C1         7.9270   24.8860    3.5260 C.3   301  EEA301      0.0949
      2  N1         8.5820   29.1280    7.8280 N.am  301  EEA301     -0.1963
      3  O1         6.7380   28.1940    6.8540 O.2   301  EEA301     -0.2715
      4 CL1        -2.7870   22.7180   11.1680 Cl    301  EEA301     -0.0822
      5  C2         8.0350   23.5920    4.3160 C.3   301  EEA301      0.0769
      6  N2         7.9600   27.1250    4.7170 N.am  301  EEA301     -0.1978
      7  O2         9.8400   25.7920    4.5680 O.2   301  EEA301     -0.2733
      8  C3         6.8060   23.1240    5.1080 C.ar  301  EEA301      0.1549
      9  C4         5.3920   23.6500    5.0670 C.ar  301  EEA301      0.0580
     10  O4         8.5240   31.3740    2.1350 O.co2 301  EEA301     -0.2457
     11  C5         4.6620   22.8010    5.9380 C.ar  301  EEA301      0.1227
     12  C6         3.1860   22.8150    6.2750 C.ar  301  EEA301      0.0209
     13  C7         2.7790   22.0030    7.4720 C.ar  301  EEA301      0.0016
     14  C8         1.4150   21.9680    7.8250 C.ar  301  EEA301      0.0001
     15  O8        11.1410   32.2680   10.8010 O.co2 301  EEA301     -0.2457
     16  C9         0.4760   22.6700    7.0160 C.ar  301  EEA301      0.0000
     17  N9         5.6640   30.9480    9.3460 N.am  301  EEA301     -0.0863
     18  O9         7.0790   31.3330    7.6130 O.2   301  EEA301     -0.2698
     19  C10        0.8790   23.4470    5.8540 C.ar  301  EEA301      0.0001
     20  C11        2.2730   23.4980    5.4670 C.ar  301  EEA301      0.0016
     21  C12        8.7250   25.9950    4.2060 C.2   301  EEA301      0.2422
     22  N12        5.5100   21.8280    6.5050 N.ar  301  EEA301     -0.0774
     23  O12        6.8520   22.0690    5.9610 O.2   301  EEA301     -0.3578
     24  C13        8.6640   28.1570    5.4790 C.3   301  EEA301      0.1733
     25  C14        7.9200   28.3580    6.7980 C.2   301  EEA301      0.2616
     26  C15        8.6070   29.5080    4.7610 C.3   301  EEA301      0.0429
     27  C16        9.5930   29.8290    3.6490 C.3   301  EEA301      0.1163
     28  C17        9.2810   31.2240    3.1480 C.2   301  EEA301      0.3649
     29  C18       -0.9850   22.7050    7.4610 C.ar  301  EEA301      0.0008
     30  C19       -1.2420   22.6970    8.9270 C.ar  301  EEA301      0.0114
     31  C20       -2.5230   22.8020    9.4000 C.ar  301  EEA301      0.0577
     32  C21       -3.5950   22.9940    8.4870 C.ar  301  EEA301      0.0114
     33  C22       -3.3300   23.0880    7.0730 C.ar  301  EEA301      0.0009
     34  C23       -1.9940   22.9740    6.5820 C.ar  301  EEA301      0.0001
     35  C24        7.7440   29.4870    8.9500 C.3   301  EEA301      0.1750
     36  C25        8.5710   29.6200   10.2390 C.3   301  EEA301      0.0430
     37  C26        8.9290   31.0230   10.7300 C.3   301  EEA301      0.1163
     38  C27       10.3240   31.2540   11.3310 C.2   301  EEA301      0.3649
     39  C28        6.8750   30.6960    8.5980 C.2   301  EEA301      0.2806
     40  O4E        9.7230   32.2590    3.9020 O.co2 301  EEA301     -0.2457
     41  O8E       10.5950   30.7470   12.3760 O.co2 301  EEA301     -0.2457
@<TRIPOS>BOND
     1    10    28   ar
     2    28    27    1
     3    28    40   ar
     4     1    21    1
     5     1     5    1
     6    27    26    1
     7    21     7    2
     8    21     6   am
     9     5     8    1
    10     6    24    1
    11    26    24    1
    12     9     8   ar
    13     9    11   ar
    14     8    23   ar
    15    20    19   ar
    16    20    12   ar
    17    24    25    1
    18    19    16   ar
    19    11    12    1
    20    11    22   ar
    21    23    22   ar
    22    12    13   ar
    23    34    33   ar
    24    34    29   ar
    25    25     3    2
    26    25     2   am
    27    16    29    1
    28    16    14   ar
    29    33    32   ar
    30    29    30   ar
    31    13    14   ar
    32    18    39    2
    33     2    35    1
    34    32    31   ar
    35    39    35    1
    36    39    17   am
    37    30    31   ar
    38    35    36    1
    39    31     4    1
    40    36    37    1
    41    37    38    1
    42    15    38   ar
    43    38    41   ar
