@<TRIPOS>MOLECULE
3lin_E13_B_1.pdb
 50 52 0 0 0
SMALL
GASTEIGER

@<TRIPOS>ATOM
      1  CB1       32.8800   -0.0900   51.3140 C.2   117  E13117      0.4219
      2  OA1       32.1600    0.1800   50.1050 O.2   117  E13117     -0.2245
      3  OA2       34.1470   -0.9400   51.2490 O.3   117  E13117     -0.4294
      4  CB2       33.8720   -2.2270   50.4590 C.3   117  E13117      0.2574
      5  CBF       30.9850    2.3800   53.4500 C.2   117  E13117      0.2660
      6  NAJ       32.3950    0.4490   52.5980 N.am  117  E13117     -0.1565
      7  OAK       31.2120    2.2750   54.6300 O.2   117  E13117     -0.2711
      8  CBM       31.1470    1.2120   52.4560 C.3   117  E13117      0.1983
      9  CBK       29.9800    0.2220   52.7670 C.ar  117  E13117      0.0063
     10  CAQ       27.6180   -1.7350   53.3770 C.ar  117  E13117     -0.0000
     11  CAT       27.9240   -0.5690   54.3520 C.ar  117  E13117     -0.0003
     12  CAU       28.5030   -1.9170   52.1210 C.ar  117  E13117     -0.0003
     13  CAX       29.0940    0.3890   54.0290 C.ar  117  E13117     -0.0021
     14  CAY       29.6680   -0.9490   51.8140 C.ar  117  E13117     -0.0021
     15  N         30.4530    3.6100   52.8790 N.am  117  E13117     -0.1961
     16  CA        30.2640    4.7330   53.7910 C.3   117  E13117      0.1726
     17  CB        31.4030    5.8020   53.5510 C.3   117  E13117      0.0270
     18  CAG       32.7300    5.2860   54.1540 C.3   117  E13117      0.0022
     19  CG1       31.6420    6.0870   52.0560 C.3   117  E13117      0.0022
     20  CG2       31.0480    7.1130   54.2860 C.3   117  E13117      0.0022
     21  C         28.8330    5.3040   53.6850 C.2   117  E13117      0.2613
     22  O         28.4240    5.9600   52.7750 O.2   117  E13117     -0.2715
     23  CBI       25.8580    7.6620   56.0100 C.2   117  E13117      0.2589
     24  NBC       28.0250    4.9850   54.8340 N.am  117  E13117     -0.2023
     25  OAN       24.7690    7.5840   56.4670 O.2   117  E13117     -0.2720
     26  CBN       26.8800    6.5220   56.1560 C.3   117  E13117      0.2475
     27  CBJ       25.6510    3.7150   53.7510 C.ar  117  E13117     -0.0204
     28  CBA       25.6420    4.4350   55.1120 C.3   117  E13117      0.0511
     29  CAP       25.6480    2.3210   51.0160 C.ar  117  E13117     -0.0000
     30  CBO       26.6990    5.5300   54.9710 C.3   117  E13117      0.1389
     31  OAO       26.7620    5.9710   57.4240 O.3   117  E13117     -0.2114
     32  CAV       24.7180    4.2100   52.6500 C.ar  117  E13117     -0.0042
     33  CAW       26.5930    2.5310   53.5010 C.ar  117  E13117     -0.0042
     34  CAR       24.7020    3.5090   51.2830 C.ar  117  E13117     -0.0003
     35  CAS       26.5920    1.8310   52.1290 C.ar  117  E13117     -0.0003
     36  CBH       24.1130    9.4170   54.0530 C.2   117  E13117      0.2603
     37  NBR       26.2180    8.8580   55.2810 N.am  117  E13117     -0.2602
     38  OAM       24.4440    8.6470   53.1850 O.2   117  E13117     -0.2715
     39  CBQ       25.1360    9.9870   55.0690 C.3   117  E13117      0.1633
     40  CBU       25.8930   11.2450   54.5270 C.3   117  E13117      0.0661
     41  CAZ       27.5460    9.1830   54.5870 C.3   117  E13117      0.1527
     42  CAH       25.0480   12.1400   53.6090 C.3   117  E13117      0.0131
     43  CAI       26.3950   12.0540   55.7330 C.3   117  E13117      0.0131
     44  SBE       27.2690   10.5630   53.6520 S.3   117  E13117     -0.1182
     45  NBB       22.7270    9.8640   54.1520 N.am  117  E13117     -0.2040
     46  CBL       21.7660    9.3610   53.1770 C.3   117  E13117      0.1151
     47  CBS       20.8020    8.3200   53.7780 C.3   117  E13117      0.0201
     48  CAB       21.5660    7.0900   54.3370 C.3   117  E13117      0.0018
     49  CAC       19.9610    8.9280   54.9180 C.3   117  E13117      0.0018
     50  CAD       19.9000    7.8680   52.6050 C.3   117  E13117      0.0018
@<TRIPOS>BOND
     1     2     1    2
     2     4     3    1
     3    29    34   ar
     4    29    35   ar
     5     3     1    1
     6    34    32   ar
     7     1     6   am
     8    14    12   ar
     9    14     9   ar
    10    19    17    1
    11    12    10   ar
    12    35    33   ar
    13     8     6    1
    14     8     9    1
    15     8     5    1
    16    50    47    1
    17    32    27   ar
    18     9    13   ar
    19    22    21    2
    20    15     5   am
    21    15    16    1
    22    46    47    1
    23    46    45    1
    24    38    36    2
    25    10    11   ar
    26     5     7    2
    27    33    27   ar
    28    17    16    1
    29    17    18    1
    30    17    20    1
    31    42    40    1
    32    44    40    1
    33    44    41    1
    34    21    16    1
    35    21    24   am
    36    27    28    1
    37    47    48    1
    38    47    49    1
    39    13    11   ar
    40    36    45   am
    41    36    39    1
    42    40    39    1
    43    40    43    1
    44    41    37    1
    45    24    30    1
    46    30    28    1
    47    30    26    1
    48    39    37    1
    49    37    23   am
    50    23    26    1
    51    23    25    2
    52    26    31    1
