@<TRIPOS>MOLECULE
3lio_TRE_A_1.pdb
 23 24 0 0 0
SMALL
GASTEIGER

@<TRIPOS>ATOM
      1  C1         1.6940    2.9720   16.4980 C.3   8000  TRE8000     0.2713
      2  C2         0.3260    2.3150   16.4330 C.3   8000  TRE8000     0.2406
      3  C3        -0.6380    3.1020   17.2980 C.3   8000  TRE8000     0.2198
      4  C4        -0.1220    2.9920   18.7220 C.3   8000  TRE8000     0.2144
      5  C5         1.2490    3.6400   18.7510 C.3   8000  TRE8000     0.1835
      6  C6         1.8220    3.5480   20.1550 C.3   8000  TRE8000     0.2142
      7  O1         1.6320    4.3250   16.0100 O.3   8000  TRE8000    -0.3016
      8  O2        -0.1430    2.2990   15.0790 O.3   8000  TRE8000    -0.2149
      9  O3        -1.9380    2.5040   17.1810 O.3   8000  TRE8000    -0.2174
     10  O4        -1.0040    3.6560   19.6410 O.3   8000  TRE8000    -0.2176
     11  O5         2.1310    2.9370   17.8610 O.3   8000  TRE8000    -0.3256
     12  O6         2.1930    2.1910   20.4110 O.3   8000  TRE8000    -0.2176
     13  C1P        2.9380    4.9280   16.0150 C.3   8000  TRE8000     0.2713
     14  C2P        2.7800    6.4350   15.8710 C.3   8000  TRE8000     0.2406
     15  C3P        2.1210    6.7260   14.5290 C.3   8000  TRE8000     0.2198
     16  C4P        2.9630    6.1550   13.3990 C.3   8000  TRE8000     0.2144
     17  C5P        3.1440    4.6650   13.6360 C.3   8000  TRE8000     0.1835
     18  C6P        4.1180    4.1400   12.5880 C.3   8000  TRE8000     0.2142
     19  O2P        1.9320    6.8950   16.9370 O.3   8000  TRE8000    -0.2149
     20  O3P        1.9640    8.1340   14.3450 O.3   8000  TRE8000    -0.2174
     21  O4P        2.3210    6.3570   12.1250 O.3   8000  TRE8000    -0.2176
     22  O5P        3.7260    4.4260   14.9260 O.3   8000  TRE8000    -0.3256
     23  O6P        4.1250    2.7130   12.6330 O.3   8000  TRE8000    -0.2176
@<TRIPOS>BOND
     1    21    16    1
     2    18    23    1
     3    18    17    1
     4    16    17    1
     5    16    15    1
     6    17    22    1
     7    20    15    1
     8    15    14    1
     9    22    13    1
    10     8     2    1
    11    14    13    1
    12    14    19    1
    13     7    13    1
    14     7     1    1
    15     2     1    1
    16     2     3    1
    17     1    11    1
    18     9     3    1
    19     3     4    1
    20    11     5    1
    21     4     5    1
    22     4    10    1
    23     5     6    1
    24     6    12    1
