@<TRIPOS>MOLECULE
3liq_E14_B_1.pdb
 45 47 0 0 0
SMALL
GASTEIGER

@<TRIPOS>ATOM
      1  CBF       23.5110   29.4760   26.4110 C.2   117  E14117      0.2634
      2  NAJ       25.4900   28.1870   27.3270 N.3   117  E14117     -0.1182
      3  OAK       23.6470   29.2060   25.2490 O.2   117  E14117     -0.2714
      4  CBM       24.6770   29.4130   27.4360 C.3   117  E14117      0.1915
      5  CBK       25.6080   30.6270   27.2070 C.ar  117  E14117      0.0038
      6  CAQ       27.4670   33.0670   26.7730 C.ar  117  E14117     -0.0000
      7  CAT       27.2770   32.4650   28.1920 C.ar  117  E14117     -0.0003
      8  CAU       26.7220   32.4520   25.5610 C.ar  117  E14117     -0.0003
      9  CAX       26.3540   31.2430   28.4120 C.ar  117  E14117     -0.0024
     10  CAY       25.7980   31.2390   25.7860 C.ar  117  E14117     -0.0024
     11  N         22.2110   29.8850   26.9340 N.am  117  E14117     -0.1963
     12  CA        21.0890   30.0070   26.0110 C.3   117  E14117      0.1726
     13  CB        20.0510   28.8560   26.1800 C.3   117  E14117      0.0270
     14  CAG       20.6920   27.5510   25.6410 C.3   117  E14117      0.0022
     15  CG1       19.6400   28.6980   27.6650 C.3   117  E14117      0.0022
     16  CG2       18.7820   29.1740   25.3320 C.3   117  E14117      0.0022
     17  C         20.5180   31.4260   26.0320 C.2   117  E14117      0.2613
     18  O         19.9000   31.8750   26.9500 O.2   117  E14117     -0.2715
     19  CBI       18.2410   34.4640   23.6490 C.2   117  E14117      0.2589
     20  NBC       20.8040   32.1780   24.8330 N.am  117  E14117     -0.2023
     21  OAN       18.4110   35.5370   23.2190 O.2   117  E14117     -0.2720
     22  CBN       19.2810   33.3680   23.5130 C.3   117  E14117      0.2475
     23  CBJ       22.1160   34.6390   25.8570 C.ar  117  E14117     -0.0204
     24  CBA       21.4320   34.5080   24.4900 C.3   117  E14117      0.0511
     25  CAP       23.4860   34.9110   28.5770 C.ar  117  E14117     -0.0000
     26  CBO       20.2830   33.5160   24.6830 C.3   117  E14117      0.1389
     27  OAO       19.8360   33.4570   22.2470 O.3   117  E14117     -0.2114
     28  CAV       21.8170   35.8570   26.7300 C.ar  117  E14117     -0.0042
     29  CAW       23.0960   33.5610   26.3280 C.ar  117  E14117     -0.0042
     30  CAR       22.5010   36.0050   28.0980 C.ar  117  E14117     -0.0003
     31  CAS       23.7820   33.6740   27.6980 C.ar  117  E14117     -0.0003
     32  CBH       16.4720   36.3120   25.4870 C.2   117  E14117      0.2603
     33  NBR       17.0180   34.1390   24.3330 N.am  117  E14117     -0.2602
     34  OAM       17.2660   36.0110   26.3260 O.2   117  E14117     -0.2715
     35  CBQ       15.8930   35.2190   24.5330 C.3   117  E14117      0.1633
     36  CBU       14.6670   34.3790   25.0660 C.3   117  E14117      0.0661
     37  CAZ       16.6860   32.7590   24.9410 C.3   117  E14117      0.1527
     38  CAH       13.7430   35.1940   25.9910 C.3   117  E14117      0.0131
     39  CAI       13.8840   33.8920   23.8360 C.3   117  E14117      0.0131
     40  SBE       15.3460   32.9660   25.9360 S.3   117  E14117     -0.1182
     41  CAB       18.7340   39.8990   27.0880 C.3   117  E14117      0.0018
     42  CBS       17.9010   39.4540   25.8640 C.3   117  E14117      0.0217
     43  CAC       18.8390   38.5460   25.0510 C.3   117  E14117      0.0018
     44  CBL       16.6430   38.6800   26.3760 C.3   117  E14117      0.1151
     45  NBB       16.0560   37.7200   25.4100 N.am  117  E14117     -0.2040
@<TRIPOS>BOND
     1    27    22    1
     2    21    19    2
     3    22    19    1
     4    22    26    1
     5    19    33   am
     6    39    36    1
     7    33    35    1
     8    33    37    1
     9    24    26    1
    10    24    23    1
    11    35    36    1
    12    35    32    1
    13    26    20    1
    14    20    17   am
    15    37    40    1
    16    43    42    1
    17    36    40    1
    18    36    38    1
    19     3     1    2
    20    16    13    1
    21    45    32   am
    22    45    44    1
    23    32    34    2
    24     8    10   ar
    25     8     6   ar
    26    14    13    1
    27    10     5   ar
    28    23    29   ar
    29    23    28   ar
    30    42    44    1
    31    42    41    1
    32    12    17    1
    33    12    13    1
    34    12    11    1
    35    17    18    2
    36    13    15    1
    37    29    31   ar
    38     1    11   am
    39     1     4    1
    40    28    30   ar
    41     6     7   ar
    42     5     4    1
    43     5     9   ar
    44     2     4    1
    45    31    25   ar
    46    30    25   ar
    47     7     9   ar
