@<TRIPOS>MOLECULE
3lir_EEC_A_1.pdb
 34 35 0 0 0
SMALL
GASTEIGER

@<TRIPOS>ATOM
      1  C1         6.7240   31.0410    8.3400 C.2     1  EEC1        0.2806
      2  N1         8.4530   29.5660    7.4880 N.am    1  EEC1       -0.1963
      3  O1         6.6730   28.5230    6.5970 O.2     1  EEC1       -0.2715
      4  C2         7.6960   29.9370    8.6710 C.3     1  EEC1        0.1750
      5  N2         8.0150   27.4730    4.5940 N.am    1  EEC1       -0.1978
      6  O2         9.8760   26.1830    4.3700 O.2     1  EEC1       -0.2733
      7  C3         8.7430   30.4620    9.6410 C.3     1  EEC1        0.0430
      8  N3         5.6310   22.2820    6.4150 N.ar    1  EEC1       -0.0774
      9  C4         9.1500   29.3750   10.6210 C.3     1  EEC1        0.1163
     10  O4         9.7360   32.1640    3.2120 O.co2   1  EEC1       -0.2457
     11  C5        10.1000   29.9660   11.6400 C.2     1  EEC1        0.3649
     12  O5         6.9020   22.6120    5.8790 O.2     1  EEC1       -0.3578
     13  C6         7.8500   28.8630    6.5330 C.2     1  EEC1        0.2616
     14  C7         8.6640   28.5480    5.3210 C.3     1  EEC1        0.1733
     15  C8         8.4910   29.7930    4.4610 C.3     1  EEC1        0.0429
     16  O8        10.3700   31.1930   11.5930 O.co2   1  EEC1       -0.2457
     17  C9         9.3250   29.8280    3.1910 C.3     1  EEC1        0.1163
     18  N9         7.0430   31.8180    7.3980 N.am    1  EEC1       -0.0863
     19  O9         5.6800   31.1710    8.9630 O.2     1  EEC1       -0.2698
     20  C10        9.1330   31.2230    2.6470 C.2     1  EEC1        0.3649
     21  C11        8.6790   26.3970    4.1820 C.2     1  EEC1        0.2422
     22  C12        7.8260   25.3950    3.4700 C.3     1  EEC1        0.0949
     23  C13        8.0490   24.1130    4.2270 C.3     1  EEC1        0.0769
     24  C14        5.4760   23.9440    4.8860 C.ar    1  EEC1        0.0580
     25  C16        4.7730   23.1150    5.7930 C.ar    1  EEC1        0.1227
     26  C21        3.3150   23.0670    6.0910 C.ar    1  EEC1        0.0209
     27  C22        2.3930   23.6940    5.2590 C.ar    1  EEC1        0.0016
     28  C23        1.0410   23.6290    5.5580 C.ar    1  EEC1        0.0000
     29  C24        0.6260   22.9250    6.6890 C.ar    1  EEC1        0.0000
     30  C25        1.5440   22.2910    7.5220 C.ar    1  EEC1        0.0000
     31  C26        2.8950   22.3620    7.2200 C.ar    1  EEC1        0.0016
     32  C27        6.8360   23.6020    4.9560 C.ar    1  EEC1        0.1549
     33  O4E        8.3640   31.3850    1.6730 O.co2   1  EEC1       -0.2457
     34  O8E       10.5840   29.1950   12.5010 O.co2   1  EEC1       -0.2457
@<TRIPOS>BOND
     1    33    20   ar
     2    20    17    1
     3    20    10   ar
     4    17    15    1
     5    22    21    1
     6    22    23    1
     7    21     6    2
     8    21     5   am
     9    23    32    1
    10    15    14    1
    11     5    14    1
    12    24    32   ar
    13    24    25   ar
    14    32    12   ar
    15    27    28   ar
    16    27    26   ar
    17    14    13    1
    18    28    29   ar
    19    25    26    1
    20    25     8   ar
    21    12     8   ar
    22    26    31   ar
    23    13     3    2
    24    13     2   am
    25    29    30   ar
    26    31    30   ar
    27    18     1   am
    28     2     4    1
    29     1     4    1
    30     1    19    2
    31     4     7    1
    32     7     9    1
    33     9    11    1
    34    16    11   ar
    35    11    34   ar
