@<TRIPOS>MOLECULE
3lit_E15_A_1.pdb
 46 48 0 0 0
SMALL
GASTEIGER

@<TRIPOS>ATOM
      1  CBF       23.6190   29.6800   26.3250 C.2   117  E15117      0.2634
      2  NAJ       25.6170   28.4130   27.1380 N.3   117  E15117     -0.1182
      3  OAK       23.7770   29.4310   25.1540 O.2   117  E15117     -0.2714
      4  CBM       24.7840   29.6080   27.3400 C.3   117  E15117      0.1915
      5  CBK       25.6880   30.8500   27.1450 C.ar  117  E15117      0.0038
      6  CAQ       27.4740   33.3400   26.7660 C.ar  117  E15117     -0.0000
      7  CAT       27.2060   32.7750   28.1830 C.ar  117  E15117     -0.0003
      8  CAU       26.8600   32.6650   25.5220 C.ar  117  E15117     -0.0003
      9  CAX       26.3140   31.5330   28.3790 C.ar  117  E15117     -0.0024
     10  CAY       25.9670   31.4230   25.7230 C.ar  117  E15117     -0.0024
     11  N         22.3190   30.0660   26.8750 N.am  117  E15117     -0.1963
     12  CA        21.1520   30.1920   26.0010 C.3   117  E15117      0.1726
     13  CB        20.1750   28.9640   26.1730 C.3   117  E15117      0.0270
     14  CAG       20.8570   27.6540   25.6810 C.3   117  E15117      0.0022
     15  CG1       19.7360   28.7850   27.6460 C.3   117  E15117      0.0022
     16  CG2       18.9090   29.2200   25.3100 C.3   117  E15117      0.0022
     17  C         20.5300   31.6060   26.0430 C.2   117  E15117      0.2613
     18  O         19.8920   32.0120   26.9710 O.2   117  E15117     -0.2715
     19  CBI       18.2660   34.6950   23.5760 C.2   117  E15117      0.2589
     20  NBC       20.7750   32.3950   24.8500 N.am  117  E15117     -0.2023
     21  OAN       18.4060   35.7830   23.1580 O.2   117  E15117     -0.2720
     22  CBN       19.3440   33.6320   23.4140 C.3   117  E15117      0.2475
     23  CBJ       22.0940   34.9820   25.8440 C.ar  117  E15117     -0.0204
     24  CBA       21.3680   34.8000   24.4970 C.3   117  E15117      0.0511
     25  CAP       23.5650   35.3490   28.4810 C.ar  117  E15117     -0.0000
     26  CBO       20.2610   33.7510   24.6550 C.3   117  E15117      0.1389
     27  OAO       19.9970   33.7310   22.2010 O.3   117  E15117     -0.2114
     28  CAV       21.7530   36.1970   26.7270 C.ar  117  E15117     -0.0042
     29  CAW       23.1660   33.9620   26.2580 C.ar  117  E15117     -0.0042
     30  CAR       22.4980   36.3820   28.0590 C.ar  117  E15117     -0.0003
     31  CAS       23.9090   34.1390   27.5870 C.ar  117  E15117     -0.0003
     32  CBH       16.5290   36.4750   25.4740 C.2   117  E15117      0.2603
     33  NBR       17.0560   34.3330   24.2920 N.am  117  E15117     -0.2602
     34  OAM       17.3570   36.1420   26.2580 O.2   117  E15117     -0.2715
     35  CBQ       15.9280   35.4190   24.5050 C.3   117  E15117      0.1633
     36  CBU       14.6780   34.6410   25.0370 C.3   117  E15117      0.0661
     37  CAZ       16.7020   32.9580   24.9080 C.3   117  E15117      0.1527
     38  CAH       13.7950   35.5180   25.9520 C.3   117  E15117      0.0131
     39  CAI       13.8840   34.2190   23.7920 C.3   117  E15117      0.0131
     40  SBE       15.3450   33.2060   25.8820 S.3   117  E15117     -0.1182
     41  NBB       16.1140   37.8830   25.4190 N.am  117  E15117     -0.2058
     42  CBL       16.6600   38.8840   26.3590 C.3   117  E15117      0.0954
     43  CBS       17.7250   39.8090   25.6910 C.3   117  E15117      0.0200
     44  CAB       18.9160   38.9400   25.2050 C.3   117  E15117      0.0018
     45  CAC       17.1130   40.6880   24.5430 C.3   117  E15117      0.0018
     46  CAA       15.4570   39.7460   26.8020 C.3   117  E15117      0.0234
@<TRIPOS>BOND
     1    27    22    1
     2    21    19    2
     3    22    19    1
     4    22    26    1
     5    19    33   am
     6    39    36    1
     7    33    35    1
     8    33    37    1
     9    24    26    1
    10    24    23    1
    11    35    36    1
    12    35    32    1
    13    45    43    1
    14    26    20    1
    15    20    17   am
    16    37    40    1
    17    36    40    1
    18    36    38    1
    19     3     1    2
    20    44    43    1
    21    16    13    1
    22    41    32   am
    23    41    42    1
    24    32    34    2
    25     8    10   ar
    26     8     6   ar
    27    14    13    1
    28    43    42    1
    29    10     5   ar
    30    23    29   ar
    31    23    28   ar
    32    12    17    1
    33    12    13    1
    34    12    11    1
    35    17    18    2
    36    13    15    1
    37    29    31   ar
    38     1    11   am
    39     1     4    1
    40    42    46    1
    41    28    30   ar
    42     6     7   ar
    43     2     4    1
    44     5     4    1
    45     5     9   ar
    46    31    25   ar
    47    30    25   ar
    48     7     9   ar
