@<TRIPOS>MOLECULE
3liv_E16_B_1.pdb
 47 49 0 0 0
SMALL
GASTEIGER

@<TRIPOS>ATOM
      1  CBF       23.7120   29.3370   26.4580 C.2   117  E16117      0.2634
      2  NAJ       25.7050   28.0970   27.3270 N.3   117  E16117     -0.1182
      3  OAK       23.8980   29.0550   25.3150 O.2   117  E16117     -0.2714
      4  CBM       24.8670   29.2960   27.4920 C.3   117  E16117      0.1915
      5  CBK       25.7700   30.5520   27.2830 C.ar  117  E16117      0.0038
      6  CAQ       27.5680   33.0880   26.8990 C.ar  117  E16117     -0.0000
      7  CAT       26.7320   32.5300   25.7180 C.ar  117  E16117     -0.0003
      8  CAU       27.5010   32.3680   28.2740 C.ar  117  E16117     -0.0003
      9  CAX       25.8410   31.2760   25.9130 C.ar  117  E16117     -0.0024
     10  CAY       26.6090   31.1140   28.4670 C.ar  117  E16117     -0.0024
     11  N         22.3840   29.7500   26.9040 N.am  117  E16117     -0.1963
     12  CA        21.3470   29.8290   25.8950 C.3   117  E16117      0.1726
     13  CB        20.2810   28.7180   26.1320 C.3   117  E16117      0.0270
     14  CAG       20.7760   27.3870   25.5340 C.3   117  E16117      0.0022
     15  CG1       20.0240   28.5190   27.6390 C.3   117  E16117      0.0022
     16  CG2       18.9670   29.1140   25.4120 C.3   117  E16117      0.0022
     17  C         20.7370   31.2540   25.9530 C.2   117  E16117      0.2613
     18  O         20.1290   31.6820   26.8930 O.2   117  E16117     -0.2715
     19  CBI       18.3150   34.2340   23.6120 C.2   117  E16117      0.2589
     20  NBC       20.9440   32.0580   24.7580 N.am  117  E16117     -0.2023
     21  OAN       18.3900   35.2970   23.1310 O.2   117  E16117     -0.2720
     22  CBN       19.4260   33.2100   23.5060 C.3   117  E16117      0.2475
     23  CBJ       22.1300   34.6500   25.7600 C.ar  117  E16117     -0.0204
     24  CBA       21.3870   34.4810   24.4530 C.3   117  E16117      0.0511
     25  CAP       23.6290   34.9920   28.3910 C.ar  117  E16117     -0.0000
     26  CBO       20.3520   33.3800   24.7090 C.3   117  E16117      0.1389
     27  OAO       20.1050   33.3260   22.2930 O.3   117  E16117     -0.2114
     28  CAV       21.7810   35.8170   26.6560 C.ar  117  E16117     -0.0042
     29  CAW       23.2140   33.6490   26.1460 C.ar  117  E16117     -0.0042
     30  CAR       22.5370   35.9930   27.9810 C.ar  117  E16117     -0.0003
     31  CAS       23.9670   33.8080   27.4670 C.ar  117  E16117     -0.0003
     32  CBH       16.4600   36.0630   25.3670 C.2   117  E16117      0.2603
     33  NBR       17.1060   33.8910   24.3080 N.am  117  E16117     -0.2602
     34  OAM       17.3890   35.8970   26.0780 O.2   117  E16117     -0.2715
     35  CBQ       15.9500   34.9560   24.4240 C.3   117  E16117      0.1633
     36  CBU       14.7020   34.1420   24.9520 C.3   117  E16117      0.0661
     37  CAZ       16.7630   32.5660   25.0250 C.3   117  E16117      0.1527
     38  CAH       13.6280   34.9570   25.7130 C.3   117  E16117      0.0131
     39  CAI       14.0340   33.5620   23.7020 C.3   117  E16117      0.0131
     40  SBE       15.4040   32.8580   25.9680 S.3   117  E16117     -0.1182
     41  NBB       15.7780   37.3420   25.3780 N.am  117  E16117     -0.2058
     42  CBL       16.2100   38.3910   26.2930 C.3   117  E16117      0.0953
     43  CBS       17.4580   39.2080   25.8250 C.3   117  E16117      0.0185
     44  CAA       14.9320   39.2430   26.4810 C.3   117  E16117      0.0234
     45  CAB       18.6140   38.3280   25.2760 C.3   117  E16117      0.0017
     46  CAC       16.9860   40.2530   24.7670 C.3   117  E16117      0.0017
     47  CAD       18.0890   39.8810   27.0570 C.3   117  E16117      0.0017
@<TRIPOS>BOND
     1    27    22    1
     2    21    19    2
     3    22    19    1
     4    22    26    1
     5    19    33   am
     6    39    36    1
     7    33    35    1
     8    33    37    1
     9    35    36    1
    10    35    32    1
    11    24    26    1
    12    24    23    1
    13    26    20    1
    14    20    17   am
    15    46    43    1
    16    36    38    1
    17    36    40    1
    18    37    40    1
    19    45    43    1
    20     3     1    2
    21    32    41   am
    22    32    34    2
    23    41    42    1
    24    16    13    1
    25    14    13    1
    26     7     9   ar
    27     7     6   ar
    28    23    29   ar
    29    23    28   ar
    30    43    42    1
    31    43    47    1
    32    12    17    1
    33    12    13    1
    34    12    11    1
    35     9     5   ar
    36    17    18    2
    37    13    15    1
    38    29    31   ar
    39    42    44    1
    40     1    11   am
    41     1     4    1
    42    28    30   ar
    43     6     8   ar
    44     5     4    1
    45     5    10   ar
    46     2     4    1
    47    31    25   ar
    48    30    25   ar
    49     8    10   ar
