@<TRIPOS>MOLECULE
3liw_RUP_A_1.pdb
 36 40 0 0 0
SMALL
GASTEIGER

@<TRIPOS>ATOM
      1  C1        22.6860   33.6630   17.6950 C.3     1  RUP1        0.0017
      2  C6        22.3920   32.8370   19.0030 C.3     1  RUP1        0.0201
      3  C9        20.9150   32.2830   18.9640 C.3     1  RUP1        0.0802
      4  N10       20.6240   31.4810   20.1780 N.am    1  RUP1       -0.1906
      5  C12       21.3170   30.3480   20.4790 C.2     1  RUP1        0.3395
      6  O17       22.2250   29.9430   19.7520 O.2     1  RUP1       -0.2492
      7  N13       21.0090   29.6970   21.6410 N.am    1  RUP1       -0.1792
      8  C14       21.8130   28.5380   22.1240 C.3     1  RUP1        0.1786
      9  C26       23.2690   28.9570   21.8030 C.2     1  RUP1        0.2616
     10  O31       23.5240   30.1270   22.0760 O.2     1  RUP1       -0.2715
     11  N27       24.2930   28.2380   21.2650 N.am    1  RUP1       -0.2036
     12  C28       24.3760   26.8470   20.8350 C.3     1  RUP1        0.1199
     13  C29       25.3870   25.9730   21.6410 C.3     1  RUP1        0.0498
     14  C30       25.6450   26.4600   23.0880 C.ar    1  RUP1       -0.0204
     15  C36       26.4310   27.6040   23.4430 C.ar    1  RUP1       -0.0042
     16  C35       26.5920   27.9920   24.8050 C.ar    1  RUP1       -0.0003
     17  C34       25.9670   27.2400   25.8360 C.ar    1  RUP1       -0.0000
     18  C33       25.1850   26.1020   25.5000 C.ar    1  RUP1       -0.0003
     19  C32       25.0290   25.7230   24.1380 C.ar    1  RUP1       -0.0042
     20  C15       21.6790   28.3860   23.6760 C.3     1  RUP1        0.0575
     21  C16       20.2770   28.0000   24.2340 C.ar    1  RUP1       -0.0197
     22  C22       19.4400   26.9760   23.6740 C.ar    1  RUP1       -0.0042
     23  C21       18.1650   26.6960   24.2560 C.ar    1  RUP1       -0.0001
     24  C20       17.7140   27.4260   25.3950 C.ar    1  RUP1        0.0080
     25  C19       18.5420   28.4440   25.9600 C.ar    1  RUP1        0.0972
     26  C23       18.1030   29.2430   27.1770 C.2     1  RUP1        0.4766
     27  N25       18.9830   30.0000   27.7820 N.pl3   1  RUP1        0.2047
     28  N24       16.8730   29.1620   27.6160 N.pl3   1  RUP1        0.2047
     29  C18       19.8080   28.7140   25.3700 C.ar    1  RUP1        0.0038
     30  C8        20.7380   31.3560   17.6940 C.3     1  RUP1        0.0201
     31  C11       19.8930   33.5180   18.8920 C.3     1  RUP1        0.0201
     32  C4        20.1970   34.3390   17.5620 C.3     1  RUP1        0.0017
     33  C5        21.6870   34.8760   17.5870 C.3     1  RUP1        0.0001
     34  C3        20.0250   33.3940   16.3070 C.3     1  RUP1        0.0001
     35  C2        22.5060   32.7260   16.4380 C.3     1  RUP1        0.0001
     36  C7        21.0260   32.1870   16.3900 C.3     1  RUP1        0.0017
@<TRIPOS>BOND
     1    34    36    1
     2    34    32    1
     3    36    35    1
     4    36    30    1
     5    35     1    1
     6    32    33    1
     7    32    31    1
     8    33     1    1
     9    30     3    1
    10     1     2    1
    11    31     3    1
    12     3     2    1
    13     3     4    1
    14     6     5    2
    15     4     5   am
    16     5     7   am
    17    12    11    1
    18    12    13    1
    19    11     9   am
    20    13    14    1
    21     7     8    1
    22     9    10    2
    23     9     8    1
    24     8    20    1
    25    14    15   ar
    26    14    19   ar
    27    15    16   ar
    28    22    21   ar
    29    22    23   ar
    30    20    21    1
    31    19    18   ar
    32    21    29   ar
    33    23    24   ar
    34    16    17   ar
    35    29    25   ar
    36    24    25   ar
    37    18    17   ar
    38    25    26    1
    39    26    28    2
    40    26    27    1
