@<TRIPOS>MOLECULE
3lj3_WYE_A_1.pdb
 30 34 0 0 0
SMALL
GASTEIGER

@<TRIPOS>ATOM
      1  C1        48.8120   14.5970   30.6800 C.ar  1109  WYE1109     0.0353
      2  N1        48.4030   12.8030   29.0760 N.ar  1109  WYE1109    -0.2267
      3  O1        42.1990   13.9790   33.9640 O.2   1109  WYE1109    -0.2831
      4  C2        40.5460   11.0180   30.6370 C.ar  1109  WYE1109     0.0798
      5  N2        46.2290   11.8000   29.3050 N.ar  1109  WYE1109    -0.3095
      6  O2        42.6960   12.0660   31.0330 O.3   1109  WYE1109    -0.4499
      7  C3        38.8140   11.5640   32.2740 C.ar  1109  WYE1109     0.0843
      8  N3        47.1710   15.2780   32.3250 N.pl3 1109  WYE1109    -0.3045
      9  O3        38.3810   10.0870   30.4130 O.3   1109  WYE1109    -0.2864
     10  C4        49.1730   13.7700   29.6240 C.ar  1109  WYE1109     0.1018
     11  N4        47.1890   17.9710   33.2370 N.3   1109  WYE1109    -0.2686
     12  O4        39.2670   13.0350   34.1080 O.3   1109  WYE1109    -0.2862
     13  C5        45.1330   11.9670   30.1040 C.ar  1109  WYE1109     0.0772
     14  C6        46.7030   13.4580   30.7290 C.ar  1109  WYE1109     0.0490
     15  C7        40.9770   12.5040   32.5060 C.ar  1109  WYE1109     0.1155
     16  C8        45.3890   12.9840   30.9970 C.ar  1109  WYE1109     0.0245
     17  C9        47.5490   14.4490   31.2580 C.ar  1109  WYE1109     0.0524
     18  C10       41.3900   11.8310   31.3550 C.ar  1109  WYE1109     0.1549
     19  C11       39.2400   10.8850   31.1060 C.ar  1109  WYE1109     0.2020
     20  C12       39.6880   12.3900   32.9940 C.ar  1109  WYE1109     0.2050
     21  C13       47.1960   12.7000   29.6640 C.ar  1109  WYE1109     0.1451
     22  C14       42.1280   13.2650   32.9900 C.2   1109  WYE1109     0.2358
     23  C15       43.1820   12.9300   31.9990 C.2   1109  WYE1109     0.1842
     24  C16       44.4540   13.3800   31.9850 C.2   1109  WYE1109     0.0424
     25  C17       45.9760   16.1220   32.1590 C.3   1109  WYE1109     0.1081
     26  C18       48.1460   15.6930   33.3370 C.3   1109  WYE1109     0.1081
     27  C19       46.3340   17.5960   32.0550 C.3   1109  WYE1109     0.0938
     28  C20       48.4690   17.1770   33.2260 C.3   1109  WYE1109     0.0938
     29  C21       46.3230   10.8270   28.2430 C.3   1109  WYE1109     0.1319
     30  C22       47.4490   19.4510   33.2890 C.3   1109  WYE1109     0.0897
@<TRIPOS>BOND
     1    29     5    1
     2     2    10   ar
     3     2    21   ar
     4     5    21   ar
     5     5    13   ar
     6    10     1   ar
     7    21    14   ar
     8    13    16   ar
     9     9    19    1
    10     4    19   ar
    11     4    18   ar
    12     1    17   ar
    13    14    16   ar
    14    14    17   ar
    15    16    24    1
    16     6    18    1
    17     6    23    1
    18    19     7   ar
    19    17     8    1
    20    18    15   ar
    21    24    23    2
    22    23    22    1
    23    27    25    1
    24    27    11    1
    25    25     8    1
    26     7    20   ar
    27     8    26    1
    28    15    22    1
    29    15    20   ar
    30    22     3    2
    31    20    12    1
    32    28    11    1
    33    28    26    1
    34    11    30    1
