@<TRIPOS>MOLECULE
3lj6_PIX_A_1.pdb
 26 28 0 0 0
SMALL
GASTEIGER

@<TRIPOS>ATOM
      1  O9       -18.7820  -29.9760   25.2810 O.2     1  PIX1       -0.2649
      2  C8       -19.8500  -30.2490   24.7110 C.2     1  PIX1        0.3029
      3  N3       -20.9090  -30.7380   25.3610 N.am    1  PIX1       -0.2724
      4  C2       -22.1260  -31.0380   24.6170 C.3     1  PIX1        0.0939
      5  C1       -22.6050  -32.4290   24.9900 C.3     1  PIX1        0.0219
      6  C4       -20.8700  -30.9450   26.8090 C.3     1  PIX1        0.0939
      7  C5       -21.4000  -32.3330   27.1370 C.3     1  PIX1        0.0219
      8  C6       -22.7530  -32.5930   26.4900 C.3     1  PIX1        0.0078
      9  C7       -23.2060  -34.0260   26.7310 C.3     1  PIX1        0.0266
     10  C12      -23.6890  -34.2540   28.1230 C.ar    1  PIX1       -0.0192
     11  C13      -25.0180  -34.0240   28.4490 C.ar    1  PIX1       -0.0041
     12  C14      -25.4580  -34.2580   29.7490 C.ar    1  PIX1        0.0028
     13  C15      -24.5680  -34.7320   30.7120 C.ar    1  PIX1        0.0375
     14  C17      -22.8060  -34.7210   29.0790 C.ar    1  PIX1        0.0333
     15  C16      -23.2420  -34.9540   30.3770 C.ar    1  PIX1        0.1469
     16  O18      -22.3600  -35.3930   31.3060 O.3     1  PIX1       -0.4361
     17  C19      -22.1040  -36.7190   31.4630 C.ar    1  PIX1        0.2297
     18  C20      -21.1540  -37.1290   32.3860 C.ar    1  PIX1        0.0581
     19  C21      -20.9050  -38.4840   32.5520 C.ar    1  PIX1        0.0102
     20  N24      -22.7590  -37.6250   30.7330 N.ar    1  PIX1       -0.2099
     21  C23      -22.5400  -38.9320   30.8720 C.ar    1  PIX1        0.1059
     22  C24      -21.6070  -39.4030   31.7870 C.ar    1  PIX1        0.0907
     23  C25      -21.3380  -40.8800   31.9140 C.3     1  PIX1        0.4200
     24  F28      -20.9640  -41.2150   33.1450 F       1  PIX1       -0.1658
     25  F26      -22.3960  -41.5660   31.5240 F       1  PIX1       -0.1658
     26  F27      -20.3710  -41.1830   31.0720 F       1  PIX1       -0.1658
@<TRIPOS>BOND
     1     4     5    1
     2     4     3    1
     3     2     1    2
     4     2     3   am
     5     5     8    1
     6     3     6    1
     7     8     9    1
     8     8     7    1
     9     9    10    1
    10     6     7    1
    11    10    11   ar
    12    10    14   ar
    13    11    12   ar
    14    14    15   ar
    15    12    13   ar
    16    15    13   ar
    17    15    16    1
    18    20    21   ar
    19    20    17   ar
    20    21    22   ar
    21    26    23    1
    22    16    17    1
    23    17    18   ar
    24    25    23    1
    25    22    23    1
    26    22    19   ar
    27    23    24    1
    28    18    19   ar
