@<TRIPOS>MOLECULE
3lj9_TRE_A_1.pdb
 23 24 0 0 0
SMALL
GASTEIGER

@<TRIPOS>ATOM
      1  C1         2.3160    3.0410   16.3280 C.3   1151  TRE1151     0.2713
      2  C2         0.9610    2.3510   16.2870 C.3   1151  TRE1151     0.2406
      3  C3        -0.0200    3.1750   17.1030 C.3   1151  TRE1151     0.2198
      4  C4         0.5030    3.2110   18.5270 C.3   1151  TRE1151     0.2144
      5  C5         1.8990    3.8190   18.5320 C.3   1151  TRE1151     0.1835
      6  C6         2.4620    3.8190   19.9450 C.3   1151  TRE1151     0.2142
      7  O1         2.2100    4.3830   15.8230 O.3   1151  TRE1151    -0.3016
      8  O2         0.4800    2.2480   14.9420 O.3   1151  TRE1151    -0.2149
      9  O3        -1.3170    2.5610   17.0690 O.3   1151  TRE1151    -0.2174
     10  O4        -0.3920    3.9890   19.3310 O.3   1151  TRE1151    -0.2176
     11  O5         2.7800    3.0640   17.6870 O.3   1151  TRE1151    -0.3256
     12  O6         2.4480    2.4870   20.4670 O.3   1151  TRE1151    -0.2176
     13  C1P        3.4800    5.0520   15.8810 C.3   1151  TRE1151     0.2713
     14  C2P        3.3170    6.5580   15.7280 C.3   1151  TRE1151     0.2406
     15  C3P        2.7070    6.8720   14.3720 C.3   1151  TRE1151     0.2198
     16  C4P        3.5760    6.2680   13.2820 C.3   1151  TRE1151     0.2144
     17  C5P        3.7150    4.7760   13.5360 C.3   1151  TRE1151     0.1835
     18  C6P        4.5570    4.1390   12.4390 C.3   1151  TRE1151     0.2142
     19  O2P        2.4550    7.0700   16.7540 O.3   1151  TRE1151    -0.2149
     20  O3P        2.6150    8.2950   14.2070 O.3   1151  TRE1151    -0.2174
     21  O4P        2.9490    6.4690   12.0060 O.3   1151  TRE1151    -0.2176
     22  O5P        4.3140    4.5610   14.8220 O.3   1151  TRE1151    -0.3256
     23  O6P        4.7020    2.7400   12.7000 O.3   1151  TRE1151    -0.2176
@<TRIPOS>BOND
     1    21    16    1
     2    18    23    1
     3    18    17    1
     4    16    17    1
     5    16    15    1
     6    17    22    1
     7    20    15    1
     8    15    14    1
     9    22    13    1
    10     8     2    1
    11    14    13    1
    12    14    19    1
    13     7    13    1
    14     7     1    1
    15     2     1    1
    16     2     3    1
    17     1    11    1
    18     9     3    1
    19     3     4    1
    20    11     5    1
    21     4     5    1
    22     4    10    1
    23     5     6    1
    24     6    12    1
