@<TRIPOS>MOLECULE
3ljf_TRE_A_1.pdb
 23 24 0 0 0
SMALL
GASTEIGER

@<TRIPOS>ATOM
      1  C1        11.7520   -2.5260   29.3260 C.3   193  TRE193      0.2713
      2  C2        12.0560   -1.8060   28.0260 C.3   193  TRE193      0.2406
      3  C3        13.2670   -2.4610   27.3790 C.3   193  TRE193      0.2198
      4  C4        14.4370   -2.3670   28.3490 C.3   193  TRE193      0.2144
      5  C5        14.0500   -3.1000   29.6190 C.3   193  TRE193      0.1835
      6  C6        15.2090   -3.1280   30.6060 C.3   193  TRE193      0.2142
      7  O1        11.3810   -3.8780   29.0130 O.3   193  TRE193     -0.3016
      8  O2        10.9010   -1.8960   27.1770 O.3   193  TRE193     -0.2149
      9  O3        13.6080   -1.7790   26.1660 O.3   193  TRE193     -0.2174
     10  O4        15.6240   -2.9220   27.7610 O.3   193  TRE193     -0.2176
     11  O5        12.8980   -2.4610   30.1930 O.3   193  TRE193     -0.3256
     12  O6        15.5960   -1.7960   30.9660 O.3   193  TRE193     -0.2176
     13  C1P       10.9570   -4.5760   30.1980 C.3   193  TRE193      0.2713
     14  C2P       10.8650   -6.0710   29.9320 C.3   193  TRE193      0.2406
     15  C3P        9.7760   -6.3560   28.9120 C.3   193  TRE193      0.2198
     16  C4P        8.4690   -5.7200   29.3620 C.3   193  TRE193      0.2144
     17  C5P        8.6810   -4.2360   29.6250 C.3   193  TRE193      0.1835
     18  C6P        7.3710   -3.6250   30.1100 C.3   193  TRE193      0.2142
     19  O2P       12.1220   -6.5770   29.4490 O.3   193  TRE193     -0.2149
     20  O3P        9.6080   -7.7760   28.8230 O.3   193  TRE193     -0.2174
     21  O4P        7.4700   -5.8890   28.3420 O.3   193  TRE193     -0.2176
     22  O5P        9.6870   -4.0750   30.6360 O.3   193  TRE193     -0.3256
     23  O6P        7.5490   -2.2460   30.4500 O.3   193  TRE193     -0.2176
@<TRIPOS>BOND
     1     9     3    1
     2     8     2    1
     3     3     2    1
     4     3     4    1
     5    10     4    1
     6     2     1    1
     7    21    16    1
     8     4     5    1
     9    20    15    1
    10    15    16    1
    11    15    14    1
    12     7     1    1
    13     7    13    1
    14     1    11    1
    15    16    17    1
    16    19    14    1
    17     5    11    1
    18     5     6    1
    19    17    18    1
    20    17    22    1
    21    14    13    1
    22    18    23    1
    23    13    22    1
    24     6    12    1
