@<TRIPOS>MOLECULE
3ljg_EEF_A_1.pdb
 35 36 0 0 0
SMALL
GASTEIGER

@<TRIPOS>ATOM
      1  C1         7.9420   25.0430    3.4330 C.3   302  EEF302      0.0915
      2  N1         8.0550   27.4190    4.3650 N.am  302  EEF302     -0.1932
      3  O1         6.8450   28.4120    6.5760 O.2   302  EEF302     -0.2711
      4  C2         8.7290   26.1390    4.1800 C.2   302  EEF302      0.2424
      5  N2         8.7600   29.1750    7.5970 N.am  302  EEF302     -0.1960
      6  O2         9.8180   25.8970    4.6390 O.2   302  EEF302     -0.2733
      7  C3         8.7210   28.4730    5.1460 C.3   302  EEF302      0.1949
      8  N3         5.6970   30.3080    9.2920 N.am  302  EEF302     -0.0863
      9  C4         8.6280   29.8440    4.4420 C.2   302  EEF302      0.0111
     10  C5         9.4400   30.0590    3.1680 C.2   302  EEF302      0.0838
     11  O5         7.1580   31.4130    7.8790 O.2   302  EEF302     -0.2698
     12  O6        10.1570   32.3480    2.4460 O.co2 302  EEF302     -0.2406
     13  O7         8.3660   31.4060    1.5660 O.co2 302  EEF302     -0.2406
     14  C8         9.1680   31.3680    2.4320 C.2   302  EEF302      0.3877
     15  C9         8.0290   28.5750    6.5020 C.2   302  EEF302      0.2659
     16  C10        8.0180   29.4300    8.8140 C.3   302  EEF302      0.1750
     17  C11        8.8720   29.7710   10.0400 C.3   302  EEF302      0.0430
     18  C12        8.7420   28.8350   11.2630 C.3   302  EEF302      0.1163
     19  C13        6.9460   30.4780    8.5790 C.2   302  EEF302      0.2806
     20  C14        7.7820   23.7610    4.2610 C.3   302  EEF302      0.0360
     21  C15        6.3370   22.5600    5.9300 C.ar  302  EEF302     -0.0043
     22  C16        5.0750   22.2530    6.5750 C.ar  302  EEF302     -0.0003
     23  C17        3.8940   23.0050    6.1670 C.ar  302  EEF302     -0.0000
     24  C18        6.4190   23.5300    4.9520 C.ar  302  EEF302     -0.0217
     25  C19        2.5640   22.6820    6.8460 C.ar  302  EEF302     -0.0000
     26  C20        2.5690   22.2440    8.2720 C.ar  302  EEF302     -0.0000
     27  C21        1.3780   21.9310    8.9080 C.ar  302  EEF302      0.0000
     28  C22        0.1820   22.4620    6.8240 C.ar  302  EEF302      0.0000
     29  C23        1.4210   22.7860    6.1600 C.ar  302  EEF302     -0.0000
     30  C27        0.1700   22.0300    8.1860 C.ar  302  EEF302      0.0000
     31  C30        3.9640   24.0160    5.1590 C.ar  302  EEF302     -0.0003
     32  C31        5.1970   24.3120    4.5290 C.ar  302  EEF302     -0.0043
     33  C32        7.5190   28.9340   12.1930 C.2   302  EEF302      0.3649
     34  O33        7.4070   28.0670   13.3020 O.co2 302  EEF302     -0.2457
     35  O34        6.7990   29.8720   12.1250 O.co2 302  EEF302     -0.2457
@<TRIPOS>BOND
     1    13    14   ar
     2    14    12   ar
     3    14    10    1
     4    10     9    2
     5     1     4    1
     6     1    20    1
     7     4     2   am
     8     4     6    2
     9    20    24    1
    10     2     7    1
    11     9     7    1
    12    32    24   ar
    13    32    31   ar
    14    24    21   ar
    15     7    15    1
    16    31    23   ar
    17    21    22   ar
    18    29    28   ar
    19    29    25   ar
    20    23    22   ar
    21    23    25    1
    22    15     3    2
    23    15     5   am
    24    28    30   ar
    25    25    26   ar
    26     5    16    1
    27    11    19    2
    28    30    27   ar
    29    26    27   ar
    30    19    16    1
    31    19     8   am
    32    16    17    1
    33    17    18    1
    34    18    33    1
    35    35    33   ar
    36    33    34   ar
