@<TRIPOS>MOLECULE
3ljj_10U_A_1.pdb
 27 29 0 0 0
SMALL
GASTEIGER

@<TRIPOS>ATOM
      1  N1        17.2950   -9.2790   12.5180 N.am  501  10U501     -0.2718
      2  C14       18.1970   -9.4790   11.5250 C.2   501  10U501      0.2437
      3  O32       18.3640   -8.5910   10.6860 O.2   501  10U501     -0.2733
      4  C15       19.4270  -10.3590   11.7460 C.3   501  10U501      0.1737
      5  C5        17.3000   -9.9670   13.8220 C.3   501  10U501      0.0939
      6  C4        15.8740   -9.7790   14.3670 C.3   501  10U501      0.0237
      7  C3        15.4830   -8.3680   13.8780 C.3   501  10U501      0.0310
      8  C2        16.2910   -8.2150   12.5730 C.3   501  10U501      0.1535
      9  C7        16.8870   -6.8400   12.4850 C.2   501  10U501      0.2598
     10  N23       16.1390   -5.9220   11.8180 N.am  501  10U501     -0.1992
     11  C24       16.4880   -4.5290   11.7010 C.3   501  10U501      0.1415
     12  C25       17.2600   -4.2410   10.4520 C.ar  501  10U501     -0.0006
     13  C30       16.7620   -3.2870    9.5850 C.ar  501  10U501     -0.0023
     14  C29       17.3700   -3.0840    8.3550 C.ar  501  10U501      0.0077
     15  C28       18.4800   -3.8480    8.0090 C.ar  501  10U501      0.0975
     16  C31       19.1110   -3.5550    6.7030 C.2   501  10U501      0.4766
     17  N49       20.5140   -3.9190    6.4700 N.pl3 501  10U501      0.2047
     18  N48       18.4120   -3.0990    5.6580 N.pl3 501  10U501      0.2047
     19  C27       18.9880   -4.8130    8.8830 C.ar  501  10U501      0.0077
     20  C26       18.3690   -5.0050   10.1070 C.ar  501  10U501     -0.0023
     21  O22       17.8280   -6.4870   13.1940 O.2   501  10U501     -0.2715
     22  N16       20.3220  -10.3180   10.5710 N.3   501  10U501     -0.2100
     23  C17       20.2720  -11.5310    9.7800 C.3   501  10U501      0.0733
     24  C21       21.0290  -11.4640    8.4420 C.3   501  10U501      0.0174
     25  C20       21.2500  -12.9600    8.0610 C.3   501  10U501      0.0015
     26  C19       21.3560  -13.7090    9.4070 C.3   501  10U501      0.0015
     27  C18       20.8400  -12.7580   10.5100 C.3   501  10U501      0.0174
@<TRIPOS>BOND
     1    18    16    2
     2    17    16    1
     3    16    15    1
     4    15    14   ar
     5    15    19   ar
     6    25    24    1
     7    25    26    1
     8    14    13   ar
     9    24    23    1
    10    19    20   ar
    11    26    27    1
    12    13    12   ar
    13    23    27    1
    14    23    22    1
    15    20    12   ar
    16    12    11    1
    17    22     4    1
    18     3     2    2
    19     2     4    1
    20     2     1   am
    21    11    10    1
    22    10     9   am
    23     9     8    1
    24     9    21    2
    25     1     8    1
    26     1     5    1
    27     8     7    1
    28     5     6    1
    29     7     6    1
