@<TRIPOS>MOLECULE
3ljo_11U_A_1.pdb
 28 30 0 0 0
SMALL
GASTEIGER

@<TRIPOS>ATOM
      1  C14       18.3490   -8.9850   11.9060 C.2   501  11U501      0.2437
      2  O32       18.2340   -8.2620   10.9100 O.2   501  11U501     -0.2733
      3  C15       19.5760   -9.8630   11.9100 C.3   501  11U501      0.1737
      4  N5        20.7770   -9.0600   11.5460 N.3   501  11U501     -0.2100
      5  C16       22.0300   -9.8670   11.7230 C.3   501  11U501      0.0733
      6  C21       23.2460   -9.0010   11.3040 C.3   501  11U501      0.0174
      7  C20       24.5150   -9.8660   11.1710 C.3   501  11U501      0.0014
      8  C19       24.2580  -11.0530   10.1900 C.3   501  11U501      0.0001
      9  C18       23.1800  -11.9950   10.8180 C.3   501  11U501      0.0014
     10  C17       21.8580  -11.2140   10.9570 C.3   501  11U501      0.0174
     11  N1        17.3120   -9.0780   12.7690 N.am  501  11U501     -0.2718
     12  C2        16.1870   -8.1380   12.6570 C.3   501  11U501      0.1535
     13  C7        16.7690   -6.7260   12.7250 C.2   501  11U501      0.2598
     14  O22       17.7320   -6.4780   13.4270 O.2   501  11U501     -0.2715
     15  C3        15.4760   -8.4460   14.0130 C.3   501  11U501      0.0310
     16  C4        15.8700   -9.9270   14.2840 C.3   501  11U501      0.0237
     17  C5        17.3760   -9.8800   13.9810 C.3   501  11U501      0.0939
     18  N23       16.1030   -5.8240   11.9620 N.am  501  11U501     -0.1992
     19  C24       16.5030   -4.4240   11.9590 C.3   501  11U501      0.1415
     20  C25       17.2220   -4.1930   10.6160 C.ar  501  11U501     -0.0006
     21  C26       16.6880   -3.2950    9.6870 C.ar  501  11U501     -0.0023
     22  C27       17.3390   -3.1340    8.4530 C.ar  501  11U501      0.0077
     23  C28       18.5010   -3.8550    8.1670 C.ar  501  11U501      0.0975
     24  C31       19.2160   -3.6250    6.8370 C.2   501  11U501      0.4766
     25  N49       20.4200   -3.9930    6.5650 N.pl3 501  11U501      0.2047
     26  N48       18.3140   -3.1710    5.7580 N.pl3 501  11U501      0.2047
     27  C29       19.0390   -4.7540    9.0930 C.ar  501  11U501      0.0077
     28  C30       18.3820   -4.9110   10.3210 C.ar  501  11U501     -0.0023
@<TRIPOS>BOND
     1    26    24    2
     2    25    24    1
     3    24    23    1
     4    23    22   ar
     5    23    27   ar
     6    22    21   ar
     7    27    28   ar
     8    21    20   ar
     9     8     9    1
    10     8     7    1
    11    28    20   ar
    12    20    19    1
    13     9    10    1
    14     2     1    2
    15    10     5    1
    16     7     6    1
    17     6     5    1
    18     4     5    1
    19     4     3    1
    20     1     3    1
    21     1    11   am
    22    19    18    1
    23    18    13   am
    24    12    13    1
    25    12    11    1
    26    12    15    1
    27    13    14    2
    28    11    17    1
    29    17    16    1
    30    15    16    1
