@<TRIPOS>MOLECULE
3ljr_GGC_A_1.pdb
 31 32 0 0 0
SMALL
GASTEIGER

@<TRIPOS>ATOM
      1  CB1       15.0170   70.1580    1.7750 C.3   301  GGC301      0.0402
      2  CG1       14.5330   70.2570    0.3290 C.3   301  GGC301      0.0889
      3  CD1       13.5030   69.1990   -0.0120 C.2   301  GGC301      0.2418
      4  OE1       13.0250   68.4740    0.8560 O.2   301  GGC301     -0.2733
      5  C1        15.0510   72.6640    1.7580 C.2   301  GGC301      0.3819
      6  O11       15.3250   72.9470    0.5810 O.co2 301  GGC301     -0.2441
      7  O12       14.2930   73.3380    2.4850 O.co2 301  GGC301     -0.2441
      8  N1        15.5010   71.4700    3.8110 N.3   301  GGC301     -0.1208
      9  CA1       15.6850   71.4200    2.3430 C.3   301  GGC301      0.1948
     10  N2        13.1470   69.1350   -1.2930 N.am  301  GGC301     -0.1969
     11  CA2       12.2060   68.1490   -1.8060 C.3   301  GGC301      0.1834
     12  CB2       11.2580   68.8040   -2.8310 C.3   301  GGC301      0.0889
     13  SG2        9.9240   69.9160   -2.2430 S.3   301  GGC301     -0.1331
     14  C2        13.0240   67.0420   -2.5050 C.2   301  GGC301      0.2626
     15  O2        14.1330   67.2650   -2.9790 O.2   301  GGC301     -0.2714
     16  C1'        8.0380   65.3510   -6.2370 C.ar  301  GGC301     -0.0000
     17  C2'        8.8240   64.4000   -5.5300 C.ar  301  GGC301     -0.0000
     18  C3'        9.3690   64.7090   -4.2520 C.ar  301  GGC301     -0.0000
     19  C4'        9.1380   65.9800   -3.6520 C.ar  301  GGC301     -0.0003
     20  C4A        8.3520   66.9820   -4.3250 C.ar  301  GGC301     -0.0031
     21  C8A        7.7850   66.6350   -5.6730 C.ar  301  GGC301     -0.0003
     22  C8'        6.9940   67.5830   -6.3700 C.ar  301  GGC301     -0.0000
     23  C7'        6.7420   68.8500   -5.7920 C.ar  301  GGC301     -0.0003
     24  C6'        7.2710   69.2020   -4.5140 C.ar  301  GGC301     -0.0034
     25  C5'        8.0690   68.2910   -3.7680 C.ar  301  GGC301     -0.0113
     26  C10        8.5240   68.7720   -2.3710 C.3   301  GGC301      0.0838
     27  N3        12.4720   65.8430   -2.5650 N.am  301  GGC301     -0.1917
     28  CA3       13.1820   64.7550   -3.2150 C.3   301  GGC301      0.2285
     29  C3        13.6990   63.7180   -2.2300 C.2   301  GGC301      0.3865
     30  O31       14.1150   62.6200   -2.6820 O.co2 301  GGC301     -0.2437
     31  O32       13.6840   64.0070   -1.0040 O.co2 301  GGC301     -0.2437
@<TRIPOS>BOND
     1    22    23   ar
     2    22    21   ar
     3    16    21   ar
     4    16    17   ar
     5    23    24   ar
     6    21    20   ar
     7    17    18   ar
     8    24    25   ar
     9    20    25   ar
    10    20    19   ar
    11    18    19   ar
    12    25    26    1
    13    28    27    1
    14    28    29    1
    15    15    14    2
    16    12    13    1
    17    12    11    1
    18    30    29   ar
    19    27    14   am
    20    14    11    1
    21    26    13    1
    22    29    31   ar
    23    11    10    1
    24    10     3   am
    25     3     2    1
    26     3     4    2
    27     2     1    1
    28     6     5   ar
    29     5     9    1
    30     5     7   ar
    31     1     9    1
    32     9     8    1
