@<TRIPOS>MOLECULE
3lju_IP9_X_1.pdb
 28 28 0 0 0
SMALL
GASTEIGER

@<TRIPOS>ATOM
      1  C1        35.6750  -17.1870  -40.1700 C.3   371  IP9371      0.1917
      2  O1        36.2080  -16.8730  -41.4420 O.3   371  IP9371     -0.2673
      3  C2        35.3090  -15.9100  -39.3830 C.3   371  IP9371      0.2120
      4  O2        36.4170  -15.0240  -39.3920 O.3   371  IP9371     -0.2177
      5  C3        34.9380  -16.2730  -37.9300 C.3   371  IP9371      0.1890
      6  O3        34.5540  -15.0720  -37.2360 O.3   371  IP9371     -0.2674
      7  C4        36.0740  -16.9860  -37.2620 C.3   371  IP9371      0.1865
      8  O4        35.7270  -17.4190  -35.9420 O.3   371  IP9371     -0.2675
      9  C5        36.3590  -18.2790  -38.0260 C.3   371  IP9371      0.1890
     10  O5        37.4550  -18.9240  -37.3970 O.3   371  IP9371     -0.2674
     11  C6        36.7510  -17.9740  -39.4720 C.3   371  IP9371      0.2120
     12  O6        37.0030  -19.2040  -40.2120 O.3   371  IP9371     -0.2177
     13  P1        35.3130  -16.9170  -42.7980 P.3   371  IP9371      0.5327
     14  O1P       35.6390  -18.0680  -43.6600 O.2   371  IP9371     -0.2224
     15  O2P       35.6380  -15.4150  -43.5230 O.3   371  IP9371     -0.1145
     16  O3P       33.7380  -16.9340  -42.4050 O.3   371  IP9371     -0.1145
     17  P3        33.0160  -15.0230  -36.5980 P.3   371  IP9371      0.5327
     18  O4P       32.8100  -16.1060  -35.5380 O.3   371  IP9371     -0.1145
     19  O5P       32.9230  -13.4970  -36.0270 O.3   371  IP9371     -0.1145
     20  O6P       31.9870  -15.2020  -37.8050 O.2   371  IP9371     -0.2224
     21  P4        36.1330  -16.6570  -34.6020 P.3   371  IP9371      0.5327
     22  O7P       37.0860  -15.4120  -34.9850 O.2   371  IP9371     -0.2224
     23  O8P       34.8910  -16.1620  -33.9190 O.3   371  IP9371     -0.1145
     24  O9P       36.8900  -17.7050  -33.7260 O.3   371  IP9371     -0.1145
     25  P5        37.3030  -20.2230  -36.4260 P.3   371  IP9371      0.5327
     26  OPF       38.2650  -21.2930  -36.8850 O.2   371  IP9371     -0.2224
     27  OPG       35.7580  -20.5800  -36.3910 O.3   371  IP9371     -0.1145
     28  OPH       37.8050  -19.7380  -34.9280 O.3   371  IP9371     -0.1145
@<TRIPOS>BOND
     1    14    13    2
     2    15    13    1
     3    13    16    1
     4    13     2    1
     5     2     1    1
     6    12    11    1
     7     1    11    1
     8     1     3    1
     9    11     9    1
    10     4     3    1
    11     3     5    1
    12     9    10    1
    13     9     7    1
    14     5     7    1
    15     5     6    1
    16    20    17    2
    17    10    25    1
    18     7     8    1
    19     6    17    1
    20    26    25    2
    21    17    19    1
    22    17    18    1
    23    25    27    1
    24    25    28    1
    25     8    21    1
    26    22    21    2
    27    21    23    1
    28    21    24    1
