@<TRIPOS>MOLECULE
3ljz_LA3_A_1.pdb
 35 39 0 0 0
SMALL
GASTEIGER

@<TRIPOS>ATOM
      1  C1        74.1930   89.0030   45.7660 C.ar  801  LA3801     -0.0003
      2  C2        72.4240   89.3650   47.8260 C.ar  801  LA3801     -0.0043
      3  C3        73.5830   90.2300   45.9040 C.ar  801  LA3801      0.0001
      4  C4        73.9220   87.9700   46.6350 C.ar  801  LA3801     -0.0043
      5  C5        73.0310   88.1380   47.6830 C.ar  801  LA3801     -0.0217
      6  C6        72.6960   90.3930   46.9520 C.ar  801  LA3801     -0.0003
      7  C7        73.8710   91.3110   44.9740 C.ar  801  LA3801      0.0032
      8  C8        72.6810   87.0450   48.6570 C.3   801  LA3801      0.0359
      9  C9        74.5100   93.3180   43.1930 C.ar  801  LA3801      0.1764
     10  C10       73.2750   92.5540   45.1010 C.ar  801  LA3801      0.0402
     11  C11       74.7780   91.1140   43.9420 C.ar  801  LA3801      0.0033
     12  C12       75.1140   92.1000   43.0320 C.ar  801  LA3801      0.0402
     13  C13       73.6130   93.5370   44.1970 C.ar  801  LA3801      0.1764
     14  O14       73.1170   94.8180   44.1800 O.3   801  LA3801     -0.4346
     15  O15       74.7100   94.4180   42.4010 O.3   801  LA3801     -0.4346
     16  C16       73.8400   95.3670   43.0520 C.3   801  LA3801      0.4294
     17  C17       73.7200   85.9510   48.8380 C.3   801  LA3801      0.0888
     18  C18       74.6310   86.3160   49.9670 C.2   801  LA3801      0.2419
     19  C19       73.0580   84.6560   49.2650 C.3   801  LA3801      0.0607
     20  C20       72.3880   84.0500   48.0840 C.2   801  LA3801      0.0873
     21  O21       72.9990   83.7440   47.0760 O.2   801  LA3801     -0.5395
     22  N22       71.0360   83.8940   48.2760 N.am  801  LA3801     -0.2030
     23  O23       70.3290   84.1230   47.0710 O.3   801  LA3801     -0.4026
     24  O24       74.2270   86.4080   51.1190 O.2   801  LA3801     -0.2733
     25  N25       75.9240   86.5230   49.5530 N.am  801  LA3801     -0.2000
     26  C26       76.9970   86.4600   50.5300 C.3   801  LA3801      0.1477
     27  C27       78.2800   85.8540   50.0690 C.ar  801  LA3801     -0.0040
     28  C28       77.5030   87.8070   51.0090 C.3   801  LA3801      0.1802
     29  O29       77.6770   88.6330   49.8770 O.3   801  LA3801     -0.2206
     30  C30       78.9070   87.6000   51.5300 C.3   801  LA3801      0.0611
     31  C31       80.8390   85.0520   49.5100 C.ar  801  LA3801     -0.0003
     32  C32       78.4640   84.7930   49.2060 C.ar  801  LA3801     -0.0029
     33  C33       79.3440   86.4980   50.6390 C.ar  801  LA3801     -0.0218
     34  C34       80.6410   86.1170   50.3700 C.ar  801  LA3801     -0.0044
     35  C35       79.7620   84.4010   48.9360 C.ar  801  LA3801     -0.0003
@<TRIPOS>BOND
     1    15    16    1
     2    15     9    1
     3    12     9   ar
     4    12    11   ar
     5    16    14    1
     6     9    13   ar
     7    11     7   ar
     8    14    13    1
     9    13    10   ar
    10     7    10   ar
    11     7     3    1
    12     1     3   ar
    13     1     4   ar
    14     3     6   ar
    15     4     5   ar
    16     6     2   ar
    17    23    22    1
    18    21    20    2
    19     5     2   ar
    20     5     8    1
    21    20    22   am
    22    20    19    1
    23     8    17    1
    24    17    19    1
    25    17    18    1
    26    35    32   ar
    27    35    31   ar
    28    32    27   ar
    29    31    34   ar
    30    25    18   am
    31    25    26    1
    32    29    28    1
    33    18    24    2
    34    27    26    1
    35    27    33   ar
    36    34    33   ar
    37    26    28    1
    38    33    30    1
    39    28    30    1
