@<TRIPOS>MOLECULE
3lk0_Z80_B_1.pdb
 21 23 0 0 0
SMALL
GASTEIGER

@<TRIPOS>ATOM
      1  C1        11.9840   15.2940   53.7220 C.ar   92  Z8092       0.0576
      2  N1        13.3370   15.0720   53.3120 N.pl3  92  Z8092      -0.2860
      3  S1        12.7820   15.5080   56.2720 S.3    92  Z8092      -0.0844
      4  C2        11.6170   15.5080   55.0530 C.ar   92  Z8092       0.0431
      5  N2        13.2220   17.6110   49.5360 N.3    92  Z8092      -0.2703
      6  C3        14.2980   15.2200   55.5880 C.ar   92  Z8092       0.0431
      7  C4        14.4520   15.0290   54.2120 C.ar   92  Z8092       0.0585
      8  C5         9.6370   15.5270   53.1070 C.ar   92  Z8092       0.0013
      9  C6         9.2900   15.7380   54.4360 C.ar   92  Z8092       0.0006
     10  C7        10.2850   15.7280   55.4070 C.ar   92  Z8092       0.0077
     11  C8        15.3940   15.1820   56.4460 C.ar   92  Z8092       0.0086
     12  C9        16.6750   14.9520   55.9660 C.ar   92  Z8092       0.0120
     13  C10       16.8540   14.7600   54.6040 C.ar   92  Z8092       0.0589
     14  C11       15.7550   14.7970   53.7370 C.ar   92  Z8092       0.0267
     15  C12       13.5660   14.8610   51.8710 C.3    92  Z8092       0.0970
     16  C13       14.1770   16.0800   51.1690 C.3    92  Z8092       0.0391
     17  C14       13.1630   17.2010   50.9360 C.3    92  Z8092       0.0739
     18  C15       12.5210   16.8500   48.5090 C.3    92  Z8092       0.0897
     19  C16       13.9560   18.8120   49.1620 C.3    92  Z8092       0.0897
     20 CL1        18.5200   14.4670   53.9970 Cl     92  Z8092      -0.0822
     21  C17       10.9680   15.3070   52.7600 C.ar   92  Z8092       0.0153
@<TRIPOS>BOND
     1    18     5    1
     2    19     5    1
     3     5    17    1
     4    17    16    1
     5    16    15    1
     6    15     2    1
     7    21     8   ar
     8    21     1   ar
     9     8     9   ar
    10     2     1    1
    11     2     7    1
    12     1     4   ar
    13    14     7   ar
    14    14    13   ar
    15    20    13    1
    16     7     6   ar
    17     9    10   ar
    18    13    12   ar
    19     4    10   ar
    20     4     3    1
    21     6     3    1
    22     6    11   ar
    23    12    11   ar
