@<TRIPOS>MOLECULE
3lk1_JKE_A_1.pdb
 10 10 0 0 0
SMALL
GASTEIGER

@<TRIPOS>ATOM
      1  SD       -14.4790    9.4680   -9.1930 S.2    93  JKE93      -0.0505
      2  CG       -11.3500    9.6020   -9.4850 C.2    93  JKE93       0.3879
      3  CZ       -12.0090   10.5540   -8.5370 C.2    93  JKE93       0.0823
      4  CD1      -14.0480   11.4490   -7.4460 C.2    93  JKE93       0.0029
      5  OD1      -11.5380    9.7380  -10.7110 O.co2  93  JKE93      -0.2405
      6  CD2      -11.8520   12.3420   -6.9300 C.3    93  JKE93       0.0522
      7  OD2      -10.6300    8.6940   -9.0190 O.co2  93  JKE93      -0.2405
      8  CE1      -13.4850   10.5490   -8.3440 C.2    93  JKE93       0.0414
      9  CE2      -11.2390   11.4600   -7.8160 C.2    93  JKE93      -0.0143
     10  CG1      -13.2340   12.3360   -6.7460 C.2    93  JKE93      -0.0209
@<TRIPOS>BOND
     1     5     2   ar
     2     2     7   ar
     3     2     3    1
     4     1     8    2
     5     3     8    1
     6     3     9    2
     7     8     4    1
     8     9     6    1
     9     4    10    2
    10     6    10    1
