@<TRIPOS>MOLECULE
3lk8_Z79_A_1.pdb
 17 17 0 0 0
SMALL
GASTEIGER

@<TRIPOS>ATOM
      1  O4         3.2440   -3.0610    4.0450 O.2     0  Z790       -0.5380
      2  C8         2.0610   -3.1300    4.3500 C.2     0  Z790        0.1064
      3  N2         1.5060   -2.3710    5.3080 N.am    0  Z790       -0.2014
      4  O5         2.3060   -1.5120    6.0440 O.3     0  Z790       -0.4026
      5  C7         1.1460   -4.1060    3.6320 C.3     0  Z790        0.1662
      6  N1         1.6810   -5.4480    3.6950 N.3     0  Z790       -0.0709
      7  S1         1.4570   -6.3220    5.0030 S.O2    0  Z790        0.0772
      8  O1         0.1810   -5.9000    5.5650 O.2     0  Z790       -0.1516
      9  O2         1.3840   -7.7240    4.6820 O.2     0  Z790       -0.1516
     10  C3         2.5680   -6.1780    6.1610 C.ar    0  Z790        0.1238
     11  C6         2.3120   -5.3360    7.2560 C.ar    0  Z790        0.0231
     12  C5         3.2220   -5.2360    8.3110 C.ar    0  Z790        0.0383
     13  C4         4.3940   -5.9730    8.2850 C.ar    0  Z790        0.1388
     14  O3         5.2670   -5.8580    9.3380 O.3     0  Z790       -0.4714
     15  C9         6.3280   -6.7880    9.5380 C.3     0  Z790        0.2525
     16  C2         4.6550   -6.8330    7.2040 C.ar    0  Z790        0.0383
     17  C1         3.7430   -6.9330    6.1500 C.ar    0  Z790        0.0231
@<TRIPOS>BOND
     1     5     6    1
     2     5     2    1
     3     6     7    1
     4     1     2    2
     5     2     3   am
     6     9     7    2
     7     7     8    2
     8     7    10    1
     9     3     4    1
    10    17    10   ar
    11    17    16   ar
    12    10    11   ar
    13    16    13   ar
    14    11    12   ar
    15    13    12   ar
    16    13    14    1
    17    14    15    1
