@<TRIPOS>MOLECULE
3lk9_TFF_A_1.pdb
 33 34 0 0 0
SMALL
GASTEIGER

@<TRIPOS>ATOM
      1  N1         6.4210    7.7410   10.4460 N.am  338  TFF338     -0.1794
      2  C2         7.3030    8.0920    9.4290 C.1   338  TFF338      0.2844
      3  O2         6.9540    8.4810    8.3260 O.2   338  TFF338     -0.1918
      4  N3         8.6240    7.9650    9.7580 N.2   338  TFF338     -0.2455
      5  C4         9.1460    7.5460   10.9590 C.1   338  TFF338      0.2134
      6  O4        10.3530    7.4320   11.0790 O.2   338  TFF338     -0.2088
      7  C5         8.1860    7.2510   11.9930 C.2   338  TFF338      0.0891
      8  C6         6.8910    7.3710   11.6930 C.2   338  TFF338      0.0877
      9  PA         4.9930    5.6990   15.0100 P.3   338  TFF338      0.4386
     10  PB         3.8420    2.9140   13.9320 P.3   338  TFF338      0.3859
     11  PG         3.5820    1.1180   16.5500 P.3   338  TFF338      0.1889
     12  C1'        4.9620    7.7170   10.1500 C.3   338  TFF338      0.2090
     13  F1A        6.3260    3.8480   13.6890 F     338  TFF338     -0.1805
     14  O1A        3.8230    5.8100   15.9190 O.3   338  TFF338     -0.1352
     15  F1B        3.3990    0.2840   14.1050 F     338  TFF338     -0.1861
     16  O1B        4.0280    2.7500   12.4750 O.2   338  TFF338     -0.2749
     17  O1G        4.5610    0.2950   17.3160 O.3   338  TFF338     -0.3532
     18  C2'        4.5590    6.3860    9.5010 C.3   338  TFF338      0.0874
     19  F2A        5.7050    3.2880   15.7760 F     338  TFF338     -0.1805
     20  O2A        6.2790    6.3140   15.4410 O.2   338  TFF338     -0.2493
     21  F2B        5.4680    0.9410   14.6540 F     338  TFF338     -0.1861
     22  O2B        2.5700    3.4900   14.4240 O.3   338  TFF338     -0.1558
     23  O2G        2.1490    0.7610   16.6150 O.2   338  TFF338     -0.4540
     24  C3'        4.1820    5.5610   10.7240 C.3   338  TFF338      0.1857
     25  O3'        3.3000    4.4910   10.4210 O.3   338  TFF338     -0.2203
     26  C3A        5.2800    3.9010   14.6020 C.3   338  TFF338      0.4284
     27  C3B        4.1230    1.2670   14.7690 C.3   338  TFF338      0.3791
     28  O3G        3.7250    2.4670   17.1630 O.3   338  TFF338     -0.3532
     29  C4'        3.4540    6.5920   11.5620 C.3   338  TFF338      0.1773
     30  O4'        4.2290    7.8100   11.3680 O.3   338  TFF338     -0.3339
     31  C5'        3.3380    6.2340   13.0260 C.3   338  TFF338      0.1836
     32  O5'        4.5540    6.5160   13.7110 O.3   338  TFF338     -0.2861
     33  C5M        8.6520    6.5150   13.2080 C.3   338  TFF338      0.0462
@<TRIPOS>BOND
     1     3     2    2
     2     2     4    2
     3     2     1   am
     4    18    12    1
     5    18    24    1
     6     4     5    2
     7    12     1    1
     8    12    30    1
     9    25    24    1
    10     1     8    1
    11    24    29    1
    12     5     6    2
    13     5     7    1
    14    30    29    1
    15    29    31    1
    16     8     7    2
    17     7    33    1
    18    16    10    2
    19    31    32    1
    20    13    26    1
    21    32     9    1
    22    10    22    1
    23    10    26    1
    24    10    27    1
    25    15    27    1
    26    26     9    1
    27    26    19    1
    28    21    27    1
    29    27    11    1
    30     9    20    2
    31     9    14    1
    32    11    23    2
    33    11    28    1
    34    11    17    1
