@<TRIPOS>MOLECULE
3lka_M4S_A_1.pdb
 12 12 0 0 0
SMALL
GASTEIGER

@<TRIPOS>ATOM
      1  C1         2.5270   -5.5670    7.6560 C.ar    1  M4S1        0.0231
      2  N1         2.5500   -5.1900    4.1660 N.3     1  M4S1        0.0392
      3  O1         5.4310   -6.2350    9.7660 O.3     1  M4S1       -0.4714
      4  S1         1.9130   -6.0750    5.1750 S.O2    1  M4S1        0.0935
      5  C2         3.3880   -5.6130    8.7410 C.ar    1  M4S1        0.0383
      6  O2         1.8930   -7.4750    4.6600 O.2     1  M4S1       -0.1503
      7  C3         4.6400   -6.2080    8.6440 C.ar    1  M4S1        0.1388
      8  O3         0.5000   -5.6780    5.4410 O.2     1  M4S1       -0.1503
      9  C4         5.0640   -6.7450    7.4250 C.ar    1  M4S1        0.0383
     10  C5         2.9190   -6.1190    6.4370 C.ar    1  M4S1        0.1252
     11  C6         6.6490   -6.9730    9.7830 C.3     1  M4S1        0.2525
     12  C7         4.1900   -6.7080    6.3270 C.ar    1  M4S1        0.0231
@<TRIPOS>BOND
     1     2     4    1
     2     6     4    2
     3     4     8    2
     4     4    10    1
     5    12    10   ar
     6    12     9   ar
     7    10     1   ar
     8     9     7   ar
     9     1     5   ar
    10     7     5   ar
    11     7     3    1
    12     3    11    1
