@<TRIPOS>MOLECULE
3lkf_PC_A_1.pdb
 11 10 0 0 0
SMALL
GASTEIGER

@<TRIPOS>ATOM
      1  P1        28.7700   33.5190  121.0400 P.3   300  PC300       0.5325
      2  O1        27.5510   33.0950  121.8040 O.3   300  PC300      -0.1145
      3  O3        30.0010   33.0930  121.7990 O.3   300  PC300      -0.1145
      4  O4        28.7870   35.1340  120.8230 O.2   300  PC300      -0.2224
      5  O2        28.7530   32.8730  119.5460 O.3   300  PC300      -0.2725
      6  C1        28.7520   31.4620  119.5540 C.3   300  PC300       0.1317
      7  C2        28.7290   30.9310  118.0780 C.3   300  PC300      -0.0401
      8  N1        27.5220   31.3570  117.2870 N.4   300  PC300       0.3874
      9  C3        26.2980   31.2950  118.1080 C.3   300  PC300      -0.0959
     10  C4        27.7440   32.7350  116.8090 C.3   300  PC300      -0.0959
     11  C5        27.3540   30.4660  116.1200 C.3   300  PC300      -0.0959
@<TRIPOS>BOND
     1    11     8    1
     2    10     8    1
     3     8     7    1
     4     8     9    1
     5     7     6    1
     6     5     6    1
     7     5     1    1
     8     4     1    2
     9     1     3    1
    10     1     2    1
