@<TRIPOS>MOLECULE
3lkh_LT6_A_1.pdb
 30 31 0 0 0
SMALL
GASTEIGER

@<TRIPOS>ATOM
      1  C1        16.4070   40.8590   43.0120 C.3   577  LT6577      0.0001
      2  F1        16.1850   39.4260   47.3720 F     577  LT6577     -0.2039
      3  N1        17.7750   42.0500   46.4370 N.am  577  LT6577     -0.2742
      4  O1        23.1770   38.3140   47.2880 O.3   577  LT6577     -0.2185
      5  C2        17.2000   42.1590   43.1670 C.3   577  LT6577      0.0018
      6  N2        22.0610   40.2610   45.5830 N.am  577  LT6577     -0.2010
      7  O2        23.3410   39.3760   43.8620 O.2   577  LT6577     -0.2693
      8  C3        16.7700   43.0050   44.3770 C.3   577  LT6577      0.0215
      9  O3        19.8850   39.7930   44.5250 O.3   577  LT6577     -0.4653
     10  C4        16.5440   42.1410   45.6280 C.3   577  LT6577      0.0938
     11  O4        19.5480   40.7860   47.2210 O.2   577  LT6577     -0.2697
     12  C5        18.2250   43.2860   47.0900 C.3   577  LT6577      0.1152
     13  C6        26.0430   43.0970   49.9230 C.ar  577  LT6577     -0.0000
     14  C7        26.4630   42.7300   48.6460 C.ar  577  LT6577     -0.0003
     15  C8        25.5150   42.4160   47.6780 C.ar  577  LT6577     -0.0042
     16  C9        24.1380   42.4550   47.9700 C.ar  577  LT6577     -0.0204
     17  C10       23.7300   42.8260   49.2550 C.ar  577  LT6577     -0.0042
     18  C11       24.6750   43.1530   50.2240 C.ar  577  LT6577     -0.0003
     19  C12       23.1130   42.1100   46.8930 C.3   577  LT6577      0.0507
     20  C13       23.1750   40.6180   46.4620 C.3   577  LT6577      0.1326
     21  C14       23.1420   39.6930   47.6870 C.3   577  LT6577      0.2039
     22  C15       22.2430   39.6410   44.3500 C.2   577  LT6577      0.2859
     23  C16       20.9070   39.3160   43.6690 C.3   577  LT6577      0.2911
     24  C17       18.8050   39.0230   44.8880 C.ar  577  LT6577      0.1458
     25  C18       18.3920   37.7960   44.3130 C.ar  577  LT6577      0.0372
     26  C19       17.2500   37.1240   44.8030 C.ar  577  LT6577      0.0054
     27  C20       16.4990   37.6840   45.8430 C.ar  577  LT6577      0.0300
     28  C21       16.9070   38.9050   46.3920 C.ar  577  LT6577      0.1474
     29  C22       18.0500   39.5660   45.9310 C.ar  577  LT6577      0.1148
     30  C23       18.4890   40.8450   46.5690 C.2   577  LT6577      0.2542
@<TRIPOS>BOND
     1     1     5    1
     2     5     8    1
     3    23    22    1
     4    23     9    1
     5     7    22    2
     6    25    26   ar
     7    25    24   ar
     8    22     6   am
     9     8    10    1
    10     9    24    1
    11    26    27   ar
    12    24    29   ar
    13     6    20    1
    14    10     3    1
    15    27    28   ar
    16    29    28   ar
    17    29    30    1
    18    28     2    1
    19     3    30   am
    20     3    12    1
    21    20    19    1
    22    20    21    1
    23    30    11    2
    24    19    16    1
    25     4    21    1
    26    15    16   ar
    27    15    14   ar
    28    16    17   ar
    29    14    13   ar
    30    17    18   ar
    31    13    18   ar
