@<TRIPOS>MOLECULE
3lki_ATP_B_1.pdb
 31 33 0 0 0
SMALL
GASTEIGER

@<TRIPOS>ATOM
      1  PG        20.6330    4.3560   23.9870 P.3   900  ATP900      0.5373
      2  O1G       19.2800    3.7010   23.9490 O.2   900  ATP900     -0.2221
      3  O2G       20.6390    5.6730   24.7520 O.3   900  ATP900     -0.1143
      4  O3G       21.6630    3.3800   24.5800 O.3   900  ATP900     -0.1143
      5  PB        20.4550    4.0410   21.0600 P.3   900  ATP900      0.2277
      6  O1B       20.7510    2.5600   20.8960 O.2   900  ATP900     -0.5168
      7  O2B       19.0700    4.5780   20.9680 O.3   900  ATP900     -0.4368
      8  O3B       21.0100    4.6530   22.4610 O.3   900  ATP900     -0.2258
      9  PA        22.4700    4.3760   18.9580 P.3   900  ATP900      0.2189
     10  O1A       23.4960    3.4730   19.5950 O.3   900  ATP900     -0.4371
     11  O2A       21.7080    3.9200   17.7530 O.2   900  ATP900     -0.5170
     12  O3A       21.3630    4.8710   20.0460 O.3   900  ATP900     -0.2700
     13  O5'       22.7900    6.2140   18.8380 O.3   900  ATP900     -0.3112
     14  C5'       23.0460    7.5280   19.2440 C.3   900  ATP900      0.1813
     15  C4'       23.7250    8.2920   18.1270 C.3   900  ATP900      0.1821
     16  O4'       25.0480    8.2820   18.6880 O.3   900  ATP900     -0.3135
     17  C3'       23.9810    7.5700   16.7770 C.3   900  ATP900      0.2184
     18  O3'       22.9720    7.7930   15.8140 O.3   900  ATP900     -0.2174
     19  C2'       25.3040    8.0980   16.4010 C.3   900  ATP900      0.2570
     20  O2'       25.1830    9.3960   15.7730 O.3   900  ATP900     -0.2130
     21  C1'       26.0630    8.1280   17.6970 C.3   900  ATP900      0.3186
     22  N9        26.7980    6.7870   17.8650 N.pl3 900  ATP900     -0.1439
     23  C8        26.4590    5.6840   18.6390 C.3   900  ATP900      0.3377
     24  N7        27.3700    4.6770   18.5270 N.2   900  ATP900     -0.2095
     25  C5        28.3120    5.1040   17.6890 C.2   900  ATP900      0.2526
     26  C6        29.5870    4.5730   17.1100 C.2   900  ATP900      0.4393
     27  N6        30.0040    3.3360   17.4490 N.pl3 900  ATP900      0.2180
     28  N1        30.3260    5.3790   16.2170 N.2   900  ATP900      0.0021
     29  C2        29.9310    6.6670   15.8400 C.3   900  ATP900      0.5254
     30  N3        28.7710    7.2160   16.3380 N.2   900  ATP900     -0.0055
     31  C4        27.9480    6.5000   17.2470 C.2   900  ATP900      0.3518
@<TRIPOS>BOND
     1    20    19    1
     2    18    17    1
     3    29    28    1
     4    29    30    1
     5    28    26    2
     6    30    31    2
     7    19    17    1
     8    19    21    1
     9    17    15    1
    10    26    27    1
    11    26    25    1
    12    31    25    1
    13    31    22    1
    14    25    24    2
    15    21    22    1
    16    21    16    1
    17    11     9    2
    18    22    23    1
    19    15    16    1
    20    15    14    1
    21    24    23    1
    22    13     9    1
    23    13    14    1
    24     9    10    1
    25     9    12    1
    26    12     5    1
    27     6     5    2
    28     7     5    1
    29     5     8    1
    30     8     1    1
    31     2     1    2
    32     1     4    1
    33     1     3    1
