@<TRIPOS>MOLECULE
3lkk_IP8_A_1.pdb
 10 9 0 0 0
SMALL
GASTEIGER

@<TRIPOS>ATOM
      1  O         -9.7650   -9.4080  -24.1430 O.3   247  IP8247     -0.1145
      2  C1        -7.5750  -10.9620  -22.5810 C.3   247  IP8247      0.1581
      3  O1        -7.4590  -10.4640  -23.9300 O.3   247  IP8247     -0.2699
      4  P1        -8.6380   -9.9770  -24.9610 P.3   247  IP8247      0.5326
      5  C2        -7.5950  -12.4790  -22.6450 C.3   247  IP8247      0.0547
      6  O2        -7.9490   -8.9280  -25.8600 O.2   247  IP8247     -0.2224
      7  C3        -7.5400  -13.0690  -21.2520 C.2   247  IP8247     -0.0414
      8  O3        -8.8430  -11.3880  -25.4030 O.3   247  IP8247     -0.1145
      9  C4        -8.6630  -13.3950  -20.6070 C.2   247  IP8247     -0.0090
     10  C5        -6.1890  -13.3090  -20.6020 C.3   247  IP8247      0.0264
@<TRIPOS>BOND
     1     6     4    2
     2     8     4    1
     3     4     1    1
     4     4     3    1
     5     3     2    1
     6     5     2    1
     7     5     7    1
     8     7     9    2
     9     7    10    1
