@<TRIPOS>MOLECULE
3lkk_ATP_A_1.pdb
 31 33 0 0 0
SMALL
GASTEIGER

@<TRIPOS>ATOM
      1  PG       -10.3550  -10.4670  -27.7270 P.3   246  ATP246      0.5373
      2  O1G      -10.4030   -9.6360  -26.4510 O.3   246  ATP246     -0.1143
      3  O2G       -9.1800  -10.1680  -28.5680 O.2   246  ATP246     -0.2221
      4  O3G      -10.5960  -11.9480  -27.3440 O.3   246  ATP246     -0.1143
      5  PB       -11.7910   -9.1910  -30.0720 P.3   246  ATP246      0.2277
      6  O1B      -11.5520  -10.2300  -31.1710 O.2   246  ATP246     -0.5168
      7  O2B      -10.8540   -8.0140  -29.9490 O.3   246  ATP246     -0.4368
      8  O3B      -11.6670   -9.9300  -28.6090 O.3   246  ATP246     -0.2258
      9  PA       -14.6300   -9.0140  -29.3690 P.3   246  ATP246      0.2189
     10  O1A      -14.4590   -8.4340  -27.9730 O.3   246  ATP246     -0.4371
     11  O2A      -14.8190  -10.4870  -29.5330 O.2   246  ATP246     -0.5170
     12  O3A      -13.3110   -8.6780  -30.3020 O.3   246  ATP246     -0.2700
     13  O5'      -15.7570   -8.2110  -30.1520 O.3   246  ATP246     -0.3112
     14  C5'      -16.0140   -8.4530  -31.5440 C.3   246  ATP246      0.1813
     15  C4'      -17.5230   -8.6620  -31.5900 C.3   246  ATP246      0.1821
     16  O4'      -18.1990   -7.4760  -31.1710 O.3   246  ATP246     -0.3135
     17  C3'      -18.1130   -8.9740  -32.9510 C.3   246  ATP246      0.2184
     18  O3'      -18.0910  -10.3930  -33.1870 O.3   246  ATP246     -0.2174
     19  C2'      -19.5370   -8.4330  -32.8350 C.3   246  ATP246      0.2570
     20  O2'      -20.4600   -9.5370  -32.7810 O.3   246  ATP246     -0.2130
     21  C1'      -19.5750   -7.6650  -31.5060 C.3   246  ATP246      0.3186
     22  N9       -20.1680   -6.3180  -31.5760 N.pl3 246  ATP246     -0.1439
     23  C8       -20.9680   -5.7560  -30.6520 C.3   246  ATP246      0.3377
     24  N7       -21.3010   -4.4970  -31.0130 N.2   246  ATP246     -0.2095
     25  C5       -20.7140   -4.2350  -32.2070 C.2   246  ATP246      0.2526
     26  C6       -20.6680   -3.1020  -33.1540 C.2   246  ATP246      0.4393
     27  N6       -21.3650   -1.9600  -32.9220 N.pl3 246  ATP246      0.2180
     28  N1       -19.9340   -3.2570  -34.2870 N.2   246  ATP246      0.0021
     29  C2       -19.2600   -4.4060  -34.5570 C.3   246  ATP246      0.5254
     30  N3       -19.2780   -5.4570  -33.7310 N.2   246  ATP246     -0.0055
     31  C4       -19.9630   -5.4370  -32.5680 C.2   246  ATP246      0.3518
@<TRIPOS>BOND
     1    29    28    1
     2    29    30    1
     3    28    26    2
     4    30    31    2
     5    18    17    1
     6    26    27    1
     7    26    25    1
     8    17    19    1
     9    17    15    1
    10    19    20    1
    11    19    21    1
    12    31    25    1
    13    31    22    1
    14    25    24    2
    15    15    14    1
    16    15    16    1
    17    22    21    1
    18    22    23    1
    19    14    13    1
    20    21    16    1
    21     6     5    2
    22    24    23    1
    23    12     5    1
    24    12     9    1
    25    13     9    1
    26     5     7    1
    27     5     8    1
    28    11     9    2
    29     9    10    1
    30     8     1    1
    31     3     1    2
    32     1     4    1
    33     1     2    1
