@<TRIPOS>MOLECULE
3lkm_AMP_A_1.pdb
 23 25 0 0 0
SMALL
GASTEIGER

@<TRIPOS>ATOM
      1  P         13.8250    3.7350   32.8520 P.3   907  AMP907      0.5327
      2  O1P       13.8130    5.2140   33.1620 O.3   907  AMP907     -0.1145
      3  O2P       15.0910    3.0040   33.2240 O.3   907  AMP907     -0.1145
      4  O3P       13.3190    3.4140   31.4680 O.2   907  AMP907     -0.2224
      5  O5'       12.7140    3.1470   33.8670 O.3   907  AMP907     -0.2675
      6  C5'       11.4080    3.7250   33.9080 C.3   907  AMP907      0.1860
      7  C4'       10.8440    3.6990   35.3210 C.3   907  AMP907      0.1823
      8  O4'       10.8210    2.3590   35.8210 O.3   907  AMP907     -0.3135
      9  C3'       11.6400    4.4900   36.3450 C.3   907  AMP907      0.2184
     10  O3'       11.2720    5.8730   36.3530 O.3   907  AMP907     -0.2174
     11  C2'       11.3210    3.7970   37.6490 C.3   907  AMP907      0.2570
     12  O2'       10.0370    4.2190   38.1180 O.3   907  AMP907     -0.2130
     13  C1'       11.1750    2.3490   37.2140 C.3   907  AMP907      0.3186
     14  N9        12.4170    1.5610   37.2710 N.pl3 907  AMP907     -0.1439
     15  C8        13.4360    1.6200   36.3940 C.3   907  AMP907      0.3377
     16  N7        14.3950    0.7210   36.7070 N.2   907  AMP907     -0.2095
     17  C5        13.9630    0.0430   37.7920 C.2   907  AMP907      0.2526
     18  C6        14.4960   -1.0450   38.6280 C.2   907  AMP907      0.4393
     19  N6        15.6920   -1.6060   38.3410 N.pl3 907  AMP907      0.2180
     20  N1        13.7350   -1.4650   39.6650 N.2   907  AMP907      0.0021
     21  C2        12.5360   -0.9040   39.9380 C.3   907  AMP907      0.5254
     22  N3        11.9850    0.0950   39.2240 N.2   907  AMP907     -0.0055
     23  C4        12.6550    0.5930   38.1540 C.2   907  AMP907      0.3518
@<TRIPOS>BOND
     1     4     1    2
     2     1     2    1
     3     1     3    1
     4     1     5    1
     5     5     6    1
     6     6     7    1
     7     7     8    1
     8     7     9    1
     9     8    13    1
    10     9    10    1
    11     9    11    1
    12    15    16    1
    13    15    14    1
    14    16    17    2
    15    13    14    1
    16    13    11    1
    17    14    23    1
    18    11    12    1
    19    17    23    1
    20    17    18    1
    21    23    22    2
    22    19    18    1
    23    18    20    2
    24    22    21    1
    25    20    21    1
