@<TRIPOS>MOLECULE
3lkv_PHE_A_1.pdb
 12 12 0 0 0
SMALL
GASTEIGER

@<TRIPOS>ATOM
      1  N         84.0240   73.2850   24.3150 N.3   601  PHE601     -0.1205
      2  CA        82.8460   72.6670   25.0450 C.3   601  PHE601      0.1986
      3  C         81.6850   72.4670   24.0330 C.2   601  PHE601      0.3822
      4  O         81.9840   72.4660   22.8030 O.co2 601  PHE601     -0.2440
      5  CB        82.4340   73.4890   26.2750 C.3   601  PHE601      0.0569
      6  CG        83.3670   73.2990   27.4680 C.ar  601  PHE601     -0.0202
      7  CD1       83.3490   72.0990   28.2020 C.ar  601  PHE601     -0.0042
      8  CD2       84.2610   74.2790   27.8390 C.ar  601  PHE601     -0.0042
      9  CE1       84.1960   71.9020   29.2450 C.ar  601  PHE601     -0.0003
     10  CE2       85.1060   74.0950   28.8910 C.ar  601  PHE601     -0.0003
     11  CZ        85.1020   72.9160   29.6060 C.ar  601  PHE601     -0.0000
     12  OXT       80.4950   72.2740   24.3680 O.co2 601  PHE601     -0.2440
@<TRIPOS>BOND
     1     4     3   ar
     2     3    12   ar
     3     3     2    1
     4     1     2    1
     5     2     5    1
     6     5     6    1
     7     6     8   ar
     8     6     7   ar
     9     8    10   ar
    10     7     9   ar
    11    10    11   ar
    12     9    11   ar
