@<TRIPOS>MOLECULE
3lkz_SFG_A_1.pdb
 27 29 0 0 0
SMALL
GASTEIGER

@<TRIPOS>ATOM
      1  N         -2.1130    2.5730   -5.1940 N.3   301  SFG301     -0.1208
      2  CA        -2.3880    3.8800   -5.8150 C.3   301  SFG301      0.1944
      3  C         -1.2350    4.2330   -6.7210 C.2   301  SFG301      0.3819
      4  O         -0.2610    3.5330   -6.7710 O.co2 301  SFG301     -0.2441
      5  OXT       -1.3150    5.3200   -7.4960 O.co2 301  SFG301     -0.2441
      6  CB        -2.5560    4.9560   -4.7200 C.3   301  SFG301      0.0321
      7  CG        -3.7800    4.6030   -3.8590 C.3   301  SFG301      0.0212
      8  CD        -4.0100    5.6520   -2.7610 C.3   301  SFG301      0.0944
      9  NE        -2.8500    5.6510   -1.8610 N.3   301  SFG301     -0.1328
     10  C5'       -5.2700    5.3080   -1.9440 C.3   301  SFG301      0.0514
     11  C4'       -6.5350    5.5520   -2.8030 C.3   301  SFG301      0.1537
     12  O4'       -7.6760    4.8580   -2.2710 O.3   301  SFG301     -0.3161
     13  C3'       -6.9130    7.0470   -2.8900 C.3   301  SFG301      0.2159
     14  O3'       -6.7840    7.5370   -4.2250 O.3   301  SFG301     -0.2175
     15  C2'       -8.3680    7.1070   -2.3880 C.3   301  SFG301      0.2569
     16  O2'       -9.1300    8.0560   -3.1350 O.3   301  SFG301     -0.2130
     17  C1'       -8.8490    5.6580   -2.5870 C.3   301  SFG301      0.3185
     18  N9        -9.9540    5.2970   -1.6780 N.pl3 301  SFG301     -0.1439
     19  C8       -10.1150    5.6600   -0.3590 C.3   301  SFG301      0.3377
     20  N7       -11.2060    5.1430    0.1200 N.2   301  SFG301     -0.2095
     21  C5       -11.8230    4.4220   -0.8440 C.2   301  SFG301      0.2526
     22  C6       -13.0050    3.6390   -0.9210 C.2   301  SFG301      0.4393
     23  N6       -13.8300    3.4980    0.1760 N.pl3 301  SFG301      0.2180
     24  N1       -13.3130    3.0360   -2.0930 N.2   301  SFG301      0.0021
     25  C2       -12.5290    3.1500   -3.1680 C.3   301  SFG301      0.5254
     26  N3       -11.4100    3.8700   -3.1370 N.2   301  SFG301     -0.0055
     27  C4       -11.0200    4.5070   -2.0130 C.2   301  SFG301      0.3518
@<TRIPOS>BOND
     1     5     3   ar
     2     4     3   ar
     3     3     2    1
     4     2     1    1
     5     2     6    1
     6     6     7    1
     7    14    13    1
     8     7     8    1
     9    25    26    1
    10    25    24    1
    11    26    27    2
    12    16    15    1
    13    13    11    1
    14    13    15    1
    15    11    12    1
    16    11    10    1
    17     8    10    1
    18     8     9    1
    19    17    15    1
    20    17    12    1
    21    17    18    1
    22    24    22    2
    23    27    18    1
    24    27    21    1
    25    18    19    1
    26    22    21    1
    27    22    23    1
    28    21    20    2
    29    19    20    1
