@<TRIPOS>MOLECULE
3ll2_MAN_A_1.pdb
 11 11 0 0 0
SMALL
GASTEIGER

@<TRIPOS>ATOM
      1  C1        27.0860   57.5090   18.0080 C.3   126  MAN126      0.1777
      2  C2        28.0100   56.3570   18.2120 C.3   126  MAN126      0.2141
      3  C3        28.5590   55.9740   16.8900 C.3   126  MAN126      0.2173
      4  C4        27.4200   55.6470   15.9210 C.3   126  MAN126      0.2142
      5  C5        26.5390   56.8890   15.7930 C.3   126  MAN126      0.1810
      6  C6        25.2780   56.5430   14.9090 C.3   126  MAN126      0.2141
      7  O2        27.3160   55.2440   18.7590 O.3   126  MAN126     -0.2176
      8  O3        29.4110   54.7840   17.0590 O.3   126  MAN126     -0.2175
      9  O4        27.9890   55.3550   14.6510 O.3   126  MAN126     -0.2176
     10  O5        26.0440   57.2430   17.0530 O.3   126  MAN126     -0.3481
     11  O6        24.4990   55.5080   15.5060 O.3   126  MAN126     -0.2176
@<TRIPOS>BOND
     1     9     4    1
     2     6    11    1
     3     6     5    1
     4     5     4    1
     5     5    10    1
     6     4     3    1
     7     3     8    1
     8     3     2    1
     9    10     1    1
    10     1     2    1
    11     2     7    1
