@<TRIPOS>MOLECULE
3ll3_DXP_A_1.pdb
 13 12 0 0 0
SMALL
GASTEIGER

@<TRIPOS>ATOM
      1  C1        14.6280   42.5520  -11.8120 C.3   3264  DXP3264     0.0751
      2  C2        13.1360   42.3340  -11.4220 C.2   3264  DXP3264     0.1838
      3  C3        12.7780   40.9690  -10.7820 C.3   3264  DXP3264     0.2412
      4  C4        13.2430   39.8620  -11.7500 C.3   3264  DXP3264     0.2193
      5  C5        12.7330   38.4000  -11.7250 C.3   3264  DXP3264     0.1896
      6  O2        12.2960   43.0020  -11.9260 O.2   3264  DXP3264    -0.2933
      7  O3        11.4850   40.9550  -10.3190 O.3   3264  DXP3264    -0.2123
      8  O4        13.2750   40.4060  -13.0310 O.3   3264  DXP3264    -0.2172
      9  O5        12.3560   37.8240  -12.9480 O.3   3264  DXP3264    -0.2674
     10  P         12.7310   36.3080  -13.5130 P.3   3264  DXP3264     0.5327
     11  O2P       14.1930   36.3220  -14.1450 O.3   3264  DXP3264    -0.1145
     12  O1P       12.4100   35.2160  -12.3840 O.3   3264  DXP3264    -0.1145
     13  O3P       11.9670   36.0110  -14.6640 O.2   3264  DXP3264    -0.2224
@<TRIPOS>BOND
     1    13    10    2
     2    11    10    1
     3    10     9    1
     4    10    12    1
     5     8     4    1
     6     9     5    1
     7     6     2    2
     8     1     2    1
     9     4     5    1
    10     4     3    1
    11     2     3    1
    12     3     7    1
