@<TRIPOS>MOLECULE
3ll3_ATP_A_1.pdb
 31 33 0 0 0
SMALL
GASTEIGER

@<TRIPOS>ATOM
      1  PG        -0.3220   27.7060   -2.5290 P.3   1760  ATP1760     0.5373
      2  O1G       -1.4040   28.6230   -1.6620 O.3   1760  ATP1760    -0.1143
      3  O2G       -0.8910   26.1540   -2.6920 O.2   1760  ATP1760    -0.2221
      4  O3G        0.9800   27.7250   -1.8660 O.3   1760  ATP1760    -0.1143
      5  PB        -0.6370   29.8870   -4.3600 P.3   1760  ATP1760     0.2277
      6  O1B       -0.2110   30.1750   -5.9220 O.2   1760  ATP1760    -0.5168
      7  O2B       -0.0310   30.8450   -3.4440 O.3   1760  ATP1760    -0.4368
      8  O3B       -0.1470   28.3320   -4.0470 O.3   1760  ATP1760    -0.2258
      9  PA        -3.4600   29.6360   -5.1940 P.3   1760  ATP1760     0.2189
     10  O1A       -3.2730   28.2600   -6.0650 O.2   1760  ATP1760    -0.5170
     11  O2A       -4.6960   29.6410   -4.4230 O.3   1760  ATP1760    -0.4371
     12  O3A       -2.2720   29.9770   -4.0910 O.3   1760  ATP1760    -0.2700
     13  O5'       -3.5460   30.8610   -6.2880 O.3   1760  ATP1760    -0.3112
     14  C5'       -3.5130   32.1850   -5.8100 C.3   1760  ATP1760     0.1813
     15  C4'       -4.0450   33.0910   -6.8940 C.3   1760  ATP1760     0.1821
     16  O4'       -5.3760   32.9000   -7.3460 O.3   1760  ATP1760    -0.3135
     17  C3'       -3.7860   34.6270   -6.8600 C.3   1760  ATP1760     0.2184
     18  O3'       -2.6490   35.0480   -7.5540 O.3   1760  ATP1760    -0.2174
     19  C2'       -5.1720   35.2580   -7.2500 C.3   1760  ATP1760     0.2570
     20  O2'       -5.0500   36.4480   -7.9800 O.3   1760  ATP1760    -0.2130
     21  C1'       -5.8160   34.0840   -7.9540 C.3   1760  ATP1760     0.3186
     22  N9        -7.2650   34.0390   -7.8230 N.pl3 1760  ATP1760    -0.1439
     23  C8        -8.0010   34.1010   -6.6960 C.3   1760  ATP1760     0.3377
     24  N7        -9.3540   33.8890   -7.0830 N.2   1760  ATP1760    -0.2095
     25  C5        -9.3840   33.6810   -8.4810 C.2   1760  ATP1760     0.2526
     26  C6       -10.4380   33.4150   -9.3850 C.2   1760  ATP1760     0.4393
     27  N6       -11.7980   33.2800   -8.8780 N.pl3 1760  ATP1760     0.2180
     28  N1       -10.1820   33.2470  -10.6870 N.2   1760  ATP1760     0.0021
     29  C2        -8.8970   33.3350  -11.1730 C.3   1760  ATP1760     0.5254
     30  N3        -7.8720   33.5970  -10.2810 N.2   1760  ATP1760    -0.0055
     31  C4        -8.1310   33.7660   -8.9540 C.2   1760  ATP1760     0.3518
@<TRIPOS>BOND
     1    29    28    1
     2    29    30    1
     3    28    26    2
     4    30    31    2
     5    26    27    1
     6    26    25    1
     7    31    25    1
     8    31    22    1
     9    25    24    2
    10    20    19    1
    11    21    22    1
    12    21    16    1
    13    21    19    1
    14    22    23    1
    15    18    17    1
    16    16    15    1
    17    19    17    1
    18    24    23    1
    19    15    17    1
    20    15    14    1
    21    13    14    1
    22    13     9    1
    23    10     9    2
    24     6     5    2
    25     9    11    1
    26     9    12    1
    27     5    12    1
    28     5     8    1
    29     5     7    1
    30     8     1    1
    31     3     1    2
    32     1     4    1
    33     1     2    1
