@<TRIPOS>MOLECULE
3ll3_XUL_A_1.pdb
 10 9 0 0 0
SMALL
GASTEIGER

@<TRIPOS>ATOM
      1  C1        10.4370   24.1210  -10.5760 C.3   7778  XUL7778     0.2486
      2  C2        11.2770   25.4080  -10.6500 C.2   7778  XUL7778     0.2165
      3  C3        11.0680   26.5410   -9.6070 C.3   7778  XUL7778     0.2440
      4  C4        10.2530   26.1580   -8.3560 C.3   7778  XUL7778     0.2221
      5  C5        11.0040   25.2260   -7.3860 C.3   7778  XUL7778     0.2179
      6  O1         9.6040   24.0280  -11.7070 O.3   7778  XUL7778    -0.2118
      7  O2        12.0640   25.5470  -11.5560 O.2   7778  XUL7778    -0.2905
      8  O3        10.3830   27.6090  -10.2130 O.3   7778  XUL7778    -0.2122
      9  O4         9.9330   27.3530   -7.6810 O.3   7778  XUL7778    -0.2171
     10  O5        10.4930   25.3310   -6.0790 O.3   7778  XUL7778    -0.2175
@<TRIPOS>BOND
     1     6     1    1
     2     7     2    2
     3     2     1    1
     4     2     3    1
     5     8     3    1
     6     3     4    1
     7     4     9    1
     8     4     5    1
     9     5    10    1
