@<TRIPOS>MOLECULE
3ll3_ADP_B_1.pdb
 27 29 0 0 0
SMALL
GASTEIGER

@<TRIPOS>ATOM
      1  PB       -14.5200   70.1130  -30.7900 P.3   1761  ADP1761     0.5373
      2  O1B      -14.7990   71.5710  -31.5210 O.2   1761  ADP1761    -0.2221
      3  O2B      -15.5570   69.1660  -31.1880 O.3   1761  ADP1761    -0.1143
      4  O3B      -13.0350   69.4980  -31.2000 O.3   1761  ADP1761    -0.1143
      5  PA       -13.5050   70.8060  -28.0860 P.3   1761  ADP1761     0.2231
      6  O1A      -14.2940   71.4400  -26.7840 O.3   1761  ADP1761    -0.4370
      7  O2A      -12.4820   71.7190  -28.5880 O.2   1761  ADP1761    -0.5169
      8  O3A      -14.6770   70.3030  -29.1460 O.3   1761  ADP1761    -0.2261
      9  O5'      -12.6650   69.4330  -27.6320 O.3   1761  ADP1761    -0.3111
     10  C5'      -13.4000   68.2660  -27.3070 C.3   1761  ADP1761     0.1813
     11  C4'      -12.6240   67.3000  -26.4130 C.3   1761  ADP1761     0.1821
     12  O4'      -12.3210   67.7310  -25.0900 O.3   1761  ADP1761    -0.3135
     13  C3'      -13.1500   65.8370  -26.2270 C.3   1761  ADP1761     0.2184
     14  O3'      -12.6190   64.9420  -27.1630 O.3   1761  ADP1761    -0.2174
     15  C2'      -12.9600   65.5330  -24.6730 C.3   1761  ADP1761     0.2570
     16  O2'      -12.5470   64.2280  -24.3730 O.3   1761  ADP1761    -0.2130
     17  C1'      -11.9850   66.6280  -24.3060 C.3   1761  ADP1761     0.3186
     18  N9       -12.0680   67.1070  -22.9350 N.pl3 1761  ADP1761    -0.1439
     19  C8       -13.1440   67.6010  -22.3080 C.3   1761  ADP1761     0.3377
     20  N7       -12.7160   68.1050  -21.0460 N.2   1761  ADP1761    -0.2095
     21  C5       -11.3270   67.9160  -20.9570 C.2   1761  ADP1761     0.2526
     22  C6       -10.3930   68.2300  -19.9450 C.2   1761  ADP1761     0.4393
     23  N6       -10.8390   68.8880  -18.7280 N.pl3 1761  ADP1761     0.2180
     24  N1        -9.1040   67.9330  -20.1140 N.2   1761  ADP1761     0.0021
     25  C2        -8.6780   67.3170  -21.2630 C.3   1761  ADP1761     0.5254
     26  N3        -9.5960   67.0110  -22.2570 N.2   1761  ADP1761    -0.0055
     27  C4       -10.9090   67.3090  -22.0860 C.2   1761  ADP1761     0.3518
@<TRIPOS>BOND
     1     2     1    2
     2     4     1    1
     3     3     1    1
     4     1     8    1
     5     8     5    1
     6     7     5    2
     7     5     9    1
     8     5     6    1
     9     9    10    1
    10    10    11    1
    11    14    13    1
    12    11    13    1
    13    11    12    1
    14    13    15    1
    15    12    17    1
    16    15    16    1
    17    15    17    1
    18    17    18    1
    19    18    19    1
    20    18    27    1
    21    19    20    1
    22    26    27    2
    23    26    25    1
    24    27    21    1
    25    25    24    1
    26    20    21    2
    27    21    22    1
    28    24    22    2
    29    22    23    1
