@<TRIPOS>MOLECULE
3ll4_2FP_A_1.pdb
 20 19 0 0 0
SMALL
GASTEIGER

@<TRIPOS>ATOM
      1  P6       -11.9800    1.3090  -18.1260 P.3   301  2FP301      0.5330
      2  O6       -10.3840    1.5050  -18.4560 O.3   301  2FP301     -0.2621
      3  C6        -9.8420    1.7940  -19.7760 C.3   301  2FP301      0.2203
      4  C5        -8.3430    1.6530  -19.6300 C.2   301  2FP301      0.2137
      5  O5        -7.9880    1.2020  -18.5650 O.2   301  2FP301     -0.2906
      6  C4        -7.2820    1.9830  -20.6690 C.3   301  2FP301      0.2439
      7  O4        -6.0470    1.4770  -20.1960 O.3   301  2FP301     -0.2122
      8  C3        -6.9940    3.4680  -20.9990 C.3   301  2FP301      0.2220
      9  O3        -7.4300    4.3720  -19.9650 O.3   301  2FP301     -0.2171
     10  C2        -5.5440    3.7630  -21.5150 C.3   301  2FP301      0.2151
     11  O2        -4.4690    3.2190  -20.7330 O.3   301  2FP301     -0.2176
     12  C1        -5.3070    5.2690  -21.7390 C.3   301  2FP301      0.1892
     13  O1        -4.2200    5.5270  -22.6480 O.3   301  2FP301     -0.2674
     14  O61      -12.1600    0.2540  -17.0460 O.3   301  2FP301     -0.1145
     15  O62      -12.4490    0.9680  -19.5500 O.2   301  2FP301     -0.2224
     16  O63      -12.4340    2.6450  -17.5890 O.3   301  2FP301     -0.1145
     17  P1        -4.2860    5.8940  -24.2260 P.3   301  2FP301      0.5327
     18  O11       -4.5050    4.5990  -24.9310 O.2   301  2FP301     -0.2224
     19  O12       -5.4570    6.8120  -24.3220 O.3   301  2FP301     -0.1145
     20  O13       -2.9370    6.4920  -24.4410 O.3   301  2FP301     -0.1145
@<TRIPOS>BOND
     1    18    17    2
     2    20    17    1
     3    19    17    1
     4    17    13    1
     5    13    12    1
     6    12    10    1
     7    10     8    1
     8    10    11    1
     9     8     6    1
    10     8     9    1
    11     6     7    1
    12     6     4    1
    13     3     4    1
    14     3     2    1
    15     4     5    2
    16    15     1    2
    17     2     1    1
    18     1    16    1
    19     1    14    1
