@<TRIPOS>MOLECULE
3ll5_IP8_C_1.pdb
 10 9 0 0 0
SMALL
GASTEIGER

@<TRIPOS>ATOM
      1  O         50.4980   -4.6710  -62.7130 O.2   247  IP8247     -0.2224
      2  C1        48.2290   -2.7940  -61.0130 C.3   247  IP8247      0.1581
      3  O1        49.3380   -3.6530  -60.5000 O.3   247  IP8247     -0.2699
      4  P1        50.3800   -4.8020  -61.1890 P.3   247  IP8247      0.5326
      5  C2        47.0250   -2.3440  -60.1190 C.3   247  IP8247      0.0547
      6  O2        51.7520   -4.4920  -60.6280 O.3   247  IP8247     -0.1145
      7  C3        45.6630   -2.6430  -60.7680 C.2   247  IP8247     -0.0414
      8  O3        49.6140   -5.9520  -60.5770 O.3   247  IP8247     -0.1145
      9  C4        45.5870   -3.2410  -61.9300 C.2   247  IP8247     -0.0090
     10  C5        44.3300   -2.3150  -60.1560 C.3   247  IP8247      0.0264
@<TRIPOS>BOND
     1     1     4    2
     2     9     7    2
     3     4     6    1
     4     4     8    1
     5     4     3    1
     6     2     3    1
     7     2     5    1
     8     7    10    1
     9     7     5    1
