@<TRIPOS>MOLECULE
3ll5_ATP_C_1.pdb
 31 33 0 0 0
SMALL
GASTEIGER

@<TRIPOS>ATOM
      1  PG        51.4960   -7.6600  -60.7450 P.3   246  ATP246      0.5373
      2  O1G       51.4600   -6.5060  -61.7320 O.2   246  ATP246     -0.2221
      3  O2G       52.1160   -7.3000  -59.4400 O.3   246  ATP246     -0.1143
      4  O3G       50.2200   -8.4380  -60.6050 O.3   246  ATP246     -0.1143
      5  PB        53.7980   -9.3500  -61.0020 P.3   246  ATP246      0.2277
      6  O1B       53.4040  -10.3640  -59.9970 O.3   246  ATP246     -0.4368
      7  O2B       54.7280   -8.2670  -60.4790 O.2   246  ATP246     -0.5168
      8  O3B       52.4590   -8.6480  -61.5440 O.3   246  ATP246     -0.2258
      9  PA        53.6790  -10.4700  -63.7560 P.3   246  ATP246      0.2189
     10  O1A       53.4580   -9.3280  -64.6870 O.2   246  ATP246     -0.5170
     11  O2A       52.5480  -11.3560  -63.4160 O.3   246  ATP246     -0.4371
     12  O3A       54.4130   -9.9420  -62.3710 O.3   246  ATP246     -0.2700
     13  O5'       54.9630  -11.3720  -64.1480 O.3   246  ATP246     -0.3112
     14  C5'       55.1080  -12.7040  -63.6460 C.3   246  ATP246      0.1813
     15  C4'       54.6870  -13.7030  -64.7290 C.3   246  ATP246      0.1821
     16  O4'       55.4650  -13.5760  -65.9200 O.3   246  ATP246     -0.3135
     17  C3'       54.8900  -15.1570  -64.3440 C.3   246  ATP246      0.2184
     18  O3'       53.6280  -15.6800  -63.9260 O.3   246  ATP246     -0.2174
     19  C2'       55.3710  -15.8430  -65.6050 C.3   246  ATP246      0.2570
     20  O2'       54.3600  -16.7190  -66.0340 O.3   246  ATP246     -0.2130
     21  C1'       55.4100  -14.7730  -66.6690 C.3   246  ATP246      0.3186
     22  N9        56.5340  -14.8400  -67.6350 N.pl3 246  ATP246     -0.1439
     23  C8        56.4200  -14.5980  -68.9560 C.3   246  ATP246      0.3377
     24  N7        57.5970  -14.7100  -69.5960 N.2   246  ATP246     -0.2095
     25  C5        58.5110  -15.0310  -68.6690 C.2   246  ATP246      0.2526
     26  C6        59.9700  -15.3130  -68.6540 C.2   246  ATP246      0.4393
     27  N6        60.7210  -15.2750  -69.7720 N.pl3 246  ATP246      0.2180
     28  N1        60.5360  -15.6140  -67.4450 N.2   246  ATP246      0.0021
     29  C2        59.7960  -15.6640  -66.3170 C.3   246  ATP246      0.5254
     30  N3        58.4740  -15.4420  -66.2480 N.2   246  ATP246     -0.0055
     31  C4        57.7950  -15.1220  -67.3740 C.2   246  ATP246      0.3518
@<TRIPOS>BOND
     1    27    26    1
     2    24    23    1
     3    24    25    2
     4    23    22    1
     5    25    26    1
     6    25    31    1
     7    26    28    2
     8    22    31    1
     9    22    21    1
    10    28    29    1
    11    31    30    2
    12    21    16    1
    13    21    19    1
    14    29    30    1
    15    20    19    1
    16    16    15    1
    17    19    17    1
    18    15    17    1
    19    15    14    1
    20    10     9    2
    21    17    18    1
    22    13     9    1
    23    13    14    1
    24     9    11    1
    25     9    12    1
    26    12     5    1
    27     2     1    2
    28     8     5    1
    29     8     1    1
    30     5     7    2
    31     5     6    1
    32     1     4    1
    33     1     3    1
