@<TRIPOS>MOLECULE
3ll5_IPE_A_1.pdb
 14 13 0 0 0
SMALL
GASTEIGER

@<TRIPOS>ATOM
      1  C1        39.2880    9.9870  -34.1610 C.3   247  IPE247      0.1535
      2  O1        37.9650   10.3810  -34.5860 O.3   247  IPE247     -0.3135
      3  C2        39.1520    8.5050  -33.9140 C.3   247  IPE247      0.0545
      4  C3        40.5330    8.0760  -33.5350 C.2   247  IPE247     -0.0414
      5  C4        41.4090    7.9540  -34.5160 C.2   247  IPE247     -0.0090
      6  C5        40.9070    7.8190  -32.0880 C.3   247  IPE247      0.0264
      7  PA        36.7260   11.1200  -33.7900 P.3   247  IPE247      0.2230
      8  O1A       37.0800   11.8830  -32.5390 O.3   247  IPE247     -0.4370
      9  O2A       36.1940   12.0060  -34.8650 O.2   247  IPE247     -0.5169
     10  O3A       35.6580    9.9320  -33.5430 O.3   247  IPE247     -0.2261
     11  PB        34.1880   10.2900  -32.8460 P.3   247  IPE247      0.5373
     12  O1B       34.6930   11.4810  -32.0780 O.3   247  IPE247     -0.1143
     13  O2B       33.1940   10.6520  -33.9180 O.2   247  IPE247     -0.2221
     14  O3B       34.0510    8.9270  -32.2630 O.3   247  IPE247     -0.1143
@<TRIPOS>BOND
     1     9     7    2
     2     2     1    1
     3     2     7    1
     4     5     4    2
     5     1     3    1
     6    13    11    2
     7     3     4    1
     8     7    10    1
     9     7     8    1
    10    10    11    1
    11     4     6    1
    12    11    14    1
    13    11    12    1
