@<TRIPOS>MOLECULE
3ll5_ADP_A_1.pdb
 27 29 0 0 0
SMALL
GASTEIGER

@<TRIPOS>ATOM
      1  PB        30.9240   11.7030  -32.0970 P.3   246  ADP246      0.5373
      2  O1B       30.8620   12.8730  -33.0500 O.2   246  ADP246     -0.2221
      3  O2B       29.9690   10.6720  -32.5970 O.3   246  ADP246     -0.1143
      4  O3B       32.3620   11.2700  -31.8250 O.3   246  ADP246     -0.1143
      5  PA        30.8050   11.7710  -29.2640 P.3   246  ADP246      0.2231
      6  O1A       32.1100   12.2460  -28.7400 O.3   246  ADP246     -0.4370
      7  O2A       30.5850   10.2880  -29.2590 O.2   246  ADP246     -0.5169
      8  O3A       30.4310   12.3610  -30.7240 O.3   246  ADP246     -0.2261
      9  O5'       29.6480   12.4400  -28.3750 O.3   246  ADP246     -0.3111
     10  C5'       28.2660   12.1800  -28.5240 C.3   246  ADP246      0.1813
     11  C4'       27.8660   11.9150  -27.0890 C.3   246  ADP246      0.1821
     12  O4'       28.0240   13.0850  -26.2900 O.3   246  ADP246     -0.3135
     13  C3'       26.4310   11.4470  -26.9470 C.3   246  ADP246      0.2184
     14  O3'       26.5060   10.0170  -26.8910 O.3   246  ADP246     -0.2174
     15  C2'       25.9750   12.0720  -25.6270 C.3   246  ADP246      0.2570
     16  O2'       25.7130   11.0740  -24.6130 O.3   246  ADP246     -0.2130
     17  C1'       27.1740   12.8820  -25.1500 C.3   246  ADP246      0.3186
     18  N9        26.8880   14.1890  -24.5240 N.pl3 246  ADP246     -0.1439
     19  C8        27.5420   14.6670  -23.4380 C.3   246  ADP246      0.3377
     20  N7        27.0670   15.8960  -23.1050 N.2   246  ADP246     -0.2095
     21  C5        26.0940   16.2020  -23.9880 C.2   246  ADP246      0.2526
     22  C6        25.1900   17.3620  -24.2160 C.2   246  ADP246      0.4393
     23  N6        25.2590   18.4290  -23.4000 N.pl3 246  ADP246      0.2180
     24  N1        24.3260   17.3000  -25.2520 N.2   246  ADP246      0.0021
     25  C2        24.2760   16.2450  -26.0820 C.3   246  ADP246      0.5254
     26  N3        25.0680   15.1570  -25.9380 N.2   246  ADP246     -0.0055
     27  C4        25.9770   15.0780  -24.9260 C.2   246  ADP246      0.3518
@<TRIPOS>BOND
     1     2     1    2
     2     3     1    1
     3     1     4    1
     4     1     8    1
     5     8     5    1
     6     5     7    2
     7     5     6    1
     8     5     9    1
     9    10     9    1
    10    10    11    1
    11    11    13    1
    12    11    12    1
    13    13    14    1
    14    13    15    1
    15    12    17    1
    16    25    26    1
    17    25    24    1
    18    26    27    2
    19    15    17    1
    20    15    16    1
    21    24    22    2
    22    17    18    1
    23    27    18    1
    24    27    21    1
    25    18    19    1
    26    22    21    1
    27    22    23    1
    28    21    20    2
    29    19    20    1
