@<TRIPOS>MOLECULE
3ll9_ADP_A_1.pdb
 27 29 0 0 0
SMALL
GASTEIGER

@<TRIPOS>ATOM
      1  PB        11.6230    7.0380   21.7160 P.3   267  ADP267      0.5373
      2  O1B       11.0830    6.5940   23.0550 O.3   267  ADP267     -0.1143
      3  O2B       13.1030    6.6740   21.4990 O.3   267  ADP267     -0.1143
      4  O3B       10.6640    6.7790   20.5610 O.2   267  ADP267     -0.2221
      5  PA        11.5630    9.8130   20.7460 P.3   267  ADP267      0.2231
      6  O1A       10.3030    9.6590   19.9120 O.2   267  ADP267     -0.5169
      7  O2A       12.9430    9.8890   20.0950 O.3   267  ADP267     -0.4370
      8  O3A       11.5720    8.6770   21.9170 O.3   267  ADP267     -0.2261
      9  O5'       11.2560   11.2200   21.5080 O.3   267  ADP267     -0.3111
     10  C5'       11.7160   11.5280   22.8250 C.3   267  ADP267      0.1813
     11  C4'       12.4700   12.8580   22.7460 C.3   267  ADP267      0.1821
     12  O4'       11.8050   13.8530   21.9600 O.3   267  ADP267     -0.3135
     13  C3'       12.6730   13.5060   24.0990 C.3   267  ADP267      0.2184
     14  O3'       13.7890   12.8800   24.7350 O.3   267  ADP267     -0.2174
     15  C2'       12.8990   14.9780   23.7540 C.3   267  ADP267      0.2570
     16  O2'       14.2920   15.2860   23.6270 O.3   267  ADP267     -0.2130
     17  C1'       12.3030   15.1510   22.3660 C.3   267  ADP267      0.3186
     18  N9        11.1730   16.1070   22.3580 N.pl3 267  ADP267     -0.1439
     19  C8        10.9730   17.0210   21.4020 C.3   267  ADP267      0.3377
     20  N7         9.8520   17.7380   21.6680 N.2   267  ADP267     -0.2095
     21  C5         9.3090   17.2300   22.7880 C.2   267  ADP267      0.2526
     22  C6         8.1270   17.5510   23.5960 C.2   267  ADP267      0.4393
     23  N6         7.3460   18.5650   23.1510 N.pl3 267  ADP267      0.2180
     24  N1         7.9150   16.8230   24.7360 N.2   267  ADP267      0.0021
     25  C2         8.7450   15.8170   25.1200 C.3   267  ADP267      0.5254
     26  N3         9.8670   15.5030   24.4350 N.2   267  ADP267     -0.0055
     27  C4        10.1810   16.1530   23.2670 C.2   267  ADP267      0.3518
@<TRIPOS>BOND
     1     6     5    2
     2     7     5    1
     3     4     1    2
     4     5     9    1
     5     5     8    1
     6    19    20    1
     7    19    18    1
     8     3     1    1
     9     9    10    1
    10    20    21    2
    11     1     8    1
    12     1     2    1
    13    12    17    1
    14    12    11    1
    15    18    17    1
    16    18    27    1
    17    17    15    1
    18    11    10    1
    19    11    13    1
    20    21    27    1
    21    21    22    1
    22    23    22    1
    23    27    26    2
    24    22    24    2
    25    16    15    1
    26    15    13    1
    27    13    14    1
    28    26    25    1
    29    24    25    1
