@<TRIPOS>MOLECULE
3lla_ACP_A_1.pdb
 31 33 0 0 0
SMALL
GASTEIGER

@<TRIPOS>ATOM
      1  PG       -30.1720  -17.2250   45.5720 P.3   1304  ACP1304     0.1295
      2  O1G      -30.8910  -18.2970   46.3490 O.3   1304  ACP1304    -0.3567
      3  O2G      -29.4590  -16.2370   46.4590 O.3   1304  ACP1304    -0.3567
      4  O3G      -31.0040  -16.5500   44.5150 O.2   1304  ACP1304    -0.4595
      5  PB       -27.4800  -18.7150   45.5440 P.3   1304  ACP1304     0.3815
      6  O1B      -27.8920  -19.4230   46.8130 O.3   1304  ACP1304    -0.1391
      7  O2B      -26.6160  -19.5230   44.5950 O.2   1304  ACP1304    -0.2547
      8  C3B      -28.9120  -18.1070   44.5980 C.3   1304  ACP1304     0.1768
      9  PA       -26.1710  -16.2630   45.0910 P.3   1304  ACP1304     0.2209
     10  O1A      -27.4060  -15.4870   44.7430 O.3   1304  ACP1304    -0.4371
     11  O2A      -25.2750  -16.7060   43.9640 O.2   1304  ACP1304    -0.5170
     12  O3A      -26.5650  -17.4910   46.0400 O.3   1304  ACP1304    -0.2483
     13  O5'      -25.3620  -15.3290   46.1100 O.3   1304  ACP1304    -0.3111
     14  C5'      -26.0070  -14.9110   47.3110 C.3   1304  ACP1304     0.1813
     15  C4'      -26.1460  -13.3950   47.3820 C.3   1304  ACP1304     0.1821
     16  O4'      -24.8920  -12.7280   47.1630 O.3   1304  ACP1304    -0.3135
     17  C3'      -27.0940  -12.7950   46.3530 C.3   1304  ACP1304     0.2184
     18  O3'      -28.4710  -12.8660   46.7210 O.3   1304  ACP1304    -0.2174
     19  C2'      -26.6280  -11.3660   46.2910 C.3   1304  ACP1304     0.2570
     20  O2'      -27.0930  -10.7150   47.4700 O.3   1304  ACP1304    -0.2130
     21  C1'      -25.1290  -11.4880   46.4600 C.3   1304  ACP1304     0.3186
     22  N9       -24.3460  -11.5340   45.1910 N.pl3 1304  ACP1304    -0.1439
     23  C8       -24.3240  -12.5410   44.2820 C.3   1304  ACP1304     0.3377
     24  N7       -23.4590  -12.2720   43.2490 N.2   1304  ACP1304    -0.2095
     25  C5       -22.8960  -11.0750   43.5080 C.2   1304  ACP1304     0.2526
     26  C6       -21.9130  -10.2030   42.8410 C.2   1304  ACP1304     0.4393
     27  N6       -21.3280  -10.5740   41.6770 N.pl3 1304  ACP1304     0.2180
     28  N1       -21.6090   -9.0350   43.4380 N.2   1304  ACP1304     0.0021
     29  C2       -22.1720   -8.6430   44.6050 C.3   1304  ACP1304     0.5254
     30  N3       -23.0830   -9.3890   45.2670 N.2   1304  ACP1304    -0.0055
     31  C4       -23.4780  -10.5940   44.7870 C.2   1304  ACP1304     0.3518
@<TRIPOS>BOND
     1    27    26    1
     2    26    28    2
     3    26    25    1
     4    24    25    2
     5    24    23    1
     6    28    29    1
     7    25    31    1
     8    11     9    2
     9    23    22    1
    10     4     1    2
    11     7     5    2
    12     8     5    1
    13     8     1    1
    14    29    30    1
    15    10     9    1
    16    31    22    1
    17    31    30    2
    18     9    12    1
    19     9    13    1
    20    22    21    1
    21     5    12    1
    22     5     6    1
    23     1     2    1
    24     1     3    1
    25    13    14    1
    26    19    17    1
    27    19    21    1
    28    19    20    1
    29    17    18    1
    30    17    15    1
    31    21    16    1
    32    16    15    1
    33    14    15    1
