@<TRIPOS>MOLECULE
3lld_UP6_A_1.pdb
 21 22 0 0 0
SMALL
GASTEIGER

@<TRIPOS>ATOM
      1  N1        19.0190   -0.0410    8.4670 N.am  229  UP6229     -0.0968
      2  C2        19.2990   -0.7980    7.3180 C.1   229  UP6229      0.3005
      3  N3        18.3960   -0.6180    6.2850 N.2   229  UP6229     -0.2426
      4  C4        17.2860    0.2330    6.3120 C.1   229  UP6229      0.2380
      5  C5        17.0440    0.9320    7.5430 C.2   229  UP6229      0.2253
      6  N6        17.8780    0.7810    8.5670 N.2   229  UP6229     -0.1496
      7  O2        20.2390   -1.5230    7.2360 O.2   229  UP6229     -0.1905
      8  O4        16.6090    0.3190    5.3170 O.2   229  UP6229     -0.2069
      9  C1'       19.9070   -0.0620    9.6230 C.3   229  UP6229      0.2577
     10  C2'       20.1900   -1.3970   10.3200 C.3   229  UP6229      0.2334
     11  C3'       21.5950   -1.1990   10.8470 C.3   229  UP6229      0.2159
     12  C4'       22.2460   -0.2900    9.8010 C.3   229  UP6229      0.1801
     13  O2'       19.2490   -1.6360   11.3750 O.3   229  UP6229     -0.2157
     14  O3'       21.5830   -0.5320   12.0990 O.3   229  UP6229     -0.2175
     15  O4'       21.1710    0.4930    9.2450 O.3   229  UP6229     -0.3309
     16  C5'       22.9800   -0.9660    8.6540 C.3   229  UP6229      0.1859
     17  O5'       24.1570   -1.5360    9.2130 O.3   229  UP6229     -0.2675
     18  P         25.1920   -2.4210    8.3280 P.3   229  UP6229      0.5327
     19  O1P       24.4560   -3.2070    7.2760 O.2   229  UP6229     -0.2224
     20  O2P       25.8640   -3.2700    9.3720 O.3   229  UP6229     -0.1145
     21  O3P       26.2440   -1.4090    7.7210 O.3   229  UP6229     -0.1145
@<TRIPOS>BOND
     1     8     4    2
     2     3     4    2
     3     3     2    2
     4     4     5    1
     5     7     2    2
     6    19    18    2
     7     2     1   am
     8     5     6    2
     9    21    18    1
    10    18    17    1
    11    18    20    1
    12     1     6    1
    13     1     9    1
    14    16    17    1
    15    16    12    1
    16    15     9    1
    17    15    12    1
    18     9    10    1
    19    12    11    1
    20    10    11    1
    21    10    13    1
    22    11    14    1
