@<TRIPOS>MOLECULE
3lle_SGE_A_1.pdb
 25 30 0 0 0
SMALL
GASTEIGER

@<TRIPOS>ATOM
      1  NAA       -3.4990   -0.7810  -28.9060 N.pl3  94  SGE94      -0.3017
      2  CAB       -4.4790    1.4430  -28.2670 C.ar   94  SGE94       0.0348
      3  CAC       -2.2620   -0.4160  -28.1940 C.ar   94  SGE94       0.0481
      4  CAD       -2.1880    0.9010  -27.4630 C.ar   94  SGE94       0.0132
      5  CAE       -1.3110   -1.4800  -27.9340 C.ar   94  SGE94       0.0166
      6  CAF       -3.2370    1.9580  -27.6840 C.ar   94  SGE94       0.0019
      7  CAG       -4.5870   -0.0630  -28.1890 C.3    94  SGE94       0.1209
      8  CAH       -5.6360    2.3120  -28.3970 C.ar   94  SGE94       0.1740
      9  CAI       -1.4990   -2.6950  -28.6660 C.ar   94  SGE94       0.0414
     10  CAJ       -0.1740   -1.1850  -27.0620 C.ar   94  SGE94       0.0044
     11  CAK       -0.4780   -3.6530  -28.3460 C.ar   94  SGE94       0.1765
     12  CAL        0.7020   -3.2930  -27.6120 C.ar   94  SGE94       0.1764
     13  CAM       -1.0680    1.0880  -26.6590 C.ar   94  SGE94       0.0012
     14  CAN        0.8700   -2.1060  -26.8940 C.ar   94  SGE94       0.0402
     15  CAO       -3.1130    3.3610  -27.4950 C.ar   94  SGE94       0.0031
     16  CAP       -5.4290    3.7370  -28.1830 C.ar   94  SGE94       0.1762
     17  OAQ       -6.9570    2.1430  -28.8260 O.3    94  SGE94      -0.4349
     18  OAR       -0.3090   -4.9070  -28.9720 O.3    94  SGE94      -0.4346
     19  OAS        1.4730   -4.4160  -27.5690 O.3    94  SGE94      -0.4346
     20  OAT       -6.6230    4.3420  -28.4900 O.3    94  SGE94      -0.4346
     21  CAU       -7.6730    3.3890  -28.7640 C.3    94  SGE94       0.4294
     22  CAV        0.9720   -5.4320  -28.5070 C.3    94  SGE94       0.4294
     23  CAW       -0.0980    0.0890  -26.4900 C.ar   94  SGE94       0.0002
     24  CAX       -4.2280    4.2250  -27.7390 C.ar   94  SGE94       0.0402
     25  CAY       -3.4160   -0.3630  -30.3500 C.3    94  SGE94       0.1125
@<TRIPOS>BOND
     1    25     1    1
     2    18    22    1
     3    18    11    1
     4     1     3    1
     5     1     7    1
     6    17    21    1
     7    17     8    1
     8    21    20    1
     9     9    11   ar
    10     9     5   ar
    11    22    19    1
    12    20    16    1
    13     8     2   ar
    14     8    16   ar
    15    11    12   ar
    16     2     7    1
    17     2     6   ar
    18     3     5   ar
    19     3     4   ar
    20    16    24   ar
    21     5    10   ar
    22    24    15   ar
    23     6    15   ar
    24     6     4    1
    25    12    19    1
    26    12    14   ar
    27     4    13   ar
    28    10    14   ar
    29    10    23   ar
    30    13    23   ar
