@<TRIPOS>MOLECULE
3llf_UP6_A_1.pdb
 21 22 0 0 0
SMALL
GASTEIGER

@<TRIPOS>ATOM
      1  N1         9.2450    2.9900    1.8970 N.am  229  UP6229     -0.0968
      2  C2         8.1820    3.4370    2.6980 C.1   229  UP6229      0.3005
      3  N3         7.5210    4.5440    2.1810 N.2   229  UP6229     -0.2426
      4  C4         7.8320    5.2030    0.9780 C.1   229  UP6229      0.2380
      5  C5         8.9260    4.6720    0.2270 C.2   229  UP6229      0.2253
      6  N6         9.5880    3.6160    0.6840 N.2   229  UP6229     -0.1496
      7  O2         7.8710    2.9190    3.7280 O.2   229  UP6229     -0.1905
      8  O4         7.1700    6.1570    0.6570 O.2   229  UP6229     -0.2069
      9  C1'       10.0720    1.8540    2.2510 C.3   229  UP6229      0.2577
     10  C2'       10.7150    1.6760    3.6360 C.3   229  UP6229      0.2334
     11  C3'       10.8470    0.1770    3.7240 C.3   229  UP6229      0.2159
     12  C4'        9.5930   -0.3170    2.9990 C.3   229  UP6229      0.1801
     13  O2'       11.9960    2.3250    3.7200 O.3   229  UP6229     -0.2157
     14  O3'       12.0030   -0.2640    3.0260 O.3   229  UP6229     -0.2175
     15  O4'        9.3810    0.6420    1.9510 O.3   229  UP6229     -0.3309
     16  C5'        8.3220   -0.4670    3.8270 C.3   229  UP6229      0.1859
     17  O5'        8.6480   -1.4430    4.8130 O.3   229  UP6229     -0.2675
     18  P          7.5910   -1.9370    5.9380 P.3   229  UP6229      0.5327
     19  O1P        6.9220   -0.7520    6.5910 O.3   229  UP6229     -0.1145
     20  O2P        8.4590   -2.7390    6.8600 O.3   229  UP6229     -0.1145
     21  O3P        6.5740   -2.9170    5.2150 O.2   229  UP6229     -0.2224
@<TRIPOS>BOND
     1     5     6    2
     2     5     4    1
     3     8     4    2
     4     6     1    1
     5     4     3    2
     6     1     9    1
     7     1     2   am
     8    15     9    1
     9    15    12    1
    10     3     2    2
    11     9    10    1
    12     2     7    2
    13    12    11    1
    14    12    16    1
    15    14    11    1
    16    10    13    1
    17    10    11    1
    18    16    17    1
    19    17    18    1
    20    21    18    2
    21    18    19    1
    22    18    20    1
