@<TRIPOS>MOLECULE
3llm_ADP_A_1.pdb
 27 29 0 0 0
SMALL
GASTEIGER

@<TRIPOS>ATOM
      1  PB        78.0760    7.5400   -1.9090 P.3   565  ADP565      0.5373
      2  O1B       78.0920    9.0020   -2.2510 O.2   565  ADP565     -0.2221
      3  O2B       79.0340    7.1640   -0.8240 O.3   565  ADP565     -0.1143
      4  O3B       76.6860    6.9850   -1.6990 O.3   565  ADP565     -0.1143
      5  PA        77.9650    6.0370   -4.2720 P.3   565  ADP565      0.2231
      6  O1A       76.7740    6.8690   -4.6350 O.2   565  ADP565     -0.5169
      7  O2A       77.8480    4.6100   -3.8320 O.3   565  ADP565     -0.4370
      8  O3A       78.7920    6.7860   -3.1280 O.3   565  ADP565     -0.2261
      9  O5'       78.9300    6.0510   -5.5460 O.3   565  ADP565     -0.3111
     10  C5'       80.3160    5.7990   -5.3030 C.3   565  ADP565      0.1813
     11  C4'       81.2150    5.8150   -6.5450 C.3   565  ADP565      0.1821
     12  O4'       80.8760    4.7840   -7.4840 O.3   565  ADP565     -0.3135
     13  C3'       81.2090    7.1340   -7.3090 C.3   565  ADP565      0.2184
     14  O3'       82.1830    8.0630   -6.8130 O.3   565  ADP565     -0.2174
     15  C2'       81.5360    6.6940   -8.7150 C.3   565  ADP565      0.2570
     16  O2'       82.9560    6.7430   -8.9170 O.3   565  ADP565     -0.2130
     17  C1'       80.9800    5.2710   -8.8200 C.3   565  ADP565      0.3186
     18  N9        79.6420    5.2860   -9.4870 N.pl3 565  ADP565     -0.1439
     19  C8        78.4560    5.4790   -8.8960 C.3   565  ADP565      0.3377
     20  N7        77.4500    5.4510   -9.8040 N.2   565  ADP565     -0.2095
     21  C5        77.9920    5.2400  -11.0040 C.2   565  ADP565      0.2526
     22  C6        77.4860    5.0950  -12.3880 C.2   565  ADP565      0.4393
     23  N6        76.1500    5.1820  -12.6320 N.pl3 565  ADP565      0.2180
     24  N1        78.3810    4.8820  -13.3880 N.2   565  ADP565      0.0021
     25  C2        79.7050    4.8040  -13.1280 C.3   565  ADP565      0.5254
     26  N3        80.2260    4.9300  -11.8820 N.2   565  ADP565     -0.0055
     27  C4        79.4340    5.1380  -10.7960 C.2   565  ADP565      0.3518
@<TRIPOS>BOND
     1    24    25    1
     2    24    22    2
     3    25    26    1
     4    23    22    1
     5    22    21    1
     6    26    27    2
     7    21    27    1
     8    21    20    2
     9    27    18    1
    10    20    19    1
    11    18    19    1
    12    18    17    1
    13    16    15    1
    14    17    15    1
    15    17    12    1
    16    15    13    1
    17    12    11    1
    18    13    14    1
    19    13    11    1
    20    11    10    1
    21     9    10    1
    22     9     5    1
    23     6     5    2
    24     5     7    1
    25     5     8    1
    26     8     1    1
    27     2     1    2
    28     1     4    1
    29     1     3    1
