@<TRIPOS>MOLECULE
3llt_ANP_A_1.pdb
 31 33 0 0 0
SMALL
GASTEIGER

@<TRIPOS>ATOM
      1  PG        52.5840  -33.7640    4.5670 P.3   877  ANP877      0.4884
      2  O1G       51.2870  -34.3070    5.1120 O.3   877  ANP877     -0.1240
      3  O2G       52.5420  -33.5020    3.0800 O.2   877  ANP877     -0.2331
      4  O3G       53.8080  -34.5320    5.0050 O.3   877  ANP877     -0.1240
      5  PB        54.1650  -31.2060    5.0240 P.3   877  ANP877      0.4669
      6  O1B       54.6650  -31.5220    3.6360 O.2   877  ANP877     -0.2351
      7  O2B       53.8060  -29.7750    5.3410 O.3   877  ANP877     -0.1253
      8  N3B       52.7530  -32.1940    5.3280 N.3   877  ANP877     -0.0163
      9  PA        55.2500  -32.2150    7.4880 P.3   877  ANP877      0.2220
     10  O1A       54.9880  -31.0880    8.4610 O.3   877  ANP877     -0.4370
     11  O2A       54.3520  -33.4280    7.4700 O.2   877  ANP877     -0.5170
     12  O3A       55.3850  -31.6090    5.9980 O.3   877  ANP877     -0.2360
     13  O5'       56.7460  -32.7610    7.7030 O.3   877  ANP877     -0.3111
     14  C5'       57.3710  -33.4600    6.6280 C.3   877  ANP877      0.1813
     15  C4'       58.3870  -34.4620    7.1460 C.3   877  ANP877      0.1821
     16  O4'       59.5000  -33.7710    7.7170 O.3   877  ANP877     -0.3135
     17  C3'       57.8380  -35.3590    8.2440 C.3   877  ANP877      0.2184
     18  O3'       57.2600  -36.5560    7.7130 O.3   877  ANP877     -0.2174
     19  C2'       59.0450  -35.6260    9.1220 C.3   877  ANP877      0.2570
     20  O2'       59.7580  -36.7710    8.6480 O.3   877  ANP877     -0.2130
     21  C1'       59.9130  -34.3890    8.9400 C.3   877  ANP877      0.3186
     22  N9        59.7190  -33.4430   10.0700 N.pl3 877  ANP877     -0.1439
     23  C8        58.6950  -32.5780   10.2170 C.3   877  ANP877      0.3377
     24  N7        58.8200  -31.8550   11.3570 N.2   877  ANP877     -0.2095
     25  C5        59.9490  -32.2560   11.9660 C.2   877  ANP877      0.2526
     26  C6        60.6760  -31.9030   13.2120 C.2   877  ANP877      0.4393
     27  N6        60.2030  -30.9530   14.0530 N.pl3 877  ANP877      0.2180
     28  N1        61.8290  -32.5610   13.4800 N.2   877  ANP877      0.0021
     29  C2        62.3120  -33.5120   12.6520 C.3   877  ANP877      0.5254
     30  N3        61.7050  -33.8800   11.5050 N.2   877  ANP877     -0.0055
     31  C4        60.5390  -33.3010   11.1130 C.2   877  ANP877      0.3518
@<TRIPOS>BOND
     1     3     1    2
     2     6     5    2
     3     1     4    1
     4     1     2    1
     5     1     8    1
     6     5     8    1
     7     5     7    1
     8     5    12    1
     9    12     9    1
    10    14    15    1
    11    14    13    1
    12    15    16    1
    13    15    17    1
    14    11     9    2
    15     9    13    1
    16     9    10    1
    17    18    17    1
    18    16    21    1
    19    17    19    1
    20    20    19    1
    21    21    19    1
    22    21    22    1
    23    22    23    1
    24    22    31    1
    25    23    24    1
    26    31    30    2
    27    31    25    1
    28    24    25    2
    29    30    29    1
    30    25    26    1
    31    29    28    1
    32    26    28    2
    33    26    27    1
