@<TRIPOS>MOLECULE
3llu_GNP_A_1.pdb
 32 34 0 0 0
SMALL
GASTEIGER

@<TRIPOS>ATOM
      1  PG        36.9240   10.4530   31.0730 P.3   501  GNP501      0.4884
      2  O1G       35.7340    9.5660   30.7770 O.2   501  GNP501     -0.2331
      3  O2G       36.7230   11.3300   32.2920 O.3   501  GNP501     -0.1240
      4  O3G       38.2290    9.7020   31.1140 O.3   501  GNP501     -0.1240
      5  N3B       37.0560   11.4730   29.7600 N.3   501  GNP501     -0.0163
      6  PB        35.9220   12.6030   29.3070 P.3   501  GNP501      0.4669
      7  O1B       35.4670   13.3520   30.5030 O.3   501  GNP501     -0.1253
      8  O2B       34.8540   11.9920   28.4550 O.2   501  GNP501     -0.2351
      9  O3A       36.7420   13.5860   28.3330 O.3   501  GNP501     -0.2360
     10  PA        37.3950   14.9880   28.6670 P.3   501  GNP501      0.2220
     11  O1A       36.3130   15.9960   28.8810 O.2   501  GNP501     -0.5170
     12  O2A       38.4060   14.8040   29.7020 O.3   501  GNP501     -0.4370
     13  O5'       38.0180   15.3860   27.2840 O.3   501  GNP501     -0.3111
     14  C5'       38.9760   14.5900   26.6000 C.3   501  GNP501      0.1813
     15  C4'       39.6480   15.4290   25.5080 C.3   501  GNP501      0.1799
     16  O4'       38.6790   15.7780   24.4540 O.3   501  GNP501     -0.3326
     17  C3'       40.2700   16.7420   25.9730 C.3   501  GNP501      0.2158
     18  O3'       41.5680   16.9220   25.4130 O.3   501  GNP501     -0.2175
     19  C2'       39.3000   17.7900   25.4510 C.3   501  GNP501      0.2310
     20  O2'       39.8710   19.0760   25.2300 O.3   501  GNP501     -0.2158
     21  C1'       38.8250   17.1490   24.1770 C.3   501  GNP501      0.2293
     22  N9        37.5560   17.6560   23.7310 N.pl3 501  GNP501     -0.2354
     23  C8        36.3900   17.6850   24.4510 C.3   501  GNP501      0.2246
     24  N7        35.4040   18.1470   23.7330 N.2   501  GNP501     -0.2322
     25  C5        35.9250   18.4480   22.4820 C.2   501  GNP501      0.2182
     26  C6        35.3620   19.0230   21.3020 C.1   501  GNP501      0.2372
     27  O6        34.1770   19.3770   21.0940 O.2   501  GNP501     -0.2069
     28  N1        36.3200   19.1220   20.2810 N.2   501  GNP501     -0.2485
     29  C2        37.6330   18.7790   20.3710 C.1   501  GNP501      0.2531
     30  N2        38.3470   18.9360   19.2500 N.pl3 501  GNP501     -0.0226
     31  N3        38.1580   18.2490   21.4530 N.2   501  GNP501     -0.3074
     32  C4        37.2780   18.1570   22.4830 C.2   501  GNP501      0.2300
@<TRIPOS>BOND
     1    30    29    1
     2    28    29    2
     3    28    26    2
     4    29    31    2
     5    27    26    2
     6    26    25    1
     7    31    32    2
     8    25    32    1
     9    25    24    2
    10    32    22    1
    11    22    21    1
    12    22    23    1
    13    24    23    1
    14    21    16    1
    15    21    19    1
    16    16    15    1
    17    20    19    1
    18    18    17    1
    19    19    17    1
    20    15    17    1
    21    15    14    1
    22    14    13    1
    23    13    10    1
    24     9    10    1
    25     9     6    1
    26     8     6    2
    27    10    11    2
    28    10    12    1
    29     6     5    1
    30     6     7    1
    31     5     1    1
    32     2     1    2
    33     1     4    1
    34     1     3    1
