@<TRIPOS>MOLECULE
3llz_NGA_A_1.pdb
 15 15 0 0 0
SMALL
GASTEIGER

@<TRIPOS>ATOM
      1  C1        13.0440   26.7260   20.4030 C.3   135  NGA135      0.2917
      2  C2        13.8180   25.5910   19.7090 C.3   135  NGA135      0.1871
      3  C3        14.0060   25.9800   18.2470 C.3   135  NGA135      0.2095
      4  C4        12.6250   26.1620   17.6020 C.3   135  NGA135      0.2136
      5  C5        11.8890   27.2790   18.3660 C.3   135  NGA135      0.1835
      6  C6        10.4920   27.6020   17.8440 C.3   135  NGA135      0.2142
      7  C7        15.4970   24.1740   20.6900 C.2   135  NGA135      0.2421
      8  C8        16.8110   24.0510   21.4410 C.3   135  NGA135      0.0964
      9  N2        15.1030   25.3980   20.3520 N.am  135  NGA135     -0.1991
     10  O1        12.8160   26.3980   21.7260 O.3   135  NGA135     -0.1879
     11  O3        14.8310   25.0250   17.5230 O.3   135  NGA135     -0.2183
     12  O4        11.8880   24.9490   17.6940 O.3   135  NGA135     -0.2176
     13  O5        11.7660   26.9350   19.7700 O.3   135  NGA135     -0.3242
     14  O6         9.5450   26.5910   18.1740 O.3   135  NGA135     -0.2176
     15  O7        14.8490   23.1640   20.4180 O.2   135  NGA135     -0.2733
@<TRIPOS>BOND
     1    11     3    1
     2     4    12    1
     3     4     3    1
     4     4     5    1
     5     6    14    1
     6     6     5    1
     7     3     2    1
     8     5    13    1
     9     2     9    1
    10     2     1    1
    11    13     1    1
    12     9     7   am
    13     1    10    1
    14    15     7    2
    15     7     8    1
