@<TRIPOS>MOLECULE
3llz_GAL_A_1.pdb
 11 11 0 0 0
SMALL
GASTEIGER

@<TRIPOS>ATOM
      1  C1        15.8860   25.6780   16.8860 C.3   134  GAL134      0.1777
      2  C2        16.4270   24.2340   16.7480 C.3   134  GAL134      0.2141
      3  C3        17.5520   24.1800   15.7080 C.3   134  GAL134      0.2173
      4  C4        17.1700   24.8980   14.3980 C.3   134  GAL134      0.2142
      5  C5        16.5190   26.2620   14.6770 C.3   134  GAL134      0.1810
      6  C6        15.9530   26.9140   13.4310 C.3   134  GAL134      0.2141
      7  O2        16.9270   23.7730   17.9960 O.3   134  GAL134     -0.2176
      8  O3        17.9130   22.8370   15.4240 O.3   134  GAL134     -0.2175
      9  O4        16.2800   24.0930   13.6420 O.3   134  GAL134     -0.2176
     10  O5        15.4290   26.1120   15.6060 O.3   134  GAL134     -0.3481
     11  O6        16.9370   27.7010   12.7780 O.3   134  GAL134     -0.2176
@<TRIPOS>BOND
     1    11     6    1
     2     6     5    1
     3     9     4    1
     4     4     5    1
     5     4     3    1
     6     5    10    1
     7     8     3    1
     8    10     1    1
     9     3     2    1
    10     2     1    1
    11     2     7    1
