@<TRIPOS>MOLECULE
3lm0_EBD_A_1.pdb
 26 29 0 0 0
SMALL
GASTEIGER

@<TRIPOS>ATOM
      1  N1        25.2500   39.6420    3.1250 N.2     1  EBD1       -0.1685
      2  C2        23.9330   39.3500    2.9980 C.1     1  EBD1        0.1730
      3  N3        23.0450   40.0570    3.7290 N.2     1  EBD1       -0.2931
      4  C4        23.4340   41.0320    4.6090 C.2     1  EBD1        0.3230
      5  C5        24.8220   41.3110    4.7300 C.2     1  EBD1        0.0714
      6  C6        25.7190   40.5870    3.9350 C.2     1  EBD1        0.1137
      7  NAG       22.5030   41.7030    5.3040 N.pl3   1  EBD1        0.0260
      8  CAH       21.1430   41.5070    5.1960 C.2     1  EBD1        0.3771
      9  NAI       23.5890   38.3560    2.1240 N.pl3   1  EBD1       -0.1357
     10  CAJ       22.3770   38.0110    1.6460 C.ar    1  EBD1        0.0826
     11  CAK       22.0470   36.6470    1.5980 C.ar    1  EBD1        0.0171
     12  CAL       20.8200   36.1700    1.0950 C.ar    1  EBD1       -0.0019
     13  CAM       19.8740   37.1020    0.6380 C.ar    1  EBD1       -0.0070
     14  CAN       20.2190   38.4660    0.6570 C.ar    1  EBD1       -0.0019
     15  CAO       21.4490   38.9260    1.1460 C.ar    1  EBD1        0.0171
     16  NAP       20.3240   41.9680    6.1440 N.2     1  EBD1        0.0793
     17  NAQ       19.1260   41.7030    5.9140 N.2     1  EBD1       -0.0426
     18  CAR       19.0820   41.0420    4.7550 C.2     1  EBD1        0.0951
     19  CAS       20.3580   40.9100    4.2520 C.3     1  EBD1        0.1690
     20  CAT       17.7390   40.5640    4.1530 C.3     1  EBD1        0.0406
     21  CAU       17.6200   39.1380    3.5860 C.3     1  EBD1        0.0061
     22  CAV       18.5160   36.6130    0.0540 C.3     1  EBD1        0.1316
     23  CAW       17.8030   40.2970    2.6350 C.3     1  EBD1        0.0061
     24  CAX       25.4310   42.3770    5.6420 C.3     1  EBD1        0.0394
     25  CAY       17.3520   37.3850    0.4900 C.1     1  EBD1        0.0780
     26  NAZ       16.4400   37.9660    0.8770 N.1     1  EBD1       -0.1955
@<TRIPOS>BOND
     1    22    25    1
     2    22    13    1
     3    25    26    3
     4    13    14   ar
     5    13    12   ar
     6    14    15   ar
     7    12    11   ar
     8    15    10   ar
     9    11    10   ar
    10    10     9    1
    11     9     2    1
    12    23    21    1
    13    23    20    1
    14     2     1    2
    15     2     3    2
    16     1     6    1
    17    21    20    1
    18     3     4    2
    19     6     5    2
    20    20    18    1
    21    19    18    1
    22    19     8    1
    23     4     5    1
    24     4     7    1
    25     5    24    1
    26    18    17    2
    27     8     7    1
    28     8    16    2
    29    17    16    1
