@<TRIPOS>MOLECULE
3lm1_LEC_A_1.pdb
 24 25 0 0 0
SMALL
GASTEIGER

@<TRIPOS>ATOM
      1  C8        30.2490  127.3070   16.2510 C.3   134  LEC134      0.0964
      2  C7        29.6740  128.7160   16.3010 C.2   134  LEC134      0.2421
      3  O7        30.4320  129.6900   16.1530 O.2   134  LEC134     -0.2733
      4  N2        28.3540  128.8840   16.5050 N.am  134  LEC134     -0.1979
      5  C2        27.7340  130.2050   16.5670 C.3   134  LEC134      0.1978
      6  C3        27.3480  130.5900   18.0240 C.3   134  LEC134      0.2107
      7  O3        28.5150  130.5730   18.8630 O.3   134  LEC134     -0.2182
      8  C4        26.7010  131.9900   18.0300 C.3   134  LEC134      0.2137
      9  O4        27.6740  132.9150   17.5380 O.3   134  LEC134     -0.2176
     10  C5        25.4420  131.9770   17.1150 C.3   134  LEC134      0.1845
     11  C6        24.7440  133.3600   17.0830 C.3   134  LEC134      0.2142
     12  O6        25.4210  134.2650   16.2240 O.3   134  LEC134     -0.2176
     13  O5        25.8210  131.5710   15.7490 O.3   134  LEC134     -0.3163
     14  C1        26.4800  130.2440   15.6770 C.3   134  LEC134      0.3109
     15  O1        25.5480  129.2440   16.0880 O.3   134  LEC134     -0.4510
     16  C1'       24.3400  128.7960   15.4740 C.ar  134  LEC134      0.1415
     17  C2'       24.2290  127.4540   15.0140 C.ar  134  LEC134      0.0387
     18  C3'       23.0300  127.0180   14.4040 C.ar  134  LEC134      0.0272
     19  C4'       21.9210  127.9180   14.2500 C.ar  134  LEC134      0.1431
     20  N1'       20.7350  127.4870   13.6420 N.pl3 134  LEC134      0.0577
     21  O2'       19.7640  128.2750   13.5030 O.2   134  LEC134     -0.1261
     22  O1'       20.6340  126.3150   13.2240 O.2   134  LEC134     -0.1261
     23  C5'       22.0350  129.2560   14.7120 C.ar  134  LEC134      0.0272
     24  C6'       23.2390  129.6970   15.3230 C.ar  134  LEC134      0.0387
@<TRIPOS>BOND
     1    22    20    2
     2    21    20    2
     3    20    19    1
     4    19    18   ar
     5    19    23   ar
     6    18    17   ar
     7    23    24   ar
     8    17    16   ar
     9    24    16   ar
    10    16    15    1
    11    14    13    1
    12    14    15    1
    13    14     5    1
    14    13    10    1
    15     3     2    2
    16    12    11    1
    17     1     2    1
    18     2     4   am
    19     4     5    1
    20     5     6    1
    21    11    10    1
    22    10     8    1
    23     9     8    1
    24     6     8    1
    25     6     7    1
