@<TRIPOS>MOLECULE
3lm4_HPX_A_1.pdb
 16 16 0 0 0
SMALL
GASTEIGER

@<TRIPOS>ATOM
      1  CB3       45.6140   18.8290   41.7250 C.ar  406  HPX406      0.0001
      2  CB4       46.2640   17.7140   42.3560 C.ar  406  HPX406      0.0000
      3  CB5       45.4680   16.7690   43.0970 C.ar  406  HPX406      0.0001
      4  CB6       44.0060   16.9410   43.2030 C.ar  406  HPX406      0.0029
      5  CB1       43.3500   18.0700   42.5630 C.ar  406  HPX406      0.0350
      6  CB2       44.1710   19.0070   41.8240 C.ar  406  HPX406      0.0029
      7  CA6       41.7630   18.2250   42.6910 C.2   406  HPX406      0.1774
      8  OA4       41.1240   17.3780   43.3390 O.2   406  HPX406     -0.2910
      9  CA5       41.1070   19.3220   42.0570 C.3   406  HPX406      0.0952
     10  CA4       39.9440   19.9570   42.6260 C.2   406  HPX406     -0.0145
     11  CA3       39.3950   21.0250   41.8850 C.2   406  HPX406      0.0449
     12  CA2       38.2560   21.7620   42.2920 C.2   406  HPX406      0.2744
     13  OA3       37.0910   21.2560   42.1970 O.2   406  HPX406     -0.2795
     14  CA1       38.4250   23.1160   42.8220 C.2   406  HPX406      0.4260
     15  OA2       37.3850   23.7340   43.1700 O.co2 406  HPX406     -0.2369
     16  OA1       39.5910   23.6180   42.9140 O.co2 406  HPX406     -0.2369
@<TRIPOS>BOND
     1     1     6   ar
     2     1     2   ar
     3     6     5   ar
     4    11    12    1
     5    11    10    2
     6     9    10    1
     7     9     7    1
     8    13    12    2
     9    12    14    1
    10     2     3   ar
    11     5     7    1
    12     5     4   ar
    13     7     8    2
    14    14    16   ar
    15    14    15   ar
    16     3     4   ar
