@<TRIPOS>MOLECULE
3lm5_QUE_A_1.pdb
 22 24 0 0 0
SMALL
GASTEIGER

@<TRIPOS>ATOM
      1  C1        21.5510    0.2200    4.7040 C.ar    1  QUE1        0.0843
      2  C2        21.5880    0.9480    3.5280 C.ar    1  QUE1        0.2050
      3  C3        22.7300    1.6580    3.1220 C.ar    1  QUE1        0.1158
      4  C4        23.8630    1.6370    3.9210 C.ar    1  QUE1        0.1549
      5  C5        23.8370    0.9140    5.1060 C.ar    1  QUE1        0.0798
      6  C6        22.6940    0.1990    5.4840 C.ar    1  QUE1        0.2020
      7  C9        22.7580    2.3940    1.9280 C.ar    1  QUE1        0.2433
      8  C10       23.9200    3.0730    1.5440 C.ar    1  QUE1        0.2685
      9  C11       25.0490    3.0290    2.4070 C.ar    1  QUE1        0.1872
     10  C14       26.2670    3.6870    2.1430 C.ar    1  QUE1        0.0413
     11  C15       27.1110    4.0460    3.1880 C.ar    1  QUE1        0.0066
     12  C16       28.3260    4.7000    2.9680 C.ar    1  QUE1        0.0455
     13  C17       28.7420    5.0170    1.7040 C.ar    1  QUE1        0.2343
     14  C18       27.9160    4.6410    0.6460 C.ar    1  QUE1        0.2344
     15  C19       26.7060    3.9920    0.8660 C.ar    1  QUE1        0.0485
     16  O12       25.0030    2.3250    3.5800 O.2     1  QUE1       -0.4498
     17  O13       21.7660    2.3890    1.1890 O.2     1  QUE1       -0.2828
     18  O23       28.2730    4.9060   -0.6240 O.3     1  QUE1       -0.2831
     19  O24       29.9370    5.6920    1.5040 O.3     1  QUE1       -0.2831
     20  O27       23.9280    3.7460    0.3300 O.3     1  QUE1       -0.2798
     21  O29       22.6890   -0.5110    6.6430 O.3     1  QUE1       -0.2864
     22  O30       20.4750    0.9640    2.7990 O.3     1  QUE1       -0.2862
@<TRIPOS>BOND
     1    18    14    1
     2    20     8    1
     3    14    15   ar
     4    14    13   ar
     5    15    10   ar
     6    17     7    2
     7    19    13    1
     8     8     7   ar
     9     8     9   ar
    10    13    12   ar
    11     7     3   ar
    12    10     9    1
    13    10    11   ar
    14     9    16   ar
    15    22     2    1
    16    12    11   ar
    17     3     2   ar
    18     3     4   ar
    19     2     1   ar
    20    16     4   ar
    21     4     5   ar
    22     1     6   ar
    23     5     6   ar
    24     6    21    1
