@<TRIPOS>MOLECULE
3lm8_VIB_A_1.pdb
 18 19 0 0 0
SMALL
GASTEIGER

@<TRIPOS>ATOM
      1  CM2        6.4630    8.5640   20.0010 C.3   223  VIB223      0.1291
      2  N4A        5.4660    6.1210   24.0100 N.pl3 223  VIB223     -0.0925
      3  CM4        1.2770    2.6260   23.3250 C.3   223  VIB223      0.0473
      4  O1         2.9330   -0.1260   25.4740 O.3   223  VIB223     -0.2200
      5  C7         3.1610   -0.9490   24.3260 C.3   223  VIB223      0.1873
      6  C6         2.6440   -0.2290   23.0800 C.3   223  VIB223      0.0691
      7  C2         4.8930    3.1010   22.6300 C.3   223  VIB223      0.1543
      8  S1         5.0300    1.3620   22.7040 S.3   223  VIB223     -0.0951
      9  C5         3.3190    1.1370   22.9510 C.2   223  VIB223      0.0165
     10  C4         2.7620    2.4090   23.0230 C.2   223  VIB223      0.0279
     11  N3         3.6150    3.4210   22.8450 N.pl3 223  VIB223     -0.2970
     12  C7A        3.1490    4.8140   22.8900 C.3   223  VIB223      0.1237
     13  C4A        5.1740    6.3880   22.7400 C.2   223  VIB223      0.2292
     14  N3A        5.9070    7.2710   22.0460 N.2   223  VIB223     -0.3368
     15  C2A        5.6170    7.5440   20.7660 C.1   223  VIB223      0.0663
     16  N1A        4.5880    6.9340   20.1600 N.2   223  VIB223     -0.1861
     17  C6A        3.8380    6.0580   20.8060 C.2   223  VIB223      0.1115
     18  C5A        4.0990    5.7480   22.1360 C.2   223  VIB223      0.0654
@<TRIPOS>BOND
     1     1    15    1
     2    16    15    2
     3    16    17    1
     4    15    14    2
     5    17    18    2
     6    14    13    2
     7    18    13    1
     8    18    12    1
     9     7     8    1
    10     7    11    1
    11     8     9    1
    12    13     2    1
    13    11    12    1
    14    11    10    1
    15     9    10    2
    16     9     6    1
    17    10     3    1
    18     6     5    1
    19     5     4    1
