@<TRIPOS>MOLECULE
3lm9_FRU_A_1.pdb
 12 12 0 0 0
SMALL
GASTEIGER

@<TRIPOS>ATOM
      1  C1        39.7720  -37.4670  -27.2930 C.3   1001  FRU1001     0.2434
      2  C2        40.8720  -37.9960  -26.4030 C.3   1001  FRU1001     0.2807
      3  C3        40.6970  -39.5410  -26.3070 C.3   1001  FRU1001     0.2409
      4  C4        41.3960  -39.7200  -24.9650 C.3   1001  FRU1001     0.2168
      5  C5        40.8750  -38.5110  -24.1230 C.3   1001  FRU1001     0.1836
      6  C6        41.7510  -38.1030  -22.9240 C.3   1001  FRU1001     0.2142
      7  O1        38.7750  -36.8670  -26.4850 O.3   1001  FRU1001    -0.2148
      8  O2        42.2150  -37.7000  -26.9420 O.3   1001  FRU1001    -0.1896
      9  O3        41.2870  -40.3610  -27.3700 O.3   1001  FRU1001    -0.2149
     10  O4        41.2330  -41.0310  -24.4440 O.3   1001  FRU1001    -0.2175
     11  O5        40.7720  -37.4110  -25.0500 O.3   1001  FRU1001    -0.3253
     12  O6        43.1580  -38.3060  -23.2130 O.3   1001  FRU1001    -0.2176
@<TRIPOS>BOND
     1     9     3    1
     2     1     7    1
     3     1     2    1
     4     8     2    1
     5     2     3    1
     6     2    11    1
     7     3     4    1
     8    11     5    1
     9     4    10    1
    10     4     5    1
    11     5     6    1
    12    12     6    1
