@<TRIPOS>MOLECULE
3lm9_ADP_A_1.pdb
 27 29 0 0 0
SMALL
GASTEIGER

@<TRIPOS>ATOM
      1  PB        45.7320  -33.9400  -19.4020 P.3   3001  ADP3001     0.5373
      2  O1B       44.2500  -34.2180  -19.6770 O.3   3001  ADP3001    -0.1143
      3  O2B       46.2620  -32.6150  -20.0160 O.2   3001  ADP3001    -0.2221
      4  O3B       46.7040  -35.0940  -19.7130 O.3   3001  ADP3001    -0.1143
      5  PA        44.7420  -33.8190  -16.5970 P.3   3001  ADP3001     0.2231
      6  O1A       45.4050  -33.2330  -15.3590 O.3   3001  ADP3001    -0.4370
      7  O2A       44.2170  -35.2450  -16.4820 O.2   3001  ADP3001    -0.5169
      8  O3A       45.8220  -33.7240  -17.7900 O.3   3001  ADP3001    -0.2261
      9  O5'       43.6740  -32.6800  -17.0210 O.3   3001  ADP3001    -0.3111
     10  C5'       43.9110  -31.2670  -16.9080 C.3   3001  ADP3001     0.1813
     11  C4'       42.6290  -30.4120  -16.7300 C.3   3001  ADP3001     0.1821
     12  O4'       42.1460  -30.5970  -15.3860 O.3   3001  ADP3001    -0.3135
     13  C3'       42.8570  -28.8780  -16.9560 C.3   3001  ADP3001     0.2184
     14  O3'       41.8360  -28.1920  -17.7090 O.3   3001  ADP3001    -0.2174
     15  C2'       42.9670  -28.2900  -15.5410 C.3   3001  ADP3001     0.2570
     16  O2'       42.3920  -26.9870  -15.3430 O.3   3001  ADP3001    -0.2130
     17  C1'       42.2490  -29.3360  -14.6610 C.3   3001  ADP3001     0.3186
     18  N9        42.9690  -29.5830  -13.3830 N.pl3 3001  ADP3001    -0.1439
     19  C8        44.2790  -29.9090  -13.1800 C.3   3001  ADP3001     0.3377
     20  N7        44.5180  -30.0960  -11.8600 N.2   3001  ADP3001    -0.2095
     21  C5        43.3430  -29.8800  -11.2320 C.2   3001  ADP3001     0.2526
     22  C6        42.8440  -29.9030   -9.8410 C.2   3001  ADP3001     0.4393
     23  N6        43.7080  -30.1930   -8.8410 N.pl3 3001  ADP3001     0.2180
     24  N1        41.5220  -29.6290   -9.6070 N.2   3001  ADP3001     0.0021
     25  C2        40.6510  -29.3370  -10.6140 C.3   3001  ADP3001     0.5254
     26  N3        41.0440  -29.2910  -11.8950 N.2   3001  ADP3001    -0.0055
     27  C4        42.3330  -29.5430  -12.2370 C.2   3001  ADP3001     0.3518
@<TRIPOS>BOND
     1     3     1    2
     2     4     1    1
     3     2     1    1
     4     1     8    1
     5     8     5    1
     6    14    13    1
     7     9    10    1
     8     9     5    1
     9    13    11    1
    10    13    15    1
    11    10    11    1
    12    11    12    1
    13     5     7    2
    14     5     6    1
    15    15    16    1
    16    15    17    1
    17    12    17    1
    18    17    18    1
    19    18    19    1
    20    18    27    1
    21    19    20    1
    22    27    26    2
    23    27    21    1
    24    26    25    1
    25    20    21    2
    26    21    22    1
    27    25    24    1
    28    22    24    2
    29    22    23    1
