@<TRIPOS>MOLECULE
3lmg_ANP_A_1.pdb
 31 33 0 0 0
SMALL
GASTEIGER

@<TRIPOS>ATOM
      1  PG        13.9280  -26.0390   52.0730 P.3   301  ANP301      0.4884
      2  O1G       14.1310  -27.5140   52.3180 O.3   301  ANP301     -0.1240
      3  O2G       13.6770  -25.2380   53.3270 O.3   301  ANP301     -0.1240
      4  O3G       14.9620  -25.4340   51.1560 O.2   301  ANP301     -0.2331
      5  PB        12.2000  -26.9980   49.8360 P.3   301  ANP301      0.4669
      6  O1B       10.9160  -26.6130   49.1390 O.2   301  ANP301     -0.2351
      7  O2B       12.3460  -28.4230   50.3200 O.3   301  ANP301     -0.1253
      8  N3B       12.4240  -25.9270   51.1930 N.3   301  ANP301     -0.0163
      9  PA        14.5200  -27.7480   48.4150 P.3   301  ANP301      0.2220
     10  O1A       15.5990  -27.0120   47.6560 O.2   301  ANP301     -0.5170
     11  O2A       14.8820  -28.5530   49.6400 O.3   301  ANP301     -0.4370
     12  O3A       13.4050  -26.6640   48.8240 O.3   301  ANP301     -0.2360
     13  O5'       13.7340  -28.7190   47.3940 O.3   301  ANP301     -0.3111
     14  C5'       12.9680  -28.1910   46.3070 C.3   301  ANP301      0.1813
     15  C4'       11.9250  -29.2010   45.8290 C.3   301  ANP301      0.1821
     16  O4'       12.5190  -30.4740   45.5400 O.3   301  ANP301     -0.3135
     17  C3'       10.8380  -29.4390   46.8700 C.3   301  ANP301      0.2184
     18  O3'        9.5580  -29.3340   46.2280 O.3   301  ANP301     -0.2174
     19  C2'       11.0810  -30.8620   47.3410 C.3   301  ANP301      0.2570
     20  O2'        9.8780  -31.5420   47.7220 O.3   301  ANP301     -0.2130
     21  C1'       11.7380  -31.5120   46.1360 C.3   301  ANP301      0.3186
     22  N9        12.5860  -32.6660   46.5150 N.pl3 301  ANP301     -0.1439
     23  C8        13.6480  -32.6440   47.3450 C.3   301  ANP301      0.3377
     24  N7        14.2000  -33.8780   47.4690 N.2   301  ANP301     -0.2095
     25  C5        13.4820  -34.7130   46.6990 C.2   301  ANP301      0.2526
     26  C6        13.5160  -36.1560   46.3650 C.2   301  ANP301      0.4393
     27  N6        14.4600  -36.9670   46.8960 N.pl3 301  ANP301      0.2180
     28  N1        12.5780  -36.6350   45.5140 N.2   301  ANP301      0.0021
     29  C2        11.6310  -35.8390   44.9770 C.3   301  ANP301      0.5254
     30  N3        11.5410  -34.5210   45.2350 N.2   301  ANP301     -0.0055
     31  C4        12.4190  -33.9110   46.0710 C.2   301  ANP301      0.3518
@<TRIPOS>BOND
     1    29    30    1
     2    29    28    1
     3    30    31    2
     4    28    26    2
     5    16    15    1
     6    16    21    1
     7    15    14    1
     8    15    17    1
     9    31    22    1
    10    31    25    1
    11    21    22    1
    12    21    19    1
    13    18    17    1
    14    14    13    1
    15    26    25    1
    16    26    27    1
    17    22    23    1
    18    25    24    2
    19    17    19    1
    20    19    20    1
    21    23    24    1
    22    13     9    1
    23    10     9    2
    24     9    12    1
    25     9    11    1
    26    12     5    1
    27     6     5    2
    28     5     7    1
    29     5     8    1
    30     4     1    2
    31     8     1    1
    32     1     2    1
    33     1     3    1
