@<TRIPOS>MOLECULE
3lmh_ADP_A_1.pdb
 27 29 0 0 0
SMALL
GASTEIGER

@<TRIPOS>ATOM
      1  PB        14.1450  -19.4330    5.4390 P.3   1511  ADP1511     0.5373
      2  O1B       13.8010  -19.9000    6.8240 O.3   1511  ADP1511    -0.1143
      3  O2B       14.8950  -20.5000    4.6850 O.3   1511  ADP1511    -0.1143
      4  O3B       12.9900  -18.8500    4.6610 O.2   1511  ADP1511    -0.2221
      5  PA        14.9790  -16.6620    5.0220 P.3   1511  ADP1511     0.2231
      6  O1A       15.6310  -16.5790    3.6530 O.2   1511  ADP1511    -0.5169
      7  O2A       13.5050  -16.3290    5.1260 O.3   1511  ADP1511    -0.4370
      8  O3A       15.1880  -18.1710    5.6310 O.3   1511  ADP1511    -0.2261
      9  O5'       15.8290  -15.6050    5.9200 O.3   1511  ADP1511    -0.3111
     10  C5'       15.4380  -15.1650    7.2250 C.3   1511  ADP1511     0.1813
     11  C4'       15.3740  -13.6410    7.4090 C.3   1511  ADP1511     0.1821
     12  O4'       16.6260  -12.9640    7.2430 O.3   1511  ADP1511    -0.3135
     13  C3'       14.4220  -12.9210    6.4720 C.3   1511  ADP1511     0.2184
     14  O3'       13.0890  -12.9740    6.9690 O.3   1511  ADP1511    -0.2174
     15  C2'       14.9410  -11.4990    6.4920 C.3   1511  ADP1511     0.2570
     16  O2'       14.4420  -10.8710    7.6750 O.3   1511  ADP1511    -0.2130
     17  C1'       16.4370  -11.6550    6.6650 C.3   1511  ADP1511     0.3186
     18  N9        17.2360  -11.6130    5.4000 N.pl3 1511  ADP1511    -0.1439
     19  C8        17.2480  -12.5780    4.4510 C.3   1511  ADP1511     0.3377
     20  N7        18.1020  -12.2790    3.4360 N.2   1511  ADP1511    -0.2095
     21  C5        18.6750  -11.1040    3.7390 C.2   1511  ADP1511     0.2526
     22  C6        19.6700  -10.2190    3.0950 C.2   1511  ADP1511     0.4393
     23  N6        20.2330  -10.5490    1.9060 N.pl3 1511  ADP1511     0.2180
     24  N1        19.9880   -9.0770    3.7380 N.2   1511  ADP1511     0.0021
     25  C2        19.4260   -8.7360    4.9160 C.3   1511  ADP1511     0.5254
     26  N3        18.5210   -9.4920    5.5510 N.2   1511  ADP1511    -0.0055
     27  C4        18.1050  -10.6680    5.0290 C.2   1511  ADP1511     0.3518
@<TRIPOS>BOND
     1    23    22    1
     2    22    24    2
     3    22    21    1
     4    20    21    2
     5    20    19    1
     6     6     5    2
     7    24    25    1
     8    21    27    1
     9    19    18    1
    10     4     1    2
    11     3     1    1
    12    25    26    1
    13     5     7    1
    14     5     8    1
    15     5     9    1
    16    27    18    1
    17    27    26    2
    18    18    17    1
    19     1     8    1
    20     1     2    1
    21     9    10    1
    22    13    15    1
    23    13    14    1
    24    13    11    1
    25    15    17    1
    26    15    16    1
    27    17    12    1
    28    10    11    1
    29    12    11    1
