@<TRIPOS>MOLECULE
3lmi_ATP_A_1.pdb
 31 33 0 0 0
SMALL
GASTEIGER

@<TRIPOS>ATOM
      1  PG        16.4900   23.6880  -17.8680 P.3   1760  ATP1760     0.5373
      2  O1G       16.7660   23.2530  -16.4500 O.3   1760  ATP1760    -0.1143
      3  O2G       17.5910   24.5130  -18.4980 O.3   1760  ATP1760    -0.1143
      4  O3G       16.0350   22.5530  -18.7420 O.2   1760  ATP1760    -0.2221
      5  PB        14.0370   24.9060  -18.6950 P.3   1760  ATP1760     0.2277
      6  O1B       14.3110   26.1000  -19.5870 O.2   1760  ATP1760    -0.5168
      7  O2B       13.7710   23.5720  -19.3540 O.3   1760  ATP1760    -0.4368
      8  O3B       15.2480   24.7160  -17.6490 O.3   1760  ATP1760    -0.2258
      9  PA        12.2620   24.4960  -16.4700 P.3   1760  ATP1760     0.2189
     10  O1A       11.2430   23.4400  -16.7980 O.2   1760  ATP1760    -0.5170
     11  O2A       13.4580   24.1050  -15.6470 O.3   1760  ATP1760    -0.4371
     12  O3A       12.7290   25.2760  -17.7980 O.3   1760  ATP1760    -0.2700
     13  O5'       11.5450   25.6630  -15.6510 O.3   1760  ATP1760    -0.3112
     14  C5'       12.2730   26.8720  -15.4240 C.3   1760  ATP1760     0.1813
     15  C4'       12.2900   27.2060  -13.9360 C.3   1760  ATP1760     0.1821
     16  O4'       10.9640   27.2750  -13.4110 O.3   1760  ATP1760    -0.3135
     17  C3'       12.9820   26.1710  -13.0640 C.3   1760  ATP1760     0.2184
     18  O3'       14.3850   26.3760  -12.9630 O.3   1760  ATP1760    -0.2174
     19  C2'       12.3450   26.4120  -11.7170 C.3   1760  ATP1760     0.2570
     20  O2'       12.8580   27.6030  -11.1130 O.3   1760  ATP1760    -0.2130
     21  C1'       10.9280   26.7350  -12.0880 C.3   1760  ATP1760     0.3186
     22  N9        10.0710   25.5330  -12.1190 N.pl3 1760  ATP1760    -0.1439
     23  C8        10.0140   24.6010  -13.0990 C.3   1760  ATP1760     0.3377
     24  N7         9.0790   23.6560  -12.8200 N.2   1760  ATP1760    -0.2095
     25  C5         8.5220   23.9920  -11.6410 C.2   1760  ATP1760     0.2526
     26  C6         7.4640   23.4440  -10.7640 C.2   1760  ATP1760     0.4393
     27  N6         6.7950   22.3170  -11.1030 N.pl3 1760  ATP1760     0.2180
     28  N1         7.1910   24.1150   -9.6190 N.2   1760  ATP1760     0.0021
     29  C2         7.8360   25.2440   -9.2690 C.3   1760  ATP1760     0.5254
     30  N3         8.7940   25.8010  -10.0250 N.2   1760  ATP1760    -0.0055
     31  C4         9.1680   25.2360  -11.1950 C.2   1760  ATP1760     0.3518
@<TRIPOS>BOND
     1     6     5    2
     2     7     5    1
     3     4     1    2
     4     5    12    1
     5     5     8    1
     6     3     1    1
     7     1     8    1
     8     1     2    1
     9    12     9    1
    10    10     9    2
    11     9    13    1
    12     9    11    1
    13    13    14    1
    14    14    15    1
    15    15    16    1
    16    15    17    1
    17    16    21    1
    18    23    24    1
    19    23    22    1
    20    17    18    1
    21    17    19    1
    22    24    25    2
    23    22    21    1
    24    22    31    1
    25    21    19    1
    26    19    20    1
    27    25    31    1
    28    25    26    1
    29    31    30    2
    30    27    26    1
    31    26    28    2
    32    30    29    1
    33    28    29    1
