@<TRIPOS>MOLECULE
3lmk_GLU_A_1.pdb
 10 9 0 0 0
SMALL
GASTEIGER

@<TRIPOS>ATOM
      1  N         22.4070   -4.0770   12.0330 N.3   506  GLU506     -0.1208
      2  CA        21.4770   -4.6740   11.0390 C.3   506  GLU506      0.1949
      3  C         21.3090   -3.7360    9.8390 C.2   506  GLU506      0.3819
      4  O         21.9280   -2.6690    9.8030 O.co2 506  GLU506     -0.2441
      5  CB        20.1440   -4.9940   11.7070 C.3   506  GLU506      0.0424
      6  CG        20.2980   -5.9990   12.8280 C.3   506  GLU506      0.1161
      7  CD        19.1760   -5.9510   13.8260 C.2   506  GLU506      0.3649
      8  OE1       18.4890   -6.9770   13.9840 O.co2 506  GLU506     -0.2457
      9  OE2       18.9800   -4.8930   14.4500 O.co2 506  GLU506     -0.2457
     10  OXT       20.5890   -4.0140    8.8710 O.co2 506  GLU506     -0.2441
@<TRIPOS>BOND
     1    10     3   ar
     2     4     3   ar
     3     3     2    1
     4     2     5    1
     5     2     1    1
     6     5     6    1
     7     6     7    1
     8     7     8   ar
     9     7     9   ar
