@<TRIPOS>MOLECULE
3lmp_CEK_A_1.pdb
 36 40 0 0 0
SMALL
GASTEIGER

@<TRIPOS>ATOM
      1  C1        15.2380   51.2990   66.9070 C.3    23  CEK23       0.0775
      2  C2        16.1160   51.2530   65.6560 C.2    23  CEK23       0.1794
      3  O3        17.2390   51.7540   65.6560 O.2    23  CEK23      -0.2911
      4  C4        15.5580   50.5930   64.4030 C.2    23  CEK23       0.1090
      5  C5        14.6580   49.3320   64.5750 C.2    23  CEK23       0.1888
      6  C6        14.6510   48.3690   63.3260 C.3    23  CEK23       0.1311
      7  C7        14.7470   49.2040   62.0370 C.2    23  CEK23       0.1360
      8  C8        15.2970   50.4520   62.0030 C.2    23  CEK23       0.0759
      9  C9        15.8010   51.0400   63.1300 C.2    23  CEK23       0.2039
     10  O10       14.2220   48.5820   60.9340 O.3    23  CEK23      -0.4569
     11  C11       13.2080   47.8180   61.5070 C.ar   23  CEK23       0.1520
     12  C12       13.3760   47.6470   62.8830 C.ar   23  CEK23       0.0646
     13  C13       12.1030   47.2470   60.8360 C.ar   23  CEK23       0.1232
     14  C14       11.1650   46.4950   61.5950 C.ar   23  CEK23       0.1492
     15  C15       11.3580   46.3380   62.9860 C.ar   23  CEK23       0.0789
     16  C16       12.4550   46.9100   63.6240 C.ar   23  CEK23       0.1985
     17  C17       15.8420   47.3840   63.4340 C.3    23  CEK23       0.0200
     18  O18       14.0110   49.0930   65.5930 O.2    23  CEK23      -0.2904
     19  O19       16.5890   52.1440   62.9430 O.2    23  CEK23      -0.2863
     20  O20       12.6070   46.7340   64.9740 O.3    23  CEK23      -0.2867
     21  O21       10.0770   45.9370   60.9140 O.3    23  CEK23      -0.4711
     22  C22        9.1190   45.0120   61.4890 C.3    23  CEK23       0.2525
     23  C23       11.9920   47.4800   59.3280 C.2    23  CEK23       0.2710
     24  O24       12.9970   47.7110   58.6580 O.2    23  CEK23      -0.2681
     25  N25       10.8290   47.4120   58.6520 N.am   23  CEK23      -0.1966
     26  C26       10.4680   48.2180   57.4680 C.3    23  CEK23       0.1418
     27  C27        8.9520   48.5290   57.3970 C.ar   23  CEK23      -0.0005
     28  C28        7.9170   47.5620   57.5500 C.ar   23  CEK23      -0.0023
     29  C29        6.5400   47.9910   57.4640 C.ar   23  CEK23      -0.0003
     30  C30        6.2490   49.3350   57.2340 C.ar   23  CEK23      -0.0000
     31  C31        7.2760   50.2650   57.0870 C.ar   23  CEK23      -0.0003
     32  C32        8.6080   49.8690   57.1680 C.ar   23  CEK23      -0.0026
     33  C33        5.5070   47.0510   57.6130 C.ar   23  CEK23      -0.0000
     34  C34        5.8090   45.7110   57.8430 C.ar   23  CEK23      -0.0000
     35  C35        7.1330   45.2880   57.9270 C.ar   23  CEK23      -0.0000
     36  C36        8.1760   46.2010   57.7840 C.ar   23  CEK23      -0.0003
@<TRIPOS>BOND
     1    31    32   ar
     2    31    30   ar
     3    32    27   ar
     4    30    29   ar
     5    27    26    1
     6    27    28   ar
     7    29    28   ar
     8    29    33   ar
     9    26    25    1
    10    28    36   ar
    11    33    34   ar
    12    36    35   ar
    13    34    35   ar
    14    25    23   am
    15    24    23    2
    16    23    13    1
    17    13    11   ar
    18    13    14   ar
    19    21    22    1
    20    21    14    1
    21    10    11    1
    22    10     7    1
    23    11    12   ar
    24    14    15   ar
    25     8     7    2
    26     8     9    1
    27     7     6    1
    28    12     6    1
    29    12    16   ar
    30    19     9    1
    31    15    16   ar
    32     9     4    2
    33     6    17    1
    34     6     5    1
    35    16    20    1
    36     4     5    1
    37     4     2    1
    38     5    18    2
    39     3     2    2
    40     2     1    1
