@<TRIPOS>MOLECULE
3lmv_EPE_A_1.pdb
 15 15 0 0 0
SMALL
GASTEIGER

@<TRIPOS>ATOM
      1  N1        -9.6240    5.2500    8.5850 N.3   165  EPE165     -0.2689
      2  C2       -10.6620    6.1200    9.1750 C.3   165  EPE165      0.0897
      3  C3       -11.4120    6.9470    8.1210 C.3   165  EPE165      0.0897
      4  N4       -10.6220    7.1990    6.9300 N.3   165  EPE165     -0.2681
      5  C5        -9.9480    6.0840    6.2890 C.3   165  EPE165      0.0897
      6  C6        -9.9040    4.8530    7.1940 C.3   165  EPE165      0.0897
      7  C7       -10.6900    8.4940    6.2710 C.3   165  EPE165      0.1081
      8  C8       -11.9000    8.6710    5.3520 C.3   165  EPE165      0.1993
      9  O8       -11.8790    9.9660    4.7800 O.3   165  EPE165     -0.2189
     10  C9        -9.3820    4.0570    9.4080 C.3   165  EPE165      0.0939
     11  C10      -10.4120    2.9890    9.0540 C.3   165  EPE165      0.1225
     12  S        -10.2790    1.5030   10.0890 S.3   165  EPE165     -0.1946
     13  O1S      -11.5830    1.2570   10.7070 O.3   165  EPE165     -0.3074
     14  O2S       -9.2390    1.7030   11.1090 O.3   165  EPE165     -0.3074
     15  O3S       -9.9370    0.3430    9.2660 O.3   165  EPE165     -0.3074
@<TRIPOS>BOND
     1     9     8    1
     2     8     7    1
     3     7     4    1
     4     5     4    1
     5     5     6    1
     6     4     3    1
     7     6     1    1
     8     3     2    1
     9     1     2    1
    10     1    10    1
    11    11    10    1
    12    11    12    1
    13    15    12    1
    14    12    13    1
    15    12    14    1
