@<TRIPOS>MOLECULE
3lmy_CP6_A_1.pdb
 17 18 0 0 0
SMALL
GASTEIGER

@<TRIPOS>ATOM
      1  N1         7.9350   25.0660   36.8100 N.2   562  CP6562     -0.3112
      2  C2         7.0510   25.9910   36.3490 C.1   562  CP6562      0.2419
      3  C3         7.8930   23.7730   36.3700 C.2   562  CP6562      0.2201
      4  C4         6.9240   23.3680   35.4100 C.3   562  CP6562      0.1421
      5  C5         6.0060   24.3400   34.9360 C.2   562  CP6562      0.1122
      6  N6         6.1050   25.6060   35.4340 N.2   562  CP6562     -0.3339
      7  C7         6.9210   21.9190   34.9730 C.ar  562  CP6562     -0.0080
      8  C8         8.1340   21.2010   35.0070 C.ar  562  CP6562     -0.0026
      9  C9         8.2090   19.8450   34.6450 C.ar  562  CP6562      0.0111
     10  C10        7.0310   19.1810   34.2410 C.ar  562  CP6562      0.0577
     11  C11        5.7960   19.8830   34.2080 C.ar  562  CP6562      0.0111
     12  C12        5.7490   21.2390   34.5800 C.ar  562  CP6562     -0.0026
     13  N13        8.8120   22.8980   36.8760 N.pl3 562  CP6562     -0.0962
     14  N14        7.1070   27.2860   36.7920 N.pl3 562  CP6562     -0.0232
     15  C15        4.9130   24.0430   33.9220 C.3   562  CP6562      0.0563
     16  C16        4.6590   25.1700   32.9570 C.3   562  CP6562      0.0075
     17 CL1         7.1450   17.4330   33.7720 Cl    562  CP6562     -0.0822
@<TRIPOS>BOND
     1    16    15    1
     2    17    10    1
     3    15     5    1
     4    11    10   ar
     5    11    12   ar
     6    10     9   ar
     7    12     7   ar
     8     9     8   ar
     9     5     4    1
    10     5     6    2
    11     7     8   ar
    12     7     4    1
    13     4     3    1
    14     6     2    2
    15     2    14    1
    16     2     1    2
    17     3     1    2
    18     3    13    1
