@<TRIPOS>MOLECULE
3ln0_HEM_A_1.pdb
 43 50 0 0 0
SMALL
GASTEIGER

@<TRIPOS>ATOM
      1  CHA       24.0670   35.2060    0.6570 C.2   605  HEM605      0.0000
      2  CHB       20.7270   38.6800    1.1810 C.2   605  HEM605      0.0000
      3  CHC       20.6800   37.9240    5.9380 C.2   605  HEM605      0.0000
      4  CHD       23.4090   33.9300    5.2950 C.2   605  HEM605      0.0000
      5  C1A       23.1670   36.2180    0.4290 C.ar  605  HEM605      0.0000
      6  C2A       22.9380   36.8370   -0.8470 C.ar  605  HEM605      0.0000
      7  C3A       22.0360   37.7970   -0.7060 C.ar  605  HEM605      0.0000
      8  C4A       21.6500   37.8150    0.6720 C.ar  605  HEM605      0.0000
      9  CMA       21.4400   38.7430   -1.7720 C.3   605  HEM605      0.0000
     10  CAA       23.6630   36.4170   -2.1280 C.3   605  HEM605      0.0000
     11  CBA       24.2640   37.7000   -2.6840 C.3   605  HEM605      0.0000
     12  CGA       25.4890   37.3820   -3.5040 C.2   605  HEM605      0.0000
     13  O1A       25.5940   36.1970   -3.9330 O.co2 605  HEM605      0.0000
     14  O2A       26.3320   38.3090   -3.7090 O.co2 605  HEM605      0.0000
     15  C1B       20.5090   38.8530    2.5160 C.2   605  HEM605      0.0000
     16  C2B       19.8370   39.9740    3.1180 C.2   605  HEM605      0.0000
     17  C3B       19.8160   39.7840    4.4260 C.2   605  HEM605      0.0000
     18  C4B       20.4770   38.5170    4.7070 C.2   605  HEM605      0.0000
     19  CMB       19.2420   41.1850    2.3630 C.3   605  HEM605      0.0000
     20  CAB       19.1650   40.7630    5.4190 C.2   605  HEM605      0.0000
     21  CBB       19.4670   40.6990    6.7150 C.2   605  HEM605      0.0000
     22  C1C       21.3620   36.7380    6.1480 C.ar  605  HEM605      0.0000
     23  C2C       21.4160   36.0220    7.4010 C.ar  605  HEM605      0.0000
     24  C3C       22.1610   34.9290    7.2310 C.ar  605  HEM605      0.0000
     25  C4C       22.6160   34.8980    5.8580 C.ar  605  HEM605      0.0000
     26  CMC       20.7250   36.4570    8.7100 C.3   605  HEM605      0.0000
     27  CAC       22.4630   33.8890    8.3220 C.2   605  HEM605      0.0000
     28  CBC       23.6640   33.3480    8.4270 C.2   605  HEM605      0.0000
     29  C1D       23.9600   33.9730    4.0400 C.2   605  HEM605      0.0000
     30  C2D       25.0850   33.1930    3.5910 C.2   605  HEM605      0.0000
     31  C3D       25.2850   33.6010    2.1360 C.2   605  HEM605      0.0000
     32  C4D       24.2700   34.5810    1.8590 C.2   605  HEM605      0.0000
     33  CMD       25.9220   32.1880    4.4160 C.3   605  HEM605      0.0000
     34  CAD       26.3720   33.1290    1.1520 C.3   605  HEM605      0.0000
     35  CBD       27.3840   34.2790    1.1180 C.3   605  HEM605      0.0000
     36  CGD       28.5790   34.0240    0.2300 C.2   605  HEM605      0.0000
     37  O1D       28.8780   32.8590   -0.0950 O.co2 605  HEM605      0.0000
     38  O2D       29.2650   35.0090   -0.1300 O.co2 605  HEM605      0.0000
     39  NA        22.3570   36.8430    1.3480 N.ar  605  HEM605      0.0000
     40  NB        20.8910   37.9790    3.5040 N.2   605  HEM605      0.0000
     41  NC        22.1120   36.0230    5.2230 N.ar  605  HEM605      0.0000
     42  ND        23.5070   34.7630    2.9920 N.2   605  HEM605      0.0000
     43 FE         22.1350   36.2680    3.2450 Fe    605  HEM605      0.0000
@<TRIPOS>BOND
     1    13    12   ar
     2    14    12   ar
     3    12    11    1
     4    11    10    1
     5    10     6    1
     6     9     7    1
     7     6     7   ar
     8     6     5   ar
     9     7     8   ar
    10    38    36   ar
    11    37    36   ar
    12    36    35    1
    13     5     1    2
    14     5    39   ar
    15     1    32    1
    16     8     2    2
    17     8    39   ar
    18    35    34    1
    19    34    31    1
    20     2    15    1
    21    39    43    1
    22    32    31    1
    23    32    42    2
    24    31    30    2
    25    19    16    1
    26    15    16    1
    27    15    40    2
    28    42    43    1
    29    42    29    1
    30    16    17    2
    31    43    40    1
    32    43    41    1
    33    40    18    1
    34    30    29    1
    35    30    33    1
    36    29     4    2
    37    17    18    1
    38    17    20    1
    39    18     3    2
    40    41    25   ar
    41    41    22   ar
    42     4    25    1
    43    20    21    2
    44    25    24   ar
    45     3    22    1
    46    22    23   ar
    47    24    23   ar
    48    24    27    1
    49    23    26    1
    50    27    28    2
