@<TRIPOS>MOLECULE
3ln0_52B_A_1.pdb
 19 20 0 0 0
SMALL
GASTEIGER

@<TRIPOS>ATOM
      1  C1        28.3500   22.6390   16.8440 C.ar  701  52B701      0.0145
      2  F1        24.0570   23.7720   13.1070 F     701  52B701     -0.1661
      3 CL1        28.7400   20.5430   18.5640 Cl    701  52B701     -0.0822
      4  C2        25.6240   22.3810   17.1450 C.ar  701  52B701      0.0924
      5  F2        25.9450   22.7540   13.3600 F     701  52B701     -0.1661
      6 CL2        23.9260   22.2590   17.3410 Cl    701  52B701     -0.0791
      7  C3        27.5030   23.4880   16.1570 C.ar  701  52B701      0.0357
      8  F3        25.8520   24.6410   12.2070 F     701  52B701     -0.1661
      9  C4        27.7980   21.6660   17.6560 C.ar  701  52B701      0.0587
     10  C5        26.4480   21.5350   17.8170 C.ar  701  52B701      0.0258
     11  C6        26.1390   23.3520   16.3280 C.ar  701  52B701      0.1497
     12  C7        27.9800   24.5730   15.3370 C.2   701  52B701      0.0091
     13  C8        27.0550   25.2350   14.6410 C.2   701  52B701      0.1055
     14  C9        25.6290   24.8130   14.5510 C.3   701  52B701      0.2885
     15  C10       27.5490   26.4790   13.9200 C.2   701  52B701      0.3875
     16  O11       25.1720   24.1340   15.7290 O.3   701  52B701     -0.4648
     17  O12       26.6720   27.1190   13.2820 O.co2 701  52B701     -0.2408
     18  O13       28.7520   26.7930   14.1280 O.co2 701  52B701     -0.2408
     19  C14       25.3770   23.9860   13.3040 C.3   701  52B701      0.4385
@<TRIPOS>BOND
     1     8    19    1
     2     2    19    1
     3    17    15   ar
     4    19     5    1
     5    19    14    1
     6    15    18   ar
     7    15    13    1
     8    14    13    1
     9    14    16    1
    10    13    12    2
    11    12     7    1
    12    16    11    1
    13     7    11   ar
    14     7     1   ar
    15    11     4   ar
    16     1     9   ar
    17     4     6    1
    18     4    10   ar
    19     9    10   ar
    20     9     3    1
