@<TRIPOS>MOLECULE
3ln1_CEL_A_1.pdb
 26 28 0 0 0
SMALL
GASTEIGER

@<TRIPOS>ATOM
      1  S1        25.9310  -21.4670  -17.1550 S.O2  682  CEL682      0.0935
      2  C15       27.6790  -21.7060  -17.1310 C.ar  682  CEL682      0.1251
      3  C14       28.2180  -22.8290  -16.5560 C.ar  682  CEL682      0.0216
      4  C13       29.5840  -22.9640  -16.5430 C.ar  682  CEL682      0.0205
      5  C12       30.3410  -21.9670  -17.1090 C.ar  682  CEL682      0.0829
      6  C17       29.7960  -20.8530  -17.6970 C.ar  682  CEL682      0.0205
      7  C16       28.4340  -20.7140  -17.7070 C.ar  682  CEL682      0.0216
      8  N2        31.7240  -22.0060  -17.1320 N.ar  682  CEL682     -0.2297
      9  C3        32.6220  -22.5740  -16.2600 C.ar  682  CEL682      0.0842
     10  C5        32.4170  -23.2370  -14.9850 C.ar  682  CEL682      0.0177
     11  C10       31.5700  -22.7350  -14.0160 C.ar  682  CEL682      0.0012
     12  C9        31.4460  -23.3900  -12.8190 C.ar  682  CEL682     -0.0042
     13  C8        32.1700  -24.5410  -12.5870 C.ar  682  CEL682     -0.0218
     14  C11       32.0560  -25.2900  -11.3060 C.3   682  CEL682      0.0310
     15  C7        33.0230  -25.0300  -13.5490 C.ar  682  CEL682     -0.0042
     16  C6        33.1520  -24.3730  -14.7430 C.ar  682  CEL682      0.0012
     17  C2        33.8430  -22.3370  -16.8370 C.ar  682  CEL682      0.0440
     18  C1        33.5890  -21.6370  -18.0310 C.ar  682  CEL682      0.1740
     19  C4        34.5540  -21.1350  -19.0020 C.3   682  CEL682      0.4366
     20  F3        34.5600  -21.7520  -20.2100 F     682  CEL682     -0.1643
     21  F2        34.3020  -19.8280  -19.2230 F     682  CEL682     -0.1643
     22  F1        35.8160  -21.2140  -18.5440 F     682  CEL682     -0.1643
     23  N1        32.2900  -21.4240  -18.2010 N.ar  682  CEL682     -0.1611
     24  N3        25.3780  -22.2260  -18.6050 N.3   682  CEL682      0.0392
     25  O2        25.7720  -20.0390  -17.2910 O.2   682  CEL682     -0.1503
     26  O1        25.4360  -22.1060  -15.9490 O.2   682  CEL682     -0.1503
@<TRIPOS>BOND
     1    20    19    1
     2    21    19    1
     3    19    22    1
     4    19    18    1
     5    24     1    1
     6    23    18   ar
     7    23     8   ar
     8    18    17   ar
     9     7     6   ar
    10     7     2   ar
    11     6     5   ar
    12    25     1    2
    13     1     2    1
    14     1    26    2
    15     8     5    1
    16     8     9   ar
    17     2     3   ar
    18     5     4   ar
    19    17     9   ar
    20     3     4   ar
    21     9    10    1
    22    10    16   ar
    23    10    11   ar
    24    16    15   ar
    25    11    12   ar
    26    15    13   ar
    27    12    13   ar
    28    13    14    1
