@<TRIPOS>MOLECULE
3ln1_HEM_A_1.pdb
 43 50 0 0 0
SMALL
GASTEIGER

@<TRIPOS>ATOM
      1  CHA       30.0760  -35.2470   -0.6680 C.2   605  HEM605      0.0000
      2  CHB       26.8210  -38.7380   -1.2850 C.2   605  HEM605      0.0000
      3  CHC       26.7310  -37.8390   -6.0600 C.2   605  HEM605      0.0000
      4  CHD       29.3330  -33.8150   -5.2710 C.2   605  HEM605      0.0000
      5  C1A       29.2360  -36.2990   -0.4560 C.2   605  HEM605      0.0000
      6  C2A       29.0720  -36.9600    0.8090 C.2   605  HEM605      0.0000
      7  C3A       28.1780  -37.9480    0.6270 C.2   605  HEM605      0.0000
      8  C4A       27.7470  -37.9040   -0.7390 C.2   605  HEM605      0.0000
      9  CMA       27.6480  -38.9530    1.6600 C.3   605  HEM605      0.0000
     10  CAA       29.8380  -36.5820    2.0940 C.3   605  HEM605      0.0000
     11  CBA       30.4690  -37.8720    2.6200 C.3   605  HEM605      0.0000
     12  CGA       31.9020  -37.6340    3.0240 C.2   605  HEM605      0.0000
     13  O1A       32.5350  -36.7040    2.4280 O.co2 605  HEM605      0.0000
     14  O2A       32.3840  -38.3800    3.9340 O.co2 605  HEM605      0.0000
     15  C1B       26.5980  -38.8620   -2.6320 C.ar  605  HEM605      0.0000
     16  C2B       25.9490  -39.9920   -3.2440 C.ar  605  HEM605      0.0000
     17  C3B       25.9150  -39.7470   -4.5530 C.ar  605  HEM605      0.0000
     18  C4B       26.5480  -38.4510   -4.8260 C.ar  605  HEM605      0.0000
     19  CMB       25.3940  -41.2380   -2.5020 C.3   605  HEM605      0.0000
     20  CAB       25.3030  -40.6980   -5.6040 C.2   605  HEM605      0.0000
     21  CBB       25.8930  -40.7260   -6.8000 C.2   605  HEM605      0.0000
     22  C1C       27.3980  -36.6470   -6.2730 C.2   605  HEM605      0.0000
     23  C2C       27.4980  -35.9170   -7.5280 C.2   605  HEM605      0.0000
     24  C3C       28.2120  -34.8110   -7.3190 C.2   605  HEM605      0.0000
     25  C4C       28.5990  -34.7890   -5.9210 C.2   605  HEM605      0.0000
     26  CMC       26.8870  -36.3310   -8.8790 C.3   605  HEM605      0.0000
     27  CAC       28.5430  -33.7630   -8.4060 C.2   605  HEM605      0.0000
     28  CBC       29.7110  -33.1370   -8.3690 C.2   605  HEM605      0.0000
     29  C1D       29.8960  -33.9210   -4.0120 C.ar  605  HEM605      0.0000
     30  C2D       31.0790  -33.2250   -3.5480 C.ar  605  HEM605      0.0000
     31  C3D       31.3190  -33.7000   -2.1060 C.ar  605  HEM605      0.0000
     32  C4D       30.2430  -34.6100   -1.8610 C.ar  605  HEM605      0.0000
     33  CMD       31.9170  -32.2320   -4.3550 C.3   605  HEM605      0.0000
     34  CAD       32.4140  -33.3090   -1.0840 C.3   605  HEM605      0.0000
     35  CBD       33.3200  -34.4830   -0.6980 C.3   605  HEM605      0.0000
     36  CGD       34.5940  -33.9560   -0.0710 C.2   605  HEM605      0.0000
     37  O1D       34.5800  -32.8190    0.4410 O.co2 605  HEM605      0.0000
     38  O2D       35.6490  -34.6260   -0.0700 O.co2 605  HEM605      0.0000
     39  NA        28.4110  -36.8830   -1.3810 N.2   605  HEM605      0.0000
     40  NB        26.9620  -37.9430   -3.6160 N.ar  605  HEM605      0.0000
     41  NC        28.0800  -35.9140   -5.3150 N.2   605  HEM605      0.0000
     42  ND        29.4410  -34.7300   -2.9900 N.ar  605  HEM605      0.0000
     43 FE         28.2000  -36.2200   -3.2730 Fe    605  HEM605      0.0000
@<TRIPOS>BOND
     1    26    23    1
     2    27    28    2
     3    27    24    1
     4    23    24    2
     5    23    22    1
     6    24    25    1
     7    21    20    2
     8    22     3    2
     9    22    41    1
    10     3    18    1
    11    25    41    2
    12    25     4    1
    13    20    17    1
    14    41    43    1
    15     4    29    2
    16    18    17   ar
    17    18    40   ar
    18    17    16   ar
    19    33    30    1
    20    29    30   ar
    21    29    42   ar
    22    40    43    1
    23    40    15   ar
    24    30    31   ar
    25    43    42    1
    26    43    39    1
    27    16    15   ar
    28    16    19    1
    29    42    32   ar
    30    15     2    1
    31    31    32   ar
    32    31    34    1
    33    32     1    2
    34    39     8    1
    35    39     5    2
    36     2     8    2
    37    34    35    1
    38     8     7    1
    39    35    36    1
    40     1     5    1
    41     5     6    1
    42    36    38   ar
    43    36    37   ar
    44     7     6    2
    45     7     9    1
    46     6    10    1
    47    10    11    1
    48    13    12   ar
    49    11    12    1
    50    12    14   ar
