@<TRIPOS>MOLECULE
3ln3_NAD_A_1.pdb
 44 48 0 0 0
SMALL
GASTEIGER

@<TRIPOS>ATOM
      1  PA        29.0880    1.9700   -3.0130 P.3   327  NAD327      0.2189
      2  O1A       29.0570    0.6170   -2.5250 O.3   327  NAD327     -0.4371
      3  O2A       28.0820    2.3250   -4.0290 O.2   327  NAD327     -0.5170
      4  O5B       30.5220    2.1620   -3.5420 O.3   327  NAD327     -0.3112
      5  C5B       30.9520    3.2270   -4.3050 C.3   327  NAD327      0.1813
      6  C4B       32.2770    2.8990   -4.9200 C.3   327  NAD327      0.1821
      7  O4B       32.0380    2.0690   -6.0620 O.3   327  NAD327     -0.3135
      8  C3B       32.9010    4.1780   -5.4310 C.3   327  NAD327      0.2184
      9  O3B       33.8600    4.7830   -4.5700 O.3   327  NAD327     -0.2174
     10  C2B       33.5010    3.7610   -6.7750 C.3   327  NAD327      0.2570
     11  O2B       34.8930    3.5720   -6.6990 O.3   327  NAD327     -0.2130
     12  C1B       32.9190    2.4040   -7.0970 C.3   327  NAD327      0.3186
     13  N9A       32.1600    2.3880   -8.3590 N.pl3 327  NAD327     -0.1439
     14  C8A       30.8970    2.9120   -8.5810 C.3   327  NAD327      0.3377
     15  N7A       30.5630    2.6270   -9.8580 N.2   327  NAD327     -0.2095
     16  C5A       31.5810    1.9490  -10.4480 C.2   327  NAD327      0.2526
     17  C6A       31.6980    1.4920  -11.7630 C.2   327  NAD327      0.4393
     18  N6A       30.6210    1.5330  -12.6830 N.pl3 327  NAD327      0.2180
     19  N1A       32.9240    0.8360  -12.0200 N.2   327  NAD327      0.0021
     20  C2A       33.9390    0.7120  -11.0920 C.3   327  NAD327      0.5254
     21  N3A       33.7950    1.1880   -9.8060 N.2   327  NAD327     -0.0055
     22  C4A       32.6020    1.7930   -9.5200 C.2   327  NAD327      0.3518
     23  O3        29.2340    3.1240   -1.8880 O.3   327  NAD327     -0.2703
     24  PN        28.7380    3.9750   -0.5810 P.3   327  NAD327      0.2189
     25  O1N       28.5930    5.4210   -0.9490 O.2   327  NAD327     -0.5170
     26  O2N       29.6260    3.6540    0.5450 O.3   327  NAD327     -0.4371
     27  O5D       27.2690    3.3770   -0.3120 O.3   327  NAD327     -0.3112
     28  C5D       26.1490    3.6880   -1.1670 C.3   327  NAD327      0.1813
     29  C4D       25.2080    4.7560   -0.5640 C.3   327  NAD327      0.1799
     30  O4D       24.6430    4.1370    0.5860 O.3   327  NAD327     -0.3327
     31  C3D       25.8160    5.9880    0.1240 C.3   327  NAD327      0.2158
     32  O3D       26.4360    6.9330   -0.6970 O.3   327  NAD327     -0.2175
     33  C2D       24.6260    6.4780    0.9510 C.3   327  NAD327      0.2309
     34  O2D       23.5860    7.1630    0.1980 O.3   327  NAD327     -0.2158
     35  C1D       24.1340    5.1090    1.4830 C.3   327  NAD327      0.2263
     36  N1N       24.5990    4.7440    2.8610 N.pl3 327  NAD327     -0.2787
     37  C2N       23.6130    4.3100    3.7430 C.3   327  NAD327      0.1244
     38  C3N       23.8600    3.9740    5.0720 C.2   327  NAD327      0.0544
     39  C7N       22.7580    3.5360    5.9940 C.2   327  NAD327      0.2818
     40  O7N       23.1940    3.2610    7.2950 O.2   327  NAD327     -0.2670
     41  N7N       21.4460    3.5140    5.6090 N.am  327  NAD327     -0.0839
     42  C4N       25.1420    4.0300    5.5820 C.2   327  NAD327      0.0033
     43  C5N       26.1610    4.3410    4.6510 C.2   327  NAD327      0.0157
     44  C6N       25.9030    4.7590    3.3310 C.2   327  NAD327      0.0633
@<TRIPOS>BOND
     1    18    17    1
     2    19    17    2
     3    19    20    1
     4    17    16    1
     5    20    21    1
     6    16    15    2
     7    16    22    1
     8    15    14    1
     9    21    22    2
    10    22    13    1
    11    14    13    1
    12    13    12    1
    13    12    10    1
    14    12     7    1
    15    10    11    1
    16    10     8    1
    17     7     6    1
    18     8     6    1
    19     8     9    1
    20     6     5    1
    21     5     4    1
    22     3     1    2
    23     4     1    1
    24     1     2    1
    25     1    23    1
    26    23    24    1
    27    28    29    1
    28    28    27    1
    29    25    24    2
    30    32    31    1
    31    24    27    1
    32    24    26    1
    33    29    31    1
    34    29    30    1
    35    31    33    1
    36    34    33    1
    37    30    35    1
    38    33    35    1
    39    35    36    1
    40    36    44    1
    41    36    37    1
    42    44    43    2
    43    37    38    1
    44    43    42    1
    45    38    42    2
    46    38    39    1
    47    41    39   am
    48    39    40    2
