@<TRIPOS>MOLECULE
3ln4_III_C_1.pdb
 34 34 0 0 0
SMALL
GASTEIGER

@<TRIPOS>ATOM
      1  N        -13.2360   15.0430  -36.8900 N.3     1  ALA1       -0.1231
      2  CA       -12.2190   14.4600  -37.7630 C.3     1  ALA1        0.1694
      3  C        -10.8290   14.7570  -37.2300 C.2     1  ALA1        0.2592
      4  O        -10.5570   15.8720  -36.7810 O.2     1  ALA1       -0.2718
      5  CB       -12.3580   15.0090  -39.1740 C.3     1  ALA1        0.0304
      6  N         -9.9410   13.7680  -37.2890 N.am    2  GLU2       -0.1966
      7  CA        -8.5860   13.9530  -36.7930 C.3     2  GLU2        0.1733
      8  C         -7.7440   14.8440  -37.6850 C.2     2  GLU2        0.2616
      9  O         -8.0430   15.0620  -38.8680 O.2     2  GLU2       -0.2715
     10  CB        -7.8730   12.6100  -36.6200 C.3     2  GLU2        0.0429
     11  CG        -8.3010   11.8540  -35.3760 C.3     2  GLU2        0.1163
     12  CD        -7.1480   11.0800  -34.7860 C.2     2  GLU2        0.3649
     13  OE1       -7.0990    9.8440  -34.9540 O.co2   2  GLU2       -0.2457
     14  OE2       -6.2660   11.7100  -34.1740 O.co2   2  GLU2       -0.2457
     15  N         -6.6700   15.3390  -37.0920 N.am    3  MET3       -0.1963
     16  CA        -5.6580   16.0920  -37.8040 C.3     3  MET3        0.1736
     17  C         -4.8020   15.1620  -38.6480 C.2     3  MET3        0.2616
     18  O         -4.3870   14.0960  -38.1870 O.2     3  MET3       -0.2715
     19  CB        -4.7710   16.8140  -36.7980 C.3     3  MET3        0.0427
     20  CG        -3.5820   17.4890  -37.4160 C.3     3  MET3        0.0599
     21  SD        -2.5690   18.2930  -36.1730 S.3     3  MET3       -0.1393
     22  CE        -1.5290   19.2730  -37.2550 C.3     3  MET3        0.0692
     23  N         -4.5250   15.5720  -39.8790 N.am    4  TYR4       -0.1974
     24  CA        -3.6670   14.7830  -40.7480 C.3     4  TYR4        0.1639
     25  C         -2.2330   14.7800  -40.2210 C.2     4  TYR4        0.2290
     26  O         -1.8390   15.6650  -39.4500 O.2     4  TYR4       -0.2864
     27  CB        -3.7050   15.3420  -42.1670 C.3     4  TYR4        0.0560
     28  CG        -3.2620   14.3570  -43.2180 C.ar    4  TYR4       -0.0198
     29  CD1       -2.0490   14.5140  -43.8790 C.ar    4  TYR4       -0.0009
     30  CD2       -4.0530   13.2620  -43.5490 C.ar    4  TYR4       -0.0009
     31  CE1       -1.6380   13.6110  -44.8450 C.ar    4  TYR4        0.0417
     32  CE2       -3.6510   12.3530  -44.5130 C.ar    4  TYR4        0.0417
     33  CZ        -2.4420   12.5340  -45.1580 C.ar    4  TYR4        0.1957
     34  OH        -2.0380   11.6340  -46.1170 O.3     4  TYR4       -0.2866
@<TRIPOS>BOND
     1    34    33    1
     2    33    31   ar
     3    33    32   ar
     4    31    29   ar
     5    32    30   ar
     6    29    28   ar
     7    30    28   ar
     8    28    27    1
     9    27    24    1
    10    24    25    1
    11    24    23    1
    12    25    26    2
    13    23    17   am
    14     5     2    1
    15     9     8    2
    16    17    18    2
    17    17    16    1
    18    16    15    1
    19    16    19    1
    20     2     3    1
    21     2     1    1
    22     8    15   am
    23     8     7    1
    24    20    19    1
    25    20    21    1
    26     6     3   am
    27     6     7    1
    28    22    21    1
    29     3     4    2
    30     7    10    1
    31    10    11    1
    32    11    12    1
    33    13    12   ar
    34    12    14   ar
