@<TRIPOS>MOLECULE
3lnb_COA_A_1.pdb
 48 50 0 0 0
SMALL
GASTEIGER

@<TRIPOS>ATOM
      1  N1A       12.4670   30.9260  -21.1580 N.2   1001  COA1001     0.0021
      2  C2A       13.6630   31.1770  -20.6560 C.3   1001  COA1001     0.5254
      3  N3A       13.9390   32.3230  -20.0570 N.2   1001  COA1001    -0.0055
      4  C4A       13.0000   33.2710  -19.9410 C.2   1001  COA1001     0.3518
      5  C5A       11.7330   33.0460  -20.4600 C.2   1001  COA1001     0.2526
      6  C6A       11.4790   31.8290  -21.0810 C.2   1001  COA1001     0.4393
      7  N6A       10.2740   31.5600  -21.5770 N.pl3 1001  COA1001     0.2180
      8  N7A       10.9980   34.1230  -20.2030 N.2   1001  COA1001    -0.2095
      9  C8A       11.7660   34.9900  -19.5470 C.3   1001  COA1001     0.3377
     10  N9A       12.9840   34.4760  -19.3800 N.pl3 1001  COA1001    -0.1439
     11  C1B       14.0830   35.0950  -18.6020 C.3   1001  COA1001     0.3185
     12  C2B       14.4920   36.4740  -19.1170 C.3   1001  COA1001     0.2543
     13  O2B       15.3680   36.3360  -20.2400 O.3   1001  COA1001    -0.2131
     14  C3B       15.2530   37.0070  -17.9040 C.3   1001  COA1001     0.1928
     15  O3B       16.6370   36.6540  -17.9790 O.3   1001  COA1001    -0.2673
     16  P3B       17.7310   37.6620  -17.3640 P.3   1001  COA1001     0.5327
     17  O7A       17.3420   38.1680  -16.0290 O.3   1001  COA1001    -0.1145
     18  O8A       19.1260   36.8600  -17.3390 O.3   1001  COA1001    -0.1145
     19  O9A       17.8820   38.8400  -18.4500 O.2   1001  COA1001    -0.2224
     20  C4B       14.5850   36.2980  -16.7230 C.3   1001  COA1001     0.1795
     21  O4B       13.6070   35.4060  -17.2840 O.3   1001  COA1001    -0.3136
     22  C5B       13.8670   37.2920  -15.8110 C.3   1001  COA1001     0.1812
     23  O5B       12.8330   37.9590  -16.5370 O.3   1001  COA1001    -0.3112
     24  P1A       12.0730   39.2070  -15.8670 P.3   1001  COA1001     0.2189
     25  O1A       10.8460   39.5590  -16.8470 O.2   1001  COA1001    -0.5170
     26  O2A       12.9820   40.3570  -15.6680 O.3   1001  COA1001    -0.4371
     27  O3A       11.4750   38.6680  -14.4730 O.3   1001  COA1001    -0.2703
     28  P2A       10.1250   37.8010  -14.3400 P.3   1001  COA1001     0.2188
     29  O4A        8.9450   38.8710  -14.1140 O.2   1001  COA1001    -0.5170
     30  O5A       10.2320   36.8490  -13.2110 O.3   1001  COA1001    -0.4371
     31  O6A        9.8320   37.0910  -15.7550 O.3   1001  COA1001    -0.3138
     32  CBP        9.0820   34.7690  -16.0690 C.3   1001  COA1001     0.0645
     33  CCP       10.2570   35.7510  -16.0250 C.3   1001  COA1001     0.1519
     34  CDP        8.4920   34.6120  -14.6660 C.3   1001  COA1001     0.0056
     35  CEP        9.5850   33.4120  -16.5650 C.3   1001  COA1001     0.0056
     36  CAP        8.0130   35.2890  -17.0330 C.3   1001  COA1001     0.2312
     37  OAP        8.5930   35.4840  -18.3250 O.3   1001  COA1001    -0.2131
     38  C9P        6.8510   34.3020  -17.1660 C.2   1001  COA1001     0.2719
     39  O9P        6.0410   34.1470  -16.2530 O.2   1001  COA1001    -0.2706
     40  N8P        6.8020   33.6610  -18.3320 N.am  1001  COA1001    -0.2028
     41  C7P        5.7540   32.6870  -18.6720 C.3   1001  COA1001     0.1248
     42  C6P        6.3640   31.4790  -19.3880 C.3   1001  COA1001     0.1102
     43  C5P        5.2870   30.6610  -20.1060 C.2   1001  COA1001     0.2432
     44  O5P        4.7700   31.0810  -21.1390 O.2   1001  COA1001    -0.2733
     45  N4P        4.9800   29.4900  -19.5540 N.am  1001  COA1001    -0.2044
     46  C3P        3.9590   28.6080  -20.1370 C.3   1001  COA1001     0.1276
     47  C2P        4.5210   27.8260  -21.3260 C.3   1001  COA1001     0.0920
     48  S1P        5.7530   26.5520  -20.8670 S.3   1001  COA1001    -0.0802
@<TRIPOS>BOND
     1     7     6    1
     2    47    48    1
     3    47    46    1
     4     1     6    2
     5     1     2    1
     6    44    43    2
     7     6     5    1
     8     2     3    1
     9     5     8    2
    10     5     4    1
    11    13    12    1
    12     8     9    1
    13    46    45    1
    14    43    45   am
    15    43    42    1
    16     3     4    2
    17     4    10    1
    18     9    10    1
    19    42    41    1
    20    10    11    1
    21    12    11    1
    22    12    14    1
    23    41    40    1
    24    11    21    1
    25    19    16    2
    26    40    38   am
    27    37    36    1
    28    15    14    1
    29    15    16    1
    30    14    20    1
    31    16    18    1
    32    16    17    1
    33    21    20    1
    34    38    36    1
    35    38    39    2
    36    36    32    1
    37    25    24    2
    38    20    22    1
    39    35    32    1
    40    23    24    1
    41    23    22    1
    42    32    33    1
    43    32    34    1
    44    33    31    1
    45    24    26    1
    46    24    27    1
    47    31    28    1
    48    27    28    1
    49    28    29    2
    50    28    30    1
