@<TRIPOS>MOLECULE
3lnc_5GP_A_1.pdb
 24 26 0 0 0
SMALL
GASTEIGER

@<TRIPOS>ATOM
      1  P         63.3810   35.2270   25.7840 P.3   300  5GP300      0.5327
      2  O1P       64.1870   36.1690   24.9380 O.2   300  5GP300     -0.2224
      3  O2P       62.6830   35.8750   26.9710 O.3   300  5GP300     -0.1145
      4  O3P       64.0700   33.9360   26.1280 O.3   300  5GP300     -0.1145
      5  O5'       62.2030   34.7960   24.7700 O.3   300  5GP300     -0.2675
      6  C5'       61.0700   34.1010   25.2520 C.3   300  5GP300      0.1859
      7  C4'       60.2350   33.6060   24.0810 C.3   300  5GP300      0.1801
      8  O4'       59.5260   34.7050   23.5030 O.3   300  5GP300     -0.3326
      9  C3'       60.9900   32.9830   22.9280 C.3   300  5GP300      0.2158
     10  O3'       60.2210   31.9150   22.4110 O.3   300  5GP300     -0.2175
     11  C2'       60.9410   34.0260   21.8580 C.3   300  5GP300      0.2310
     12  O2'       61.0690   33.4430   20.5930 O.3   300  5GP300     -0.2158
     13  C1'       59.5540   34.6160   22.0940 C.3   300  5GP300      0.2293
     14  N9        59.3410   35.9270   21.4510 N.pl3 300  5GP300     -0.2354
     15  C8        60.2470   36.9070   21.3200 C.3   300  5GP300      0.2246
     16  N7        59.6870   37.9360   20.6910 N.2   300  5GP300     -0.2322
     17  C5        58.3880   37.5970   20.4190 C.2   300  5GP300      0.2182
     18  C6        57.3350   38.2450   19.8030 C.1   300  5GP300      0.2372
     19  O6        57.4130   39.4080   19.3020 O.2   300  5GP300     -0.2069
     20  N1        56.1650   37.6070   19.7270 N.2   300  5GP300     -0.2485
     21  C2        56.0020   36.3450   20.2170 C.1   300  5GP300      0.2531
     22  N2        54.8160   35.7430   20.1150 N.pl3 300  5GP300     -0.0226
     23  N3        57.0010   35.6740   20.8130 N.2   300  5GP300     -0.3074
     24  C4        58.1940   36.3110   20.9330 C.2   300  5GP300      0.2300
@<TRIPOS>BOND
     1    19    18    2
     2    20    18    2
     3    20    21    2
     4    18    17    1
     5    22    21    1
     6    21    23    2
     7    17    16    2
     8    17    24    1
     9    12    11    1
    10    16    15    1
    11    23    24    2
    12    24    14    1
    13    15    14    1
    14    14    13    1
    15    11    13    1
    16    11     9    1
    17    13     8    1
    18    10     9    1
    19     9     7    1
    20     8     7    1
    21     7     6    1
    22     5     6    1
    23     5     1    1
    24     2     1    2
    25     1     4    1
    26     1     3    1
