@<TRIPOS>MOLECULE
3lnj_DTR_B_1.pdb
 14 15 0 0 0
SMALL
GASTEIGER

@<TRIPOS>ATOM
      1  N          1.8870  -50.7360    4.2210 N.3     3  DTR3       -0.1298
      2  CA         2.1150  -50.2440    2.8330 C.3     3  DTR3        0.1291
      3  CB         2.5750  -51.3650    1.8280 C.3     3  DTR3        0.0497
      4  CG         4.0750  -51.7170    1.9110 C.2     3  DTR3       -0.0004
      5  CD1        4.5640  -52.7240    2.6580 C.2     3  DTR3        0.0946
      6  NE1        5.8920  -52.7970    2.5290 N.2     3  DTR3       -0.2442
      7  CE2        6.3140  -51.8380    1.6850 C.2     3  DTR3        0.0804
      8  CZ2        7.5930  -51.4760    1.2320 C.2     3  DTR3        0.0148
      9  CH2        7.7440  -50.4220    0.3170 C.2     3  DTR3       -0.0199
     10  CZ3        6.6080  -49.7190   -0.1300 C.3     3  DTR3        0.0521
     11  CE3        5.3280  -50.0740    0.3320 C.2     3  DTR3       -0.0202
     12  CD2        5.1680  -51.1410    1.2460 C.2     3  DTR3        0.0113
     13  C          3.1140  -49.0400    2.8290 C.3     3  DTR3        0.2013
     14  O          3.1920  -48.4480    1.7010 O.3     3  DTR3       -0.2188
@<TRIPOS>BOND
     1    10     9    1
     2    10    11    1
     3     9     8    2
     4    11    12    2
     5     8     7    1
     6    12     7    1
     7    12     4    1
     8     7     6    2
     9    14    13    1
    10     3     4    1
    11     3     2    1
    12     4     5    2
    13     6     5    1
    14    13     2    1
    15     2     1    1
