@<TRIPOS>MOLECULE
3lnj_DAR_B_1.pdb
 12 11 0 0 0
SMALL
GASTEIGER

@<TRIPOS>ATOM
      1  N         11.2660  -38.7420    4.5470 N.3    12  DAR12      -0.1208
      2  CA        11.4850  -37.8190    5.6990 C.3    12  DAR12       0.1944
      3  CB        10.4090  -37.9480    6.7680 C.3    12  DAR12       0.0343
      4  CG        10.6590  -39.1310    7.6860 C.3    12  DAR12       0.0490
      5  CD         9.4150  -39.3140    8.5510 C.3    12  DAR12       0.2205
      6  NE         9.7070  -39.8770    9.8910 N.pl3  12  DAR12      -0.0865
      7  CZ        10.3100  -39.2270   10.9260 C.cat  12  DAR12       0.5346
      8  NH1       10.8220  -37.9870   10.8150 N.pl3  12  DAR12       0.1354
      9  NH2       10.4060  -39.8710   12.1020 N.pl3  12  DAR12       0.1354
     10  C         11.4690  -36.3650    5.2230 C.2    12  DAR12       0.3819
     11  O         12.1840  -35.5440    5.7520 O.co2  12  DAR12      -0.2441
     12  OXT       10.8000  -35.9080    4.3040 O.co2  12  DAR12      -0.2441
@<TRIPOS>BOND
     1    12    10   ar
     2     1     2    1
     3    10     2    1
     4    10    11   ar
     5     2     3    1
     6     3     4    1
     7     4     5    1
     8     5     6    1
     9     6     7    2
    10     8     7    1
    11     7     9    1
