@<TRIPOS>MOLECULE
3lnj_DTY_B_1.pdb
 12 12 0 0 0
SMALL
GASTEIGER

@<TRIPOS>ATOM
      1  N          4.0870  -48.9660    3.6870 N.3     4  DTY4       -0.1241
      2  CA         5.2060  -48.0990    3.1880 C.3     4  DTY4        0.1605
      3  C          5.0590  -46.6730    3.7320 C.2     4  DTY4        0.2264
      4  O          6.1150  -46.0640    4.0590 O.2     4  DTY4       -0.2867
      5  CB         6.6190  -48.6850    3.4940 C.3     4  DTY4        0.0534
      6  CG         6.6940  -49.2390    4.9290 C.ar    4  DTY4       -0.0201
      7  CD1        6.5040  -50.6080    5.1520 C.ar    4  DTY4       -0.0009
      8  CD2        6.9910  -48.4000    5.9880 C.ar    4  DTY4       -0.0009
      9  CE1        6.5330  -51.1310    6.4270 C.ar    4  DTY4        0.0417
     10  CE2        7.0430  -48.9460    7.2730 C.ar    4  DTY4        0.0417
     11  CZ         6.8200  -50.2890    7.4750 C.ar    4  DTY4        0.1957
     12  OH         6.8940  -50.8020    8.7160 O.3     4  DTY4       -0.2866
@<TRIPOS>BOND
     1     2     5    1
     2     2     1    1
     3     2     3    1
     4     5     6    1
     5     3     4    2
     6     6     7   ar
     7     6     8   ar
     8     7     9   ar
     9     8    10   ar
    10     9    11   ar
    11    10    11   ar
    12    11    12    1
