@<TRIPOS>MOLECULE
3lnk_74A_A_1.pdb
 45 48 0 0 0
SMALL
GASTEIGER

@<TRIPOS>ATOM
      1  C1        18.4900   13.3590   25.2480 C.2     1  74A1        0.2491
      2  F1        26.8380   10.8410   18.9120 F       1  74A1       -0.2041
      3  N1        18.9890   12.1110   25.4530 N.am    1  74A1       -0.2731
      4  O1        18.7770   14.0810   24.2960 O.2     1  74A1       -0.2699
      5  C2        26.8970   14.3080   23.5050 C.ar    1  74A1        0.0534
      6  F2        22.9970   13.3960   18.3660 F       1  74A1       -0.2041
      7  N2        23.5040   11.7310   23.2950 N.am    1  74A1       -0.2004
      8  O2        29.0280   13.7420   24.1420 O.2     1  74A1       -0.2699
      9  C3        28.2720   13.8600   23.1470 C.2     1  74A1        0.2490
     10  N3        20.8220    9.9890   26.3000 N.3     1  74A1       -0.2133
     11  O3        22.2150   13.5840   23.2130 O.2     1  74A1       -0.2684
     12  C4        23.3010   13.0360   23.3900 C.2     1  74A1        0.2648
     13  N4        28.6280   13.5430   21.8730 N.am    1  74A1       -0.2761
     14  O4        20.9410    8.9940   23.6350 O.3     1  74A1       -0.2197
     15  C5        21.1780   10.8440   25.1400 C.3     1  74A1        0.1246
     16  C6        22.4520   10.7620   22.9250 C.3     1  74A1        0.1316
     17  C7        24.4740   13.8830   23.7000 C.ar    1  74A1        0.0549
     18  C8        21.9070    9.9500   24.1180 C.3     1  74A1        0.1896
     19  C9        19.9420   11.5450   24.4770 C.3     1  74A1        0.1137
     20  C10       25.7670   13.4920   23.2220 C.ar    1  74A1        0.0091
     21  C11       23.6990   10.6490   20.6760 C.ar    1  74A1       -0.0159
     22  C12       23.0310    9.8550   21.8090 C.3     1  74A1        0.0508
     23  C13       26.7270   15.5280   24.2230 C.ar    1  74A1        0.0003
     24  C14       24.3090   15.1110   24.4430 C.ar    1  74A1        0.0003
     25  C15       17.5390   13.9210   26.2380 C.ar    1  74A1        0.0536
     26  C16       24.9680   12.1010   18.5590 C.ar    1  74A1        0.0592
     27  C17       25.6270   11.0870   19.2590 C.ar    1  74A1        0.1421
     28  C18       23.6460   12.4000   18.9710 C.ar    1  74A1        0.1421
     29  C19       25.4670   15.9380   24.6970 C.ar    1  74A1       -0.0216
     30  C20       25.0450   10.3560   20.3280 C.ar    1  74A1        0.0256
     31  C21       22.9880   11.6850   19.9960 C.ar    1  74A1        0.0256
     32  C22       18.6520   11.1650   26.5710 C.3     1  74A1        0.1125
     33  C23       19.9690   10.6970   27.2830 C.3     1  74A1        0.1103
     34  C24       29.9450   12.9110   21.6220 C.3     1  74A1        0.0937
     35  C25       27.7720   13.9130   20.6930 C.3     1  74A1        0.0937
     36  C26       18.0740   14.6240   27.3720 C.ar    1  74A1        0.0045
     37  C27       16.1270   13.7510   26.0570 C.ar    1  74A1        0.0045
     38  C28       25.3310   17.2760   25.4790 C.3     1  74A1        0.0310
     39  C29       29.8600   11.4460   21.1230 C.3     1  74A1        0.0215
     40  C30       28.4620   14.9440   19.7640 C.3     1  74A1        0.0215
     41  C31       28.9420   10.5950   22.0150 C.3     1  74A1        0.0018
     42  C32       28.9060   16.2260   20.5150 C.3     1  74A1        0.0018
     43  C33       15.2220   14.2920   27.0130 C.ar    1  74A1        0.0001
     44  C34       17.1700   15.1640   28.3300 C.ar    1  74A1        0.0001
     45  C35       15.7550   14.9850   28.1420 C.ar    1  74A1        0.0000
@<TRIPOS>BOND
     1     6    28    1
     2    26    28   ar
     3    26    27   ar
     4     2    27    1
     5    28    31   ar
     6    27    30   ar
     7    40    42    1
     8    40    35    1
     9    31    21   ar
    10    30    21   ar
    11    21    22    1
    12    35    13    1
    13    39    34    1
    14    39    41    1
    15    34    13    1
    16    22    16    1
    17    13     9   am
    18    16     7    1
    19    16    18    1
    20     9     5    1
    21     9     8    2
    22    11    12    2
    23    20     5   ar
    24    20    17   ar
    25     7    12   am
    26    12    17    1
    27     5    23   ar
    28    14    18    1
    29    17    24   ar
    30    18    15    1
    31    23    29   ar
    32     4     1    2
    33    24    29   ar
    34    19    15    1
    35    19     3    1
    36    29    38    1
    37    15    10    1
    38     1     3   am
    39     1    25    1
    40     3    32    1
    41    37    25   ar
    42    37    43   ar
    43    25    36   ar
    44    10    33    1
    45    32    33    1
    46    43    45   ar
    47    36    44   ar
    48    45    44   ar
