@<TRIPOS>MOLECULE
3lnm_NAP_A_1.pdb
 48 52 0 0 0
SMALL
GASTEIGER

@<TRIPOS>ATOM
      1  PA       -22.4840   39.1810   74.2420 P.3   1001  NAP1001     0.2189
      2  O1A      -22.0010   38.3540   75.3750 O.3   1001  NAP1001    -0.4371
      3  O2A      -23.7430   39.9430   74.3560 O.2   1001  NAP1001    -0.5170
      4  O5B      -22.4880   38.2180   72.9910 O.3   1001  NAP1001    -0.3112
      5  C5B      -22.8900   38.7140   71.6820 C.3   1001  NAP1001     0.1813
      6  C4B      -22.8110   37.5200   70.7470 C.3   1001  NAP1001     0.1820
      7  O4B      -23.8050   36.5160   71.1970 O.3   1001  NAP1001    -0.3136
      8  C3B      -23.1430   37.7770   69.2870 C.3   1001  NAP1001     0.2157
      9  O3B      -21.9030   37.9350   68.5750 O.3   1001  NAP1001    -0.2175
     10  C2B      -23.8860   36.5280   68.8610 C.3   1001  NAP1001     0.2314
     11  O2B      -22.9480   35.5230   68.5170 O.3   1001  NAP1001    -0.2630
     12  C1B      -24.6590   36.1470   70.0840 C.3   1001  NAP1001     0.3158
     13  N9A      -25.9980   36.7850   70.2480 N.pl3 1001  NAP1001    -0.1439
     14  C8A      -26.3030   38.0790   70.6090 C.3   1001  NAP1001     0.3377
     15  N7A      -27.6020   38.3400   70.6690 N.2   1001  NAP1001    -0.2095
     16  C5A      -28.1760   37.1780   70.3350 C.2   1001  NAP1001     0.2526
     17  C6A      -29.5470   36.8190   70.2170 C.2   1001  NAP1001     0.4393
     18  N6A      -30.5520   37.6640   70.4440 N.pl3 1001  NAP1001     0.2180
     19  N1A      -29.7920   35.5350   69.8490 N.2   1001  NAP1001     0.0021
     20  C2A      -28.8100   34.6420   69.6100 C.3   1001  NAP1001     0.5254
     21  N3A      -27.4730   34.8810   69.6960 N.2   1001  NAP1001    -0.0055
     22  C4A      -27.2020   36.1920   70.0690 C.2   1001  NAP1001     0.3518
     23  O3       -21.2990   40.1790   73.8500 O.3   1001  NAP1001    -0.2703
     24  PN       -19.8130   40.1980   73.3680 P.3   1001  NAP1001     0.2189
     25  O1N      -19.7820   40.1800   71.8950 O.2   1001  NAP1001    -0.5170
     26  O2N      -19.1320   39.0780   74.0870 O.3   1001  NAP1001    -0.4371
     27  O5D      -19.2240   41.5520   73.9520 O.3   1001  NAP1001    -0.3112
     28  C5D      -19.8340   42.8310   73.6670 C.3   1001  NAP1001     0.1813
     29  C4D      -18.7910   43.8990   73.4890 C.3   1001  NAP1001     0.1799
     30  O4D      -18.0830   44.1110   74.7330 O.3   1001  NAP1001    -0.3327
     31  C3D      -17.6650   43.6250   72.4770 C.3   1001  NAP1001     0.2158
     32  O3D      -18.0320   43.6990   71.1390 O.3   1001  NAP1001    -0.2175
     33  C2D      -16.6270   44.6090   72.9250 C.3   1001  NAP1001     0.2309
     34  O2D      -16.9020   45.8860   72.3380 O.3   1001  NAP1001    -0.2158
     35  C1D      -16.7840   44.5630   74.4470 C.3   1001  NAP1001     0.2263
     36  N1N      -15.7690   43.6930   75.1170 N.pl3 1001  NAP1001    -0.2787
     37  C2N      -14.8510   44.2980   75.9310 C.3   1001  NAP1001     0.1244
     38  C3N      -13.8680   43.5750   76.5770 C.2   1001  NAP1001     0.0544
     39  C7N      -12.8600   44.2180   77.4690 C.2   1001  NAP1001     0.2818
     40  O7N      -11.7600   43.6860   77.6060 O.2   1001  NAP1001    -0.2670
     41  N7N      -13.2530   45.3590   78.0660 N.am  1001  NAP1001    -0.0839
     42  C4N      -13.8040   42.1510   76.3890 C.2   1001  NAP1001     0.0033
     43  C5N      -14.7520   41.5300   75.5520 C.2   1001  NAP1001     0.0157
     44  C6N      -15.7210   42.2760   74.9230 C.2   1001  NAP1001     0.0633
     45  P2B      -23.1040   34.3950   67.3670 P.3   1001  NAP1001     0.5328
     46  O1X      -23.1880   33.0970   68.1230 O.3   1001  NAP1001    -0.1145
     47  O2X      -24.3590   34.8500   66.6400 O.3   1001  NAP1001    -0.1145
     48  O3X      -21.8730   34.5060   66.5000 O.2   1001  NAP1001    -0.2224
@<TRIPOS>BOND
     1    48    45    2
     2    47    45    1
     3    45    46    1
     4    45    11    1
     5    11    10    1
     6     9     8    1
     7    10     8    1
     8    10    12    1
     9     8     6    1
    10    20    21    1
    11    20    19    1
    12    21    22    2
    13    19    17    2
    14    22    13    1
    15    22    16    1
    16    12    13    1
    17    12     7    1
    18    17    16    1
    19    17    18    1
    20    13    14    1
    21    16    15    2
    22    14    15    1
    23     6     7    1
    24     6     5    1
    25    32    31    1
    26     5     4    1
    27    25    24    2
    28    34    33    1
    29    31    33    1
    30    31    29    1
    31    33    35    1
    32     4     1    1
    33    24    23    1
    34    24    27    1
    35    24    26    1
    36    29    28    1
    37    29    30    1
    38    28    27    1
    39    23     1    1
    40     1     3    2
    41     1     2    1
    42    35    30    1
    43    35    36    1
    44    44    36    1
    45    44    43    2
    46    36    37    1
    47    43    42    1
    48    37    38    1
    49    42    38    2
    50    38    39    1
    51    39    40    2
    52    39    41   am
