@<TRIPOS>MOLECULE
3lnm_PGW_B_1.pdb
 19 18 0 0 0
SMALL
GASTEIGER

@<TRIPOS>ATOM
      1  C01        0.1200   51.9690  179.9410 C.3   601  PGW601      0.2556
      2  C1         0.2040   54.3240  178.5720 C.2   601  PGW601      0.3171
      3  O01        1.1680   54.0830  179.5020 O.3   601  PGW601     -0.4444
      4  C02        0.6860   53.2390  180.5590 C.3   601  PGW601      0.2556
      5  C2         0.6100   54.9130  177.2210 C.3   601  PGW601      0.1096
      6  O02       -0.9770   54.0840  178.8180 O.2   601  PGW601     -0.2501
      7  C3        -0.3200   54.4290  176.1060 C.3   601  PGW601      0.0116
      8  O03        1.0910   51.3620  179.0750 O.3   601  PGW601     -0.4444
      9  C4         0.1990   54.9150  174.7520 C.3   601  PGW601      0.0006
     10  O04       -0.5600   49.8710  178.7760 O.2   601  PGW601     -0.2501
     11  C5        -0.6630   54.4050  173.5960 C.3   601  PGW601      0.0000
     12  C6        -0.0850   54.8820  172.2620 C.3   601  PGW601      0.0000
     13  C7        -0.9400   54.4150  171.0830 C.3   601  PGW601      0.0000
     14  C8        -0.3490   54.9110  169.7630 C.3   601  PGW601      0.0000
     15  C9        -1.2070   54.4540  168.5820 C.3   601  PGW601      0.0000
     16  C19        0.5150   50.3330  178.3970 C.2   601  PGW601      0.3171
     17  C20        1.2180   49.7530  177.1690 C.3   601  PGW601      0.1096
     18  C21        0.1910   49.2280  176.1640 C.3   601  PGW601      0.0116
     19  C22        0.8780   48.6890  174.9070 C.3   601  PGW601      0.0006
@<TRIPOS>BOND
     1    15    14    1
     2    14    13    1
     3    13    12    1
     4    12    11    1
     5    11     9    1
     6     9     7    1
     7    19    18    1
     8     7     5    1
     9    18    17    1
    10    17    16    1
    11     5     2    1
    12    16    10    2
    13    16     8    1
    14     2     6    2
    15     2     3    1
    16     8     1    1
    17     3     4    1
    18     1     4    1
