@<TRIPOS>MOLECULE
3lns_NAP_A_1.pdb
 48 53 0 0 0
SMALL
GASTEIGER

@<TRIPOS>ATOM
      1  PA        12.6430   27.5590   56.6100 P.3   501  NAP501      0.2190
      2  O1A       11.2110   27.8790   56.4670 O.2   501  NAP501     -0.5170
      3  O2A       13.1600   26.4430   57.3920 O.3   501  NAP501     -0.4371
      4  O5B       13.3860   28.9530   57.0210 O.3   501  NAP501     -0.3085
      5  C5B       13.3820   30.1010   55.9990 C.3   501  NAP501      0.2077
      6  C4B       14.3270   30.9610   56.6430 C.3   501  NAP501      0.2468
      7  O4B       13.4380   31.2850   57.9230 O.3   501  NAP501     -0.2911
      8  C3B       15.4180   30.9410   57.3130 C.3   501  NAP501      0.2056
      9  O3B       15.2840   32.3200   57.2140 O.3   501  NAP501     -0.3249
     10  C2B       15.5380   30.4710   58.7120 C.3   501  NAP501      0.2308
     11  O2B       16.5200   30.9870   59.3630 O.3   501  NAP501     -0.2631
     12  C1B       14.2860   31.1000   59.0990 C.3   501  NAP501      0.3175
     13  N9A       13.4530   30.1150   59.9010 N.pl3 501  NAP501     -0.1439
     14  C8A       13.1590   28.7380   59.8360 C.3   501  NAP501      0.3377
     15  N7A       12.3550   28.3260   60.7950 N.2   501  NAP501     -0.2095
     16  C5A       12.0900   29.4520   61.5450 C.2   501  NAP501      0.2526
     17  C6A       11.2890   29.6720   62.7120 C.2   501  NAP501      0.4393
     18  N6A       10.6180   28.6800   63.2950 N.pl3 501  NAP501      0.2180
     19  N1A       11.2320   30.9580   63.2240 N.2   501  NAP501      0.0021
     20  C2A       11.9190   31.9540   62.6180 C.3   501  NAP501      0.5254
     21  N3A       12.6910   31.8180   61.5170 N.2   501  NAP501     -0.0055
     22  C4A       12.7390   30.5520   61.0250 C.2   501  NAP501      0.3518
     23  O3        13.0110   27.4330   55.0400 O.3   501  NAP501     -0.2703
     24  PN        14.2460   26.7400   54.1950 P.3   501  NAP501      0.2189
     25  O1N       15.4150   27.6470   54.3980 O.2   501  NAP501     -0.5170
     26  O2N       14.3000   25.3140   54.6740 O.3   501  NAP501     -0.4371
     27  O5D       13.8270   26.6140   52.6370 O.3   501  NAP501     -0.3112
     28  C5D       13.1950   25.4040   52.1120 C.3   501  NAP501      0.1813
     29  C4D       11.6760   25.6630   51.9990 C.3   501  NAP501      0.1799
     30  O4D       11.4320   26.9380   51.3890 O.3   501  NAP501     -0.3327
     31  C3D       10.8490   24.6860   51.1230 C.3   501  NAP501      0.2158
     32  O3D        9.4880   24.5120   51.5940 O.3   501  NAP501     -0.2175
     33  C2D       10.8700   25.2760   49.7450 C.3   501  NAP501      0.2309
     34  O2D        9.7760   24.9490   48.9250 O.3   501  NAP501     -0.2158
     35  C1D       10.7980   26.7580   50.1250 C.3   501  NAP501      0.2263
     36  N1N       11.3000   27.6860   49.1240 N.pl3 501  NAP501     -0.2787
     37  C2N       10.3860   28.5180   48.4380 C.3   501  NAP501      0.1244
     38  C3N       10.9530   29.4370   47.4840 C.2   501  NAP501      0.0544
     39  C7N       10.1450   30.3460   46.7090 C.2   501  NAP501      0.2818
     40  O7N       10.6860   31.2490   46.0510 O.2   501  NAP501     -0.2670
     41  N7N        8.8040   30.2110   46.7240 N.am  501  NAP501     -0.0839
     42  C4N       12.3530   29.4520   47.3300 C.2   501  NAP501      0.0033
     43  C5N       13.1860   28.6470   48.0160 C.2   501  NAP501      0.0157
     44  C6N       12.6780   27.7640   48.9270 C.2   501  NAP501      0.0633
     45  P2B       17.7150   29.9970   59.7870 P.3   501  NAP501      0.5328
     46  O1X       18.9160   30.8460   60.0790 O.3   501  NAP501     -0.1145
     47  O2X       17.1170   29.2980   60.9220 O.3   501  NAP501     -0.1145
     48  O3X       17.8950   29.1780   58.5870 O.2   501  NAP501     -0.2224
@<TRIPOS>BOND
     1    40    39    2
     2    39    41   am
     3    39    38    1
     4    42    38    2
     5    42    43    1
     6    38    37    1
     7    43    44    2
     8    37    36    1
     9    34    33    1
    10    44    36    1
    11    36    35    1
    12    33    35    1
    13    33    31    1
    14    35    30    1
    15    31    32    1
    16    31    29    1
    17    30    29    1
    18    29    28    1
    19    28    27    1
    20    27    24    1
    21    24    25    2
    22    24    26    1
    23    24    23    1
    24    23     1    1
    25     5     6    1
    26     5     4    1
    27     2     1    2
    28     1     4    1
    29     1     3    1
    30     6     9    1
    31     6     8    1
    32     6     7    1
    33     9     8    1
    34     8    10    1
    35     7    12    1
    36    48    45    2
    37    10    12    1
    38    10    11    1
    39    12    13    1
    40    11    45    1
    41    45    46    1
    42    45    47    1
    43    14    13    1
    44    14    15    1
    45    13    22    1
    46    15    16    2
    47    22    21    2
    48    22    16    1
    49    21    20    1
    50    16    17    1
    51    20    19    1
    52    17    19    2
    53    17    18    1
