@<TRIPOS>MOLECULE
3lnv_1ZZ_A_1.pdb
 36 38 0 0 0
SMALL
GASTEIGER

@<TRIPOS>ATOM
      1  P         22.1770   29.5960   35.4650 P.3   589  1ZZ589      0.2722
      2  C1         7.9040   31.2460   38.6160 C.3   589  1ZZ589      0.0000
      3  N1        21.4370   35.4550   33.0380 N.pl3 589  1ZZ589     -0.1439
      4  O1        19.8340   31.2920   34.1270 O.2   589  1ZZ589     -0.2498
      5  C2         8.9530   31.7210   37.6150 C.3   589  1ZZ589      0.0000
      6  N2        19.4100   36.0150   33.7050 N.2   589  1ZZ589     -0.2095
      7  O2        20.6220   29.9900   35.9570 O.3   589  1ZZ589     -0.4101
      8  C3        10.3190   31.7830   38.2860 C.3   589  1ZZ589      0.0000
      9  N3        21.8350   37.5090   31.5770 N.2   589  1ZZ589     -0.0055
     10  O3        23.0450   29.5420   36.5390 O.3   589  1ZZ589     -0.4273
     11  C4        11.5390   31.5400   37.4210 C.3   589  1ZZ589      0.0000
     12  N4        20.0130   39.0430   31.6120 N.2   589  1ZZ589      0.0021
     13  O4        22.1180   28.2270   34.7240 O.2   589  1ZZ589     -0.5082
     14  C5        12.4090   32.7440   37.9150 C.3   589  1ZZ589      0.0000
     15  N5        18.0840   38.6550   32.7690 N.pl3 589  1ZZ589      0.2180
     16  O5        22.7410   30.8290   34.5760 O.3   589  1ZZ589     -0.3024
     17  C6        13.4570   33.2920   36.8970 C.3   589  1ZZ589      0.0000
     18  O6        22.6670   33.3110   33.1430 O.3   589  1ZZ589     -0.3135
     19  C7        14.6860   34.1200   37.2890 C.3   589  1ZZ589      0.0000
     20  O7        24.7860   35.2910   33.0560 O.3   589  1ZZ589     -0.2130
     21  C8        16.1490   33.5980   37.1360 C.3   589  1ZZ589      0.0000
     22  O8        24.7790   34.5420   35.6110 O.3   589  1ZZ589     -0.2174
     23  C9        16.5360   33.0760   35.7650 C.3   589  1ZZ589      0.0006
     24  C10       18.0790   32.9230   35.5620 C.3   589  1ZZ589      0.0117
     25  C11       18.6280   31.6060   36.1600 C.3   589  1ZZ589      0.1098
     26  C12       19.9450   31.1570   35.4860 C.2   589  1ZZ589      0.3210
     27  C13       22.8010   32.1470   35.0780 C.3   589  1ZZ589      0.1823
     28  C14       23.3600   33.1010   34.2020 C.3   589  1ZZ589      0.1822
     29  C15       23.7800   34.5190   34.7570 C.3   589  1ZZ589      0.2184
     30  C16       23.8620   35.2770   33.6620 C.3   589  1ZZ589      0.2570
     31  C17       22.6590   34.7790   32.9820 C.3   589  1ZZ589      0.3186
     32  C18       20.3070   35.1670   33.8560 C.3   589  1ZZ589      0.3377
     33  C19       19.9510   37.0370   32.8400 C.2   589  1ZZ589      0.2526
     34  C20       21.1140   36.6920   32.4610 C.2   589  1ZZ589      0.3518
     35  C21       21.3050   38.6180   31.1320 C.3   589  1ZZ589      0.5254
     36  C22       19.3540   38.3040   32.3070 C.2   589  1ZZ589      0.4393
@<TRIPOS>BOND
     1    35     9    1
     2    35    12    1
     3     9    34    2
     4    12    36    2
     5    36    15    1
     6    36    33    1
     7    34    33    1
     8    34     3    1
     9    33     6    2
    10    31     3    1
    11    31    18    1
    12    31    30    1
    13     3    32    1
    14    20    30    1
    15    18    28    1
    16    30    29    1
    17     6    32    1
    18     4    26    2
    19    28    29    1
    20    28    27    1
    21    16    27    1
    22    16     1    1
    23    13     1    2
    24    29    22    1
    25     1     7    1
    26     1    10    1
    27    26     7    1
    28    26    25    1
    29    24    23    1
    30    24    25    1
    31    23    21    1
    32    17    19    1
    33    17    14    1
    34    21    19    1
    35    11    14    1
    36    11     8    1
    37     5     8    1
    38     5     2    1
