@<TRIPOS>MOLECULE
3lo5_GDP_A_1.pdb
 28 30 0 0 0
SMALL
GASTEIGER

@<TRIPOS>ATOM
      1  PB       -14.5140  -10.3540  -40.8570 P.3   180  GDP180      0.5373
      2  O1B      -13.7310  -11.6450  -40.7880 O.3   180  GDP180     -0.1143
      3  O2B      -14.9670  -10.1600  -42.2760 O.2   180  GDP180     -0.2221
      4  O3B      -13.6390   -9.2090  -40.4080 O.3   180  GDP180     -0.1143
      5  O3A      -15.8140  -10.4590  -39.9200 O.3   180  GDP180     -0.2261
      6  PA       -16.2000   -9.3490  -38.8150 P.3   180  GDP180      0.2231
      7  O1A      -16.5000   -8.0210  -39.4560 O.2   180  GDP180     -0.5169
      8  O2A      -15.1520   -9.2160  -37.7380 O.3   180  GDP180     -0.4370
      9  O5'      -17.5410  -10.0020  -38.2210 O.3   180  GDP180     -0.3111
     10  C5'      -18.7610   -9.8710  -38.9400 C.3   180  GDP180      0.1813
     11  C4'      -19.8960   -9.9600  -37.9430 C.3   180  GDP180      0.1799
     12  O4'      -19.7040  -11.1100  -37.1160 O.3   180  GDP180     -0.3326
     13  C3'      -19.8600   -8.7500  -37.0320 C.3   180  GDP180      0.2158
     14  O3'      -21.1970   -8.2780  -36.8740 O.3   180  GDP180     -0.2175
     15  C2'      -19.3360   -9.2720  -35.7120 C.3   180  GDP180      0.2310
     16  O2'      -19.9200   -8.5810  -34.6090 O.3   180  GDP180     -0.2158
     17  C1'      -19.7580  -10.7270  -35.7390 C.3   180  GDP180      0.2293
     18  N9       -18.8670  -11.5930  -34.9320 N.pl3 180  GDP180     -0.2354
     19  C8       -17.5290  -11.7030  -35.0380 C.3   180  GDP180      0.2246
     20  N7       -17.0480  -12.6080  -34.1460 N.2   180  GDP180     -0.2322
     21  C5       -18.0980  -13.1000  -33.4600 C.2   180  GDP180      0.2182
     22  C6       -18.3060  -14.0900  -32.3780 C.1   180  GDP180      0.2372
     23  O6       -17.3440  -14.7080  -31.8730 O.2   180  GDP180     -0.2069
     24  N1       -19.5590  -14.3020  -31.9540 N.2   180  GDP180     -0.2485
     25  C2       -20.6210  -13.6600  -32.4720 C.1   180  GDP180      0.2531
     26  N2       -21.8530  -13.9430  -31.9800 N.pl3 180  GDP180     -0.0226
     27  N3       -20.5060  -12.7420  -33.4660 N.2   180  GDP180     -0.3074
     28  C4       -19.2940  -12.4300  -33.9850 C.2   180  GDP180      0.2300
@<TRIPOS>BOND
     1     3     1    2
     2     1     2    1
     3     1     4    1
     4     1     5    1
     5     5     6    1
     6     7     6    2
     7    10     9    1
     8    10    11    1
     9     6     9    1
    10     6     8    1
    11    11    12    1
    12    11    13    1
    13    12    17    1
    14    13    14    1
    15    13    15    1
    16    17    15    1
    17    17    18    1
    18    15    16    1
    19    19    18    1
    20    19    20    1
    21    18    28    1
    22    20    21    2
    23    28    27    2
    24    28    21    1
    25    27    25    2
    26    21    22    1
    27    25    26    1
    28    25    24    2
    29    22    24    2
    30    22    23    2
