@<TRIPOS>MOLECULE
3loj_DUP_A_1.pdb
 28 29 0 0 0
SMALL
GASTEIGER

@<TRIPOS>ATOM
      1  O4       -16.7250   14.9130   -0.0540 O.2   201  DUP201     -0.2085
      2  C4       -15.9430   14.1030    0.4330 C.1   201  DUP201      0.2182
      3  C5       -16.2600   12.8600    0.9530 C.2   201  DUP201      0.1242
      4  C6       -15.3200   12.0630    1.4530 C.2   201  DUP201      0.0928
      5  N3       -14.6000   14.4720    0.4740 N.2   201  DUP201     -0.2452
      6  C2       -13.6550   13.7060    0.9980 C.1   201  DUP201      0.2844
      7  O2       -12.4530   14.1370    1.0240 O.2   201  DUP201     -0.1918
      8  N1       -13.9880   12.5440    1.5100 N.am  201  DUP201     -0.1790
      9  C1'      -12.9260   11.6660    2.1830 C.3   201  DUP201      0.2090
     10  C2'      -13.0780   11.6650    3.7170 C.3   201  DUP201      0.0874
     11  C3'      -13.9360   10.4470    3.9530 C.3   201  DUP201      0.1857
     12  O3'      -13.6250    9.9750    5.2910 O.3   201  DUP201     -0.2203
     13  O4'      -13.1740   10.2810    1.7890 O.3   201  DUP201     -0.3339
     14  C4'      -13.3930    9.4920    2.9140 C.3   201  DUP201      0.1774
     15  C5'      -14.3130    8.3220    2.5340 C.3   201  DUP201      0.1848
     16  O5'      -15.5950    8.9530    2.2100 O.3   201  DUP201     -0.2775
     17  PA       -16.7270    7.9490    1.6700 P.3   201  DUP201      0.4623
     18  O1A      -16.8470    6.8620    2.6510 O.3   201  DUP201     -0.1255
     19  O2A      -17.9640    8.8000    1.4800 O.2   201  DUP201     -0.2354
     20  N3A      -16.2270    7.4040    0.3120 N.3   201  DUP201     -0.0179
     21  PB       -15.8280    5.8670   -0.1070 P.3   201  DUP201      0.4700
     22  O1B      -16.7000    4.8700    0.6430 O.3   201  DUP201     -0.1252
     23  O2B      -15.7390    5.7460   -1.5590 O.2   201  DUP201     -0.2350
     24  O3B      -14.3130    5.6950    0.4300 O.3   201  DUP201     -0.1901
     25  PG       -13.7640    4.6210    1.4700 P.3   201  DUP201      0.5397
     26  O2G      -14.6550    4.6520    2.6110 O.3   201  DUP201     -0.1143
     27  O1G      -13.8700    3.3290    0.6910 O.2   201  DUP201     -0.2220
     28  O3G      -12.3440    5.1980    1.7690 O.3   201  DUP201     -0.1143
@<TRIPOS>BOND
     1    23    21    2
     2    21    20    1
     3    21    24    1
     4    21    22    1
     5     1     2    2
     6    20    17    1
     7    24    25    1
     8     2     5    2
     9     2     3    1
    10     5     6    2
    11    27    25    2
    12     3     4    2
    13     6     7    2
    14     6     8   am
    15     4     8    1
    16    25    28    1
    17    25    26    1
    18    19    17    2
    19     8     9    1
    20    17    16    1
    21    17    18    1
    22    13     9    1
    23    13    14    1
    24     9    10    1
    25    16    15    1
    26    15    14    1
    27    14    11    1
    28    10    11    1
    29    11    12    1
