@<TRIPOS>MOLECULE
3lok_DJK_A_1.pdb
 23 25 0 0 0
SMALL
GASTEIGER

@<TRIPOS>ATOM
      1  C51        6.4360   -8.1200    1.7340 C.3   1345  DJK1345     0.0101
      2  C11        6.1430   -9.2600    0.7680 C.3   1345  DJK1345     0.0872
      3  C10        6.2560   -8.7840   -0.6680 C.2   1345  DJK1345     0.2455
      4  O61        5.3480   -8.1310   -1.1940 O.2   1345  DJK1345    -0.2730
      5  N11        7.3680   -9.1660   -1.3340 N.am  1345  DJK1345    -0.1795
      6  C9         8.1960   -8.5570   -2.2620 C.2   1345  DJK1345     0.0698
      7  C8         7.8030   -7.7350   -3.3350 C.2   1345  DJK1345     0.0250
      8  C13        9.5580   -8.8760   -2.1310 C.2   1345  DJK1345    -0.0032
      9  C17       10.5300   -8.3840   -3.0090 C.3   1345  DJK1345     0.0731
     10  C18       10.1530   -7.5440   -4.0600 C.2   1345  DJK1345     0.0699
     11  C7         8.7870   -7.2270   -4.2200 C.2   1345  DJK1345     0.1008
     12  C6         8.4670   -6.3810   -5.3000 C.2   1345  DJK1345     0.3642
     13  N3         9.4980   -5.9280   -6.1090 N.2   1345  DJK1345    -0.0327
     14  C19       10.7910   -6.2460   -5.9210 C.3   1345  DJK1345     0.3917
     15  N2        11.1160   -7.0470   -4.9030 N.2   1345  DJK1345    -0.2225
     16  N1         7.1390   -6.0340   -5.4910 N.pl3 1345  DJK1345    -0.0060
     17  C5         6.6030   -5.2460   -6.4780 C.ar  1345  DJK1345     0.1839
     18  C4         7.1360   -5.1990   -7.7810 C.ar  1345  DJK1345     0.0511
     19  C20        5.4770   -4.4800   -6.1900 C.ar  1345  DJK1345     0.0444
     20  C21        4.9090   -3.6760   -7.1810 C.ar  1345  DJK1345     0.0041
     21  C22        5.4490   -3.6320   -8.4790 C.ar  1345  DJK1345     0.0069
     22  C3         6.5770   -4.3980   -8.7810 C.ar  1345  DJK1345     0.0381
     23 BR          7.3390   -4.3870  -10.5140 Br    1345  DJK1345    -0.0489
@<TRIPOS>BOND
     1    23    22    1
     2    22    21   ar
     3    22    18   ar
     4    21    20   ar
     5    18    17   ar
     6    20    19   ar
     7    17    19   ar
     8    17    16    1
     9    13    14    1
    10    13    12    2
    11    14    15    1
    12    16    12    1
    13    12    11    1
    14    15    10    2
    15    11    10    1
    16    11     7    2
    17    10     9    1
    18     7     6    1
    19     9     8    1
    20     6     8    2
    21     6     5    1
    22     5     3   am
    23     4     3    2
    24     3     2    1
    25     2     1    1
