@<TRIPOS>MOLECULE
3lon_NNA_A_1.pdb
 49 52 0 0 0
SMALL
GASTEIGER

@<TRIPOS>ATOM
      1  C1       192.0900  -10.2800   48.6400 C.2   999  NNA999      0.3396
      2  O2       192.6130  -11.3290   49.0380 O.2   999  NNA999     -0.2492
      3  N3       190.7730  -10.0870   48.6220 N.am  999  NNA999     -0.1889
      4  C4       189.7280  -11.0230   49.0550 C.3   999  NNA999      0.1021
      5  C5       190.0760  -11.8790   50.3310 C.3   999  NNA999      0.0218
      6  C6       188.4200  -10.1990   49.3560 C.3   999  NNA999      0.0218
      7  C7       190.1980  -10.9540   51.5460 C.3   999  NNA999      0.0018
      8  C8       188.6420   -9.2510   50.5600 C.3   999  NNA999      0.0018
      9  C9       188.9590  -10.0980   51.7850 C.3   999  NNA999      0.0001
     10  C10      189.4590  -11.9690   47.8880 C.3   999  NNA999      0.1705
     11  S11      188.9260  -11.2410   46.3010 S.O2  999  NNA999     -0.0115
     12  O12      189.7480  -10.0800   46.0960 O.2   999  NNA999     -0.1730
     13  O13      187.5200  -11.0300   46.4370 O.2   999  NNA999     -0.1730
     14  C14      189.2700  -12.4540   45.0400 C.3   999  NNA999      0.1108
     15  C15      190.8070  -12.6710   44.9120 C.3   999  NNA999      0.0236
     16  C16      188.6960  -12.0210   43.6630 C.3   999  NNA999      0.0236
     17  C17      188.6120  -13.7740   45.4680 C.3   999  NNA999      0.0236
     18  N18      192.8030   -9.2590   48.1800 N.am  999  NNA999     -0.1796
     19  C19      194.2580   -9.2990   48.1420 C.3   999  NNA999      0.1727
     20  C20      194.8360   -8.7410   46.7810 C.3   999  NNA999      0.0270
     21  C21      196.3930   -8.6870   46.9010 C.3   999  NNA999      0.0022
     22  C22      194.4250   -9.6870   45.6010 C.3   999  NNA999      0.0022
     23  C23      194.2470   -7.3240   46.4500 C.3   999  NNA999      0.0022
     24  C24      194.7960   -8.5260   49.3430 C.2   999  NNA999      0.2459
     25  O25      194.5630   -7.3200   49.4650 O.2   999  NNA999     -0.2730
     26  N26      195.4570   -9.2260   50.2820 N.am  999  NNA999     -0.2716
     27  C27      195.7360  -10.6710   50.2960 C.3   999  NNA999      0.0939
     28  C28      196.0050   -8.5610   51.4670 C.3   999  NNA999      0.1535
     29  C29      196.4850   -9.6540   52.3480 C.3   999  NNA999      0.0289
     30  C30      196.1760  -10.9660   51.7110 C.3   999  NNA999      0.0220
     31  C31      195.4970  -10.6060   53.0280 C.3   999  NNA999      0.0037
     32  C32      195.9570  -11.2480   54.2970 C.3   999  NNA999      0.0001
     33  C33      194.0150  -10.3870   52.9400 C.3   999  NNA999      0.0001
     34  C34      197.0550   -7.5250   51.0890 C.2   999  NNA999      0.2595
     35  O35      198.1170   -7.8620   50.5510 O.2   999  NNA999     -0.2716
     36  N36      196.7360   -6.2610   51.3540 N.am  999  NNA999     -0.2027
     37  C37      197.6340   -5.1560   51.0330 C.3   999  NNA999      0.1347
     38  C38      196.8630   -4.0510   50.2920 C.3   999  NNA999      0.0248
     39  C39      196.9050   -4.1950   48.7860 C.3   999  NNA999      0.0019
     40  C40      195.5270   -4.1000   48.1990 C.3   999  NNA999      0.0001
     41  C41      195.7040   -3.6180   46.7810 C.3   999  NNA999      0.0000
     42  O42      198.9630   -5.7280   52.9930 O.3   999  NNA999     -0.2113
     43  C43      198.3940   -4.5880   52.2650 C.3   999  NNA999      0.2487
     44  O44      199.3480   -2.7160   51.1420 O.2   999  NNA999     -0.2705
     45  N45      200.8230   -4.2940   51.7470 N.am  999  NNA999     -0.2050
     46  C46      201.5970   -4.6280   50.5540 C.3   999  NNA999      0.0955
     47  C47      202.8930   -3.9270   50.3280 C.3   999  NNA999      0.0234
     48  C48      201.7410   -3.6630   49.4260 C.3   999  NNA999      0.0234
     49  C49      199.5920   -3.7960   51.6720 C.2   999  NNA999      0.2736
@<TRIPOS>BOND
     1    16    14    1
     2    15    14    1
     3    14    17    1
     4    14    11    1
     5    22    20    1
     6    12    11    2
     7    11    13    2
     8    11    10    1
     9    23    20    1
    10    20    21    1
    11    20    19    1
    12    41    40    1
    13    10     4    1
    14    19    18    1
    15    19    24    1
    16    18     1   am
    17    40    39    1
    18     3     1   am
    19     3     4    1
    20     1     2    2
    21    39    38    1
    22     4     6    1
    23     4     5    1
    24    24    25    2
    25    24    26   am
    26     6     8    1
    27    48    47    1
    28    48    46    1
    29    26    27    1
    30    26    28    1
    31    38    37    1
    32    27    30    1
    33    47    46    1
    34     5     7    1
    35    35    34    2
    36    46    45    1
    37     8     9    1
    38    37    36    1
    39    37    43    1
    40    34    36   am
    41    34    28    1
    42    44    49    2
    43    28    29    1
    44     7     9    1
    45    49    45   am
    46    49    43    1
    47    30    29    1
    48    30    31    1
    49    43    42    1
    50    29    31    1
    51    33    31    1
    52    31    32    1
