@<TRIPOS>MOLECULE
3loq_AMP_A_1.pdb
 23 25 0 0 0
SMALL
GASTEIGER

@<TRIPOS>ATOM
      1  P         60.7710   62.9230   22.5240 P.3   271  AMP271      0.5327
      2  O1P       61.6570   62.3910   23.6210 O.3   271  AMP271     -0.1145
      3  O2P       59.7740   63.9970   22.9190 O.3   271  AMP271     -0.1145
      4  O3P       61.5170   63.2130   21.2430 O.2   271  AMP271     -0.2224
      5  O5'       59.8280   61.6630   22.1660 O.3   271  AMP271     -0.2675
      6  C5'       58.9200   61.7830   21.0750 C.3   271  AMP271      0.1860
      7  C4'       57.8310   60.7690   21.3040 C.3   271  AMP271      0.1823
      8  O4'       57.0010   61.1820   22.3910 O.3   271  AMP271     -0.3135
      9  C3'       56.8790   60.7070   20.1390 C.3   271  AMP271      0.2184
     10  O3'       57.3810   59.7920   19.1860 O.3   271  AMP271     -0.2174
     11  C2'       55.6260   60.1710   20.7820 C.3   271  AMP271      0.2570
     12  O2'       55.7980   58.7600   20.8970 O.3   271  AMP271     -0.2130
     13  C1'       55.6500   60.7690   22.1720 C.3   271  AMP271      0.3186
     14  N9        54.7850   61.9680   22.1700 N.pl3 271  AMP271     -0.1439
     15  C8        55.2170   63.2430   22.1140 C.3   271  AMP271      0.3377
     16  N7        54.1720   64.1110   22.1230 N.2   271  AMP271     -0.2095
     17  C5        53.0420   63.3740   22.1830 C.2   271  AMP271      0.2526
     18  C6        51.5970   63.6520   22.2220 C.2   271  AMP271      0.4393
     19  N6        51.1400   64.9220   22.2040 N.pl3 271  AMP271      0.2180
     20  N1        50.7550   62.6070   22.2840 N.2   271  AMP271      0.0021
     21  C2        51.1970   61.3370   22.3110 C.3   271  AMP271      0.5254
     22  N3        52.4940   61.0100   22.2820 N.2   271  AMP271     -0.0055
     23  C4        53.4480   61.9680   22.2250 C.2   271  AMP271      0.3518
@<TRIPOS>BOND
     1    10     9    1
     2     9    11    1
     3     9     7    1
     4    11    12    1
     5    11    13    1
     6     6     7    1
     7     6     5    1
     8     4     1    2
     9     7     8    1
    10    15    16    1
    11    15    14    1
    12    16    17    2
    13     5     1    1
    14    14    13    1
    15    14    23    1
    16    13     8    1
    17    17    18    1
    18    17    23    1
    19    19    18    1
    20    18    20    2
    21    23    22    2
    22    22    21    1
    23    20    21    1
    24     1     3    1
    25     1     2    1
