@<TRIPOS>MOLECULE
3lox_MCX_A_1.pdb
 40 43 0 0 0
SMALL
GASTEIGER

@<TRIPOS>ATOM
      1  C1       191.9840  -10.5550   48.6290 C.2   999  MCX999      0.3395
      2  O2       192.5240  -11.6020   49.0190 O.2   999  MCX999     -0.2492
      3  N3       190.6720  -10.3400   48.7070 N.am  999  MCX999     -0.1906
      4  C4       189.7200  -11.3360   49.2460 C.3   999  MCX999      0.0803
      5  C5       189.6260  -12.4860   48.2590 C.3   999  MCX999      0.0218
      6  C6       188.3070  -10.7100   49.3590 C.3   999  MCX999      0.0201
      7  C7       188.2710   -9.6810   50.4650 C.3   999  MCX999      0.0017
      8  C8       188.6440  -10.3270   51.7930 C.3   999  MCX999      0.0001
      9  C9       190.0380  -10.9510   51.7250 C.3   999  MCX999      0.0017
     10  C10      190.1240  -11.9670   50.6020 C.3   999  MCX999      0.0201
     11  N11      192.6760   -9.5580   48.0900 N.am  999  MCX999     -0.1796
     12  C12      194.1320   -9.5360   48.1240 C.3   999  MCX999      0.1727
     13  C13      194.7250   -8.9530   46.8050 C.3   999  MCX999      0.0270
     14  C14      196.2520   -8.8660   46.9590 C.3   999  MCX999      0.0022
     15  C15      194.3760   -9.9340   45.6680 C.3   999  MCX999      0.0022
     16  C16      194.2150   -7.5510   46.3770 C.3   999  MCX999      0.0022
     17  C17      194.5750   -8.7350   49.3400 C.2   999  MCX999      0.2459
     18  O18      194.2300   -7.5600   49.4730 O.2   999  MCX999     -0.2730
     19  N19      195.2460   -9.3920   50.2980 N.am  999  MCX999     -0.2716
     20  C20      195.5670  -10.8260   50.3820 C.3   999  MCX999      0.0939
     21  C21      195.6990   -8.6650   51.4840 C.3   999  MCX999      0.1535
     22  C22      196.2280   -9.6530   52.4360 C.3   999  MCX999      0.0289
     23  C23      196.3550  -10.9060   51.6490 C.3   999  MCX999      0.0220
     24  C24      195.4980  -10.8660   52.9250 C.3   999  MCX999      0.0037
     25  C25      196.0510  -11.5240   54.1300 C.3   999  MCX999      0.0001
     26  C26      193.9830  -10.8780   52.8280 C.3   999  MCX999      0.0001
     27  C27      196.7210   -7.6350   51.0420 C.2   999  MCX999      0.2595
     28  O28      197.7060   -7.9780   50.3890 O.2   999  MCX999     -0.2716
     29  N29      196.4660   -6.3720   51.3730 N.am  999  MCX999     -0.2027
     30  C30      197.3450   -5.2790   50.9840 C.3   999  MCX999      0.1347
     31  C31      196.5500   -4.2430   50.1850 C.3   999  MCX999      0.0248
     32  C32      195.9650   -4.7170   48.8280 C.3   999  MCX999      0.0018
     33  C33      196.9240   -4.9110   47.6170 C.3   999  MCX999      0.0001
     34  C34      195.2030   -3.6510   48.0150 C.3   999  MCX999      0.0001
     35  C35      195.9710   -4.0650   46.7490 C.3   999  MCX999      0.0000
     36  O36      198.6090   -5.6530   53.0430 O.3   999  MCX999     -0.2113
     37  C37      198.0920   -4.6080   52.1680 C.3   999  MCX999      0.2503
     38  O38      199.0230   -2.5960   51.3360 O.2   999  MCX999     -0.2688
     39  N39      200.4210   -4.3390   51.2580 N.am  999  MCX999     -0.0855
     40  C40      199.2510   -3.7820   51.5480 C.2   999  MCX999      0.2929
@<TRIPOS>BOND
     1    15    13    1
     2    16    13    1
     3    35    33    1
     4    35    34    1
     5    13    14    1
     6    13    12    1
     7    33    32    1
     8    34    32    1
     9    11    12    1
    10    11     1   am
    11    12    17    1
    12     5     4    1
    13     1     3   am
    14     1     2    2
    15     3     4    1
    16    32    31    1
    17     4     6    1
    18     4    10    1
    19    17    18    2
    20    17    19   am
    21     6     7    1
    22    31    30    1
    23    19    20    1
    24    19    21    1
    25    20    23    1
    26    28    27    2
    27     7     8    1
    28    10     9    1
    29    30    29    1
    30    30    37    1
    31    27    29   am
    32    27    21    1
    33    39    40   am
    34    38    40    2
    35    21    22    1
    36    40    37    1
    37    23    22    1
    38    23    24    1
    39     9     8    1
    40    37    36    1
    41    22    24    1
    42    26    24    1
    43    24    25    1
