@<TRIPOS>MOLECULE
3lp0_LP7_A_1.pdb
 18 19 0 0 0
SMALL
GASTEIGER

@<TRIPOS>ATOM
      1  C         -2.0410   70.9810   30.6270 C.ar  601  LP7601      0.0209
      2  N         -3.9600   72.0390   31.6460 N.ar  601  LP7601     -0.2236
      3  O          0.3750   73.5500   32.8800 O.3   601  LP7601     -0.2861
      4  C1        -3.4130   71.1280   30.8040 C.ar  601  LP7601      0.1006
      5  C2        -1.2090   71.8230   31.3620 C.ar  601  LP7601      0.0079
      6  C3        -1.7300   72.7750   32.2400 C.ar  601  LP7601      0.0767
      7  C4        -3.1240   72.8450   32.3470 C.ar  601  LP7601      0.1895
      8  N5        -3.6420   73.7700   33.1990 N.ar  601  LP7601     -0.0735
      9  C6        -2.9370   74.6440   33.9690 C.ar  601  LP7601      0.3072
     10  C7        -1.5390   74.5780   33.8650 C.ar  601  LP7601      0.1734
     11  C8        -0.9470   73.6440   33.0030 C.ar  601  LP7601      0.2096
     12  O9        -5.0310   73.8160   33.2860 O.3   601  LP7601     -0.1588
     13  O10       -3.5150   75.5240   34.7850 O.2   601  LP7601     -0.2634
     14  C11       -0.6560   75.4900   34.6700 C.2   601  LP7601      0.3492
     15  O12       -0.8490   76.6890   34.8100 O.2   601  LP7601     -0.2446
     16  O13        0.3540   74.7940   35.2070 O.3   601  LP7601     -0.4453
     17  C14        0.0630   74.0480   36.4220 C.3   601  LP7601      0.2089
     18  C15        1.1480   72.9870   36.6250 C.3   601  LP7601      0.0513
@<TRIPOS>BOND
     1     1     4   ar
     2     1     5   ar
     3     4     2   ar
     4     5     6   ar
     5     2     7   ar
     6     6     7   ar
     7     6    11   ar
     8     7     8   ar
     9     3    11    1
    10    11    10   ar
    11     8    12    1
    12     8     9   ar
    13    10     9   ar
    14    10    14    1
    15     9    13    2
    16    14    15    2
    17    14    16    1
    18    16    17    1
    19    17    18    1
