@<TRIPOS>MOLECULE
3lp0_NVP_A_1.pdb
 20 23 0 0 0
SMALL
GASTEIGER

@<TRIPOS>ATOM
      1  N1        10.9400   13.5850   16.3410 N.pl3 701  NVP701     -0.1386
      2  CA        11.9700   13.6310   15.2960 C.3   701  NVP701      0.1685
      3  CB        13.4020   13.2480   15.6880 C.3   701  NVP701      0.0512
      4  CC        12.5410   12.2770   14.8730 C.3   701  NVP701      0.0512
      5  N3        11.7300   15.6450   17.2470 N.2   701  NVP701     -0.0574
      6  C4        11.7880   16.4730   18.3360 C.3   701  NVP701      0.2894
      7  C5        11.1450   16.1850   19.5420 C.2   701  NVP701      0.0296
      8  C6        10.7090   14.8800   19.7570 C.2   701  NVP701      0.0161
      9  CD        10.3670   14.4410   21.1630 C.3   701  NVP701      0.0338
     10  C2        11.1260   14.4220   17.4130 C.2   701  NVP701      0.3560
     11  C7        10.6910   13.9830   18.6800 C.2   701  NVP701      0.2215
     12  N8        10.0600   12.7850   18.7850 N.2   701  NVP701     -0.3286
     13  C9         9.0530   12.1900   18.0870 C.1   701  NVP701      0.1916
     14  OE         8.3220   11.4090   18.6880 O.2   701  NVP701     -0.2136
     15  C10        8.8560   12.4120   16.7090 C.3   701  NVP701      0.2279
     16  C15        9.6600   13.2920   15.9350 C.2   701  NVP701      0.3236
     17  C11        7.6310   12.0220   16.1540 C.3   701  NVP701      0.0601
     18  C12        7.1840   12.5580   14.9430 C.2   701  NVP701      0.0261
     19  C13        8.0940   13.2750   14.1570 C.2   701  NVP701      0.2309
     20  N14        9.3550   13.5650   14.6160 N.2   701  NVP701     -0.0394
@<TRIPOS>BOND
     1    19    20    1
     2    19    18    2
     3    20    16    2
     4     4     2    1
     5     4     3    1
     6    18    17    1
     7     2     3    1
     8     2     1    1
     9    16     1    1
    10    16    15    1
    11    17    15    1
    12     1    10    1
    13    15    13    1
    14     5    10    2
    15     5     6    1
    16    10    11    1
    17    13    14    2
    18    13    12    2
    19     6     7    1
    20    11    12    2
    21    11     8    1
    22     7     8    2
    23     8     9    1
