@<TRIPOS>MOLECULE
3lp1_NVP_A_1.pdb
 20 23 0 0 0
SMALL
GASTEIGER

@<TRIPOS>ATOM
      1  N1        10.9170   13.7900   17.0500 N.pl3 701  NVP701     -0.1389
      2  CA        12.0120   13.8720   16.0690 C.3   701  NVP701      0.1685
      3  CB        13.4370   13.5170   16.5110 C.3   701  NVP701      0.0512
      4  CC        12.6420   12.5400   15.6470 C.3   701  NVP701      0.0512
      5  N3        11.5560   15.8480   18.0270 N.2   701  NVP701     -0.0628
      6  C4        11.6170   16.6540   19.1170 C.3   701  NVP701      0.2637
      7  C5        10.9940   16.3050   20.3120 C.3   701  NVP701      0.0652
      8  C6        10.6510   14.9670   20.4940 C.3   701  NVP701      0.0654
      9  CD        10.3750   14.4720   21.8910 C.3   701  NVP701      0.0079
     10  C2        11.0110   14.6070   18.1450 C.2   701  NVP701      0.3517
     11  C7        10.5730   14.1170   19.3840 C.2   701  NVP701      0.2029
     12  N8         9.8000   13.0010   19.4440 N.2   701  NVP701     -0.3328
     13  C9         8.8670   12.4420   18.6300 C.1   701  NVP701      0.1913
     14  OE         8.2120   11.4970   19.0460 O.2   701  NVP701     -0.2136
     15  C10        8.6950   12.8430   17.2980 C.3   701  NVP701      0.2278
     16  C15        9.6720   13.5230   16.5380 C.2   701  NVP701      0.3236
     17  C11        7.4230   12.7050   16.7240 C.3   701  NVP701      0.0601
     18  C12        7.2630   12.8470   15.3440 C.2   701  NVP701      0.0261
     19  C13        8.3340   13.3550   14.6140 C.2   701  NVP701      0.2309
     20  N14        9.4490   13.8250   15.2270 N.2   701  NVP701     -0.0394
@<TRIPOS>BOND
     1    19    20    1
     2    19    18    2
     3    20    16    2
     4    18    17    1
     5     4     2    1
     6     4     3    1
     7     2     3    1
     8     2     1    1
     9    16     1    1
    10    16    15    1
    11    17    15    1
    12     1    10    1
    13    15    13    1
    14     5    10    2
    15     5     6    1
    16    10    11    1
    17    13    14    2
    18    13    12    2
    19     6     7    1
    20    11    12    2
    21    11     8    1
    22     7     8    1
    23     8     9    1
