@<TRIPOS>MOLECULE
3lp1_LP8_A_1.pdb
 18 20 0 0 0
SMALL
GASTEIGER

@<TRIPOS>ATOM
      1  C         -3.6770   74.2700   34.2670 C.ar  601  LP8601      0.2970
      2  N         -4.1660   73.3390   33.4110 N.ar  601  LP8601     -0.0741
      3  O         -5.5480   73.2280   33.3130 O.3   601  LP8601     -0.1588
      4  C1        -1.4930   73.5220   33.5850 C.ar  601  LP8601      0.1993
      5  C2        -2.2800   74.3790   34.3660 C.ar  601  LP8601      0.0756
      6  O3        -4.4980   75.0450   34.9750 O.2   601  LP8601     -0.2640
      7  C4        -3.4520   72.4910   32.6350 C.ar  601  LP8601      0.1895
      8  C5        -2.0610   72.5830   32.7230 C.ar  601  LP8601      0.0762
      9  C6        -1.3150   71.7140   31.9250 C.ar  601  LP8601      0.0079
     10  C7        -1.9420   70.7980   31.0830 C.ar  601  LP8601      0.0209
     11  C8        -3.3340   70.7840   31.0690 C.ar  601  LP8601      0.1006
     12  N9        -4.0920   71.6110   31.8270 N.ar  601  LP8601     -0.2236
     13  O10       -0.1610   73.5110   33.5810 O.3   601  LP8601     -0.2866
     14  C11       -1.7320   75.4160   35.3310 C.3   601  LP8601      0.0303
     15  C12       -1.2590   74.8600   36.6780 C.3   601  LP8601      0.0046
     16  C13        0.1470   75.4150   36.9060 C.3   601  LP8601      0.0003
     17  C14        0.1910   76.6900   36.0620 C.3   601  LP8601      0.0003
     18  C15       -0.5960   76.3040   34.8070 C.3   601  LP8601      0.0046
@<TRIPOS>BOND
     1    11    10   ar
     2    11    12   ar
     3    10     9   ar
     4    12     7   ar
     5     9     8   ar
     6     7     8   ar
     7     7     2   ar
     8     8     4   ar
     9     3     2    1
    10     2     1   ar
    11    13     4    1
    12     4     5   ar
    13     1     5   ar
    14     1     6    2
    15     5    14    1
    16    18    14    1
    17    18    17    1
    18    14    15    1
    19    17    16    1
    20    15    16    1
