@<TRIPOS>MOLECULE
3lp2_LP9_A_1.pdb
 30 32 0 0 0
SMALL
GASTEIGER

@<TRIPOS>ATOM
      1  C          9.1360    8.3570   25.2210 C.ar  601  LP9601      0.0454
      2  N         10.6280    9.5030   27.1800 N.ar  601  LP9601     -0.2204
      3  O          7.1270    6.5730   26.0080 O.3   601  LP9601     -0.2861
      4  C1        10.1390    9.2610   24.8700 C.ar  601  LP9601      0.1646
      5  C2        10.8970    9.8290   25.8940 C.ar  601  LP9601      0.1380
      6  C3         9.6550    8.6320   27.5390 C.ar  601  LP9601      0.1897
      7  C4         8.8680    8.0290   26.5540 C.ar  601  LP9601      0.0798
      8  N5         9.4170    8.3290   28.8380 N.ar  601  LP9601     -0.0735
      9  C6         8.4670    7.4770   29.2980 C.ar  601  LP9601      0.3072
     10  C7         7.6650    6.8560   28.3270 C.ar  601  LP9601      0.1734
     11  C8         7.8680    7.1390   26.9630 C.ar  601  LP9601      0.2097
     12  C9         6.5810    5.8980   28.7420 C.2   601  LP9601      0.3492
     13  O10        5.7460    6.1670   29.5950 O.2   601  LP9601     -0.2446
     14  O11        8.3010    7.2370   30.5980 O.2   601  LP9601     -0.2634
     15  O12       10.2340    8.9650   29.7690 O.3   601  LP9601     -0.1588
     16  O13       10.4050    9.5750   23.5960 O.3   601  LP9601     -0.4519
     17  C14       10.8350   10.7820   23.2190 C.ar  601  LP9601      0.1455
     18  C15        9.8740   11.7570   22.9740 C.ar  601  LP9601      0.0388
     19  C16       10.2700   13.0310   22.5710 C.ar  601  LP9601      0.0176
     20  C17       11.6010   13.4030   22.3740 C.ar  601  LP9601      0.0480
     21  C18       12.5380   12.3930   22.6260 C.ar  601  LP9601      0.0176
     22  C19       12.1810   11.1050   23.0310 C.ar  601  LP9601      0.0388
     23  N20       11.9240   14.6600   21.9940 N.pl3 601  LP9601     -0.3075
     24  C21       11.0620   15.4580   21.1120 C.3   601  LP9601      0.0908
     25  C22       11.3480   15.2760   19.6210 C.3   601  LP9601      0.0232
     26  C23       13.1160   15.3540   22.5070 C.3   601  LP9601      0.0908
     27  C24       14.4000   15.1080   21.7120 C.3   601  LP9601      0.0232
     28  O25        6.6790    4.7470   28.0640 O.3   601  LP9601     -0.4453
     29  C26        5.0820    4.0420   26.3600 C.3   601  LP9601      0.0513
     30  C27        5.4510    3.9960   27.8480 C.3   601  LP9601      0.2089
@<TRIPOS>BOND
     1    25    24    1
     2    24    23    1
     3    27    26    1
     4    23    20    1
     5    23    26    1
     6    20    19   ar
     7    20    21   ar
     8    19    18   ar
     9    21    22   ar
    10    18    17   ar
    11    22    17   ar
    12    17    16    1
    13    16     4    1
    14     4     1   ar
    15     4     5   ar
    16     1     7   ar
    17     5     2   ar
    18     3    11    1
    19    29    30    1
    20     7    11   ar
    21     7     6   ar
    22    11    10   ar
    23     2     6   ar
    24     6     8   ar
    25    30    28    1
    26    28    12    1
    27    10    12    1
    28    10     9   ar
    29    12    13    2
    30     8     9   ar
    31     8    15    1
    32     9    14    2
