@<TRIPOS>MOLECULE
3lp3_LP9_A_1.pdb
 30 32 0 0 0
SMALL
GASTEIGER

@<TRIPOS>ATOM
      1  C        -20.5670   17.5400   34.5620 C.3     3  LP93        0.1030
      2  N        -19.0590   18.5430   36.6030 N.2     3  LP93       -0.0569
      3  O        -21.9160   19.3920   32.9330 O.2     3  LP93       -0.2905
      4  C1       -19.8710   16.6640   35.4020 C.2     3  LP93        0.1738
      5  C2       -19.1070   17.1990   36.4400 C.2     3  LP93        0.2661
      6  C3       -19.7240   19.4090   35.7980 C.2     3  LP93        0.2511
      7  C4       -20.5050   18.9240   34.7420 C.2     3  LP93        0.0795
      8  N5       -19.6560   20.7490   35.9850 N.am    3  LP93       -0.2253
      9  C6       -20.2810   21.6890   35.2380 C.2     3  LP93        0.0924
     10  C7       -21.0630   21.2230   34.1810 C.3     3  LP93        0.2037
     11  C8       -21.1730   19.8530   33.9380 C.2     3  LP93        0.1907
     12  C9       -21.7970   22.1700   33.2870 C.2     3  LP93        0.3301
     13  O10      -23.0120   22.1850   33.1620 O.2     3  LP93       -0.2492
     14  O11      -20.1670   22.9900   35.4810 O.2     3  LP93       -0.5398
     15  O12      -18.8680   21.1760   37.0470 O.3     3  LP93       -0.4134
     16  O13      -19.8870   15.3310   35.2760 O.3     3  LP93       -0.4536
     17  C14      -19.5120   14.7730   34.1180 C.ar    3  LP93        0.1451
     18  C15      -18.3640   15.2510   33.4770 C.ar    3  LP93        0.0387
     19  C16      -17.9530   14.6920   32.2670 C.ar    3  LP93        0.0176
     20  C17      -18.6380   13.6440   31.6440 C.ar    3  LP93        0.0480
     21  C18      -19.7800   13.1890   32.3140 C.ar    3  LP93        0.0176
     22  C19      -20.2230   13.7290   33.5250 C.ar    3  LP93        0.0387
     23  N20      -18.2250   13.1140   30.4720 N.pl3   3  LP93       -0.3075
     24  C21      -16.9760   12.3550   30.3450 C.3     3  LP93        0.0908
     25  C22      -17.0640   10.9660   30.9910 C.3     3  LP93        0.0232
     26  C23      -18.9960   13.2590   29.2310 C.3     3  LP93        0.0908
     27  C24      -19.0800   14.7130   28.7450 C.3     3  LP93        0.0232
     28  O25      -20.9070   22.9610   32.6770 O.3     3  LP93       -0.4479
     29  C26      -20.6010   25.3500   32.3270 C.3     3  LP93        0.0513
     30  C27      -21.4190   24.1110   31.9470 C.3     3  LP93        0.2086
@<TRIPOS>BOND
     1    27    26    1
     2    26    23    1
     3    24    23    1
     4    24    25    1
     5    23    20    1
     6    20    19   ar
     7    20    21   ar
     8    30    29    1
     9    30    28    1
    10    19    18   ar
    11    21    22   ar
    12    28    12    1
    13     3    11    1
    14    13    12    2
    15    12    10    1
    16    18    17   ar
    17    22    17   ar
    18    11    10    1
    19    11     7    2
    20    17    16    1
    21    10     9    1
    22     1     7    1
    23     1     4    1
    24     7     6    1
    25     9    14    2
    26     9     8   am
    27    16     4    1
    28     4     5    2
    29     6     8    1
    30     6     2    2
    31     8    15    1
    32     5     2    1
