@<TRIPOS>MOLECULE
3lp4_LYS_A_1.pdb
 10 9 0 0 0
SMALL
GASTEIGER

@<TRIPOS>ATOM
      1  N         26.1750  -42.4930    3.7970 N.3   401  LYS401     -0.1208
      2  CA        26.0410  -42.7180    5.2560 C.3   401  LYS401      0.1943
      3  C         24.6230  -43.2200    5.5520 C.2   401  LYS401      0.3819
      4  O         24.2810  -43.2540    6.7460 O.co2 401  LYS401     -0.2441
      5  CB        26.3500  -41.4020    6.0070 C.3   401  LYS401      0.0307
      6  CG        25.3710  -40.2760    5.7480 C.3   401  LYS401      0.0036
      7  CD        25.7330  -39.0390    6.5010 C.3   401  LYS401      0.0206
      8  CE        24.7060  -37.9900    6.1990 C.3   401  LYS401      0.1093
      9  NZ        24.9710  -36.7080    6.8940 N.3   401  LYS401     -0.1314
     10  OXT       23.8830  -43.5620    4.5920 O.co2 401  LYS401     -0.2441
@<TRIPOS>BOND
     1     1     2    1
     2    10     3   ar
     3     2     3    1
     4     2     5    1
     5     3     4   ar
     6     6     5    1
     7     6     7    1
     8     8     7    1
     9     8     9    1
