@<TRIPOS>MOLECULE
3lp7_HAR_A_1.pdb
 13 12 0 0 0
SMALL
GASTEIGER

@<TRIPOS>ATOM
      1  N         21.1510  -17.7340    5.3370 N.3   906  HAR906     -0.1208
      2  CA        21.0810  -17.6770    6.6990 C.3   906  HAR906      0.1944
      3  C         20.2330  -16.4650    7.0950 C.2   906  HAR906      0.3819
      4  O         20.1580  -16.4040    8.4140 O.co2 906  HAR906     -0.2441
      5  CB        22.4620  -17.5820    7.2700 C.3   906  HAR906      0.0343
      6  CG        23.3370  -16.3610    7.5430 C.3   906  HAR906      0.0490
      7  CD        23.7150  -14.9760    7.1440 C.3   906  HAR906      0.2205
      8  NE        24.6740  -14.5320    7.9950 N.pl3 906  HAR906     -0.0871
      9  CZ        25.8200  -13.9850    7.6280 C.2   906  HAR906      0.5283
     10  NH1       26.1350  -13.8150    6.3450 N.4   906  HAR906      0.1134
     11  NH2       26.6760  -13.5970    8.5670 N.pl3 906  HAR906      0.1348
     12  OH1       27.3100  -13.2580    6.0980 O.3   906  HAR906      0.0294
     13  OXT       19.6630  -15.6190    6.2580 O.co2 906  HAR906     -0.2441
@<TRIPOS>BOND
     1     1     2    1
     2    12    10    1
     3    13     3   ar
     4    10     9    1
     5     2     3    1
     6     2     5    1
     7     3     4   ar
     8     7     6    1
     9     7     8    1
    10     5     6    1
    11     9     8    1
    12     9    11    2
