@<TRIPOS>MOLECULE
3lpb_NVB_A_1.pdb
 33 36 0 0 0
SMALL
GASTEIGER

@<TRIPOS>ATOM
      1  S1       111.9540   62.7430    7.2580 S.O2  1133  NVB1133     0.0769
      2  O2       111.0950   62.6620    8.4100 O.2   1133  NVB1133    -0.1516
      3  O3       112.3600   61.5320    6.6270 O.2   1133  NVB1133    -0.1516
      4  N4       111.0970   63.6160    6.2030 N.3   1133  NVB1133    -0.0762
      5  C6       110.2420   64.6810    6.6980 C.3   1133  NVB1133     0.1362
      6  C10      113.3930   63.7400    7.5650 C.ar  1133  NVB1133     0.1236
      7  C11      113.8950   63.8160    8.8730 C.ar  1133  NVB1133     0.0200
      8  C13      115.0450   64.5560    9.1440 C.ar  1133  NVB1133     0.0015
      9  C15      115.6780   65.2800    8.0970 C.ar  1133  NVB1133     0.0026
     10  C16      115.1560   65.2220    6.7890 C.ar  1133  NVB1133     0.0015
     11  C18      114.0210   64.4470    6.5110 C.ar  1133  NVB1133     0.0200
     12  C20      116.9060   66.0850    8.3270 C.ar  1133  NVB1133     0.0311
     13  C21      117.1090   66.8010    9.5090 C.ar  1133  NVB1133     0.1481
     14  N22      116.1580   66.8230   10.4690 N.2   1133  NVB1133    -0.4027
     15  C23      116.3370   67.5720   11.5870 C.2   1133  NVB1133     0.1337
     16  C24      117.5160   68.2960   11.7660 C.3   1133  NVB1133     0.1840
     17  N26      118.4520   68.2780   10.7980 N.2   1133  NVB1133    -0.2602
     18  C27      118.2740   67.5680    9.6660 C.ar  1133  NVB1133     0.1059
     19  C28      119.2750   67.5650    8.6720 C.ar  1133  NVB1133     0.0213
     20  C30      119.1050   66.8130    7.4980 C.ar  1133  NVB1133     0.0017
     21  C32      117.9130   66.0900    7.3280 C.ar  1133  NVB1133     0.0026
     22  C34      115.2550   67.5140   12.6070 C.ar  1133  NVB1133     0.0336
     23  C35      114.0510   66.9160   12.2940 C.ar  1133  NVB1133     0.0425
     24  C37      113.0240   66.8340   13.2520 C.ar  1133  NVB1133     0.1755
     25  C38      113.2420   67.3150   14.5460 C.ar  1133  NVB1133     0.2061
     26  C39      114.4590   67.8790   14.8820 C.ar  1133  NVB1133     0.1755
     27  C40      115.4820   67.9800   13.9050 C.ar  1133  NVB1133     0.0425
     28  O42      114.6180   68.3650   16.1720 O.3   1133  NVB1133    -0.4683
     29  C43      115.4890   69.4610   16.4860 C.3   1133  NVB1133     0.2526
     30  O47      112.2540   67.2060   15.5110 O.3   1133  NVB1133    -0.4654
     31  C48      112.1690   65.9590   16.2470 C.3   1133  NVB1133     0.2528
     32  O52      111.7790   66.2830   12.9670 O.3   1133  NVB1133    -0.4683
     33  C53      111.3400   65.8480   11.6450 C.3   1133  NVB1133     0.2526
@<TRIPOS>BOND
     1     4     5    1
     2     4     1    1
     3    11    10   ar
     4    11     6   ar
     5     3     1    2
     6    10     9   ar
     7     1     6    1
     8     1     2    2
     9    21    20   ar
    10    21    12   ar
    11    20    19   ar
    12     6     7   ar
    13     9    12    1
    14     9     8   ar
    15    12    13   ar
    16    19    18   ar
    17     7     8   ar
    18    13    18   ar
    19    13    14    2
    20    18    17    2
    21    14    15    2
    22    17    16    1
    23    15    16    1
    24    15    22    1
    25    33    32    1
    26    23    22   ar
    27    23    24   ar
    28    22    27   ar
    29    32    24    1
    30    24    25   ar
    31    27    26   ar
    32    25    26   ar
    33    25    30    1
    34    26    28    1
    35    30    31    1
    36    28    29    1
