@<TRIPOS>MOLECULE
3lpf_Z77_A_1.pdb
 29 31 0 0 0
SMALL
GASTEIGER

@<TRIPOS>ATOM
      1  N1       -24.3860    4.2490   -4.1660 N.am  604  Z77604     -0.1916
      2  N2       -24.4770    6.6260   -4.1080 N.am  604  Z77604     -0.2822
      3  N3       -27.0610    6.4190   -7.9640 N.2   604  Z77604     -0.3331
      4  CAA      -23.1520    0.3580   -0.2350 C.3   604  Z77604      0.2525
      5  CAB      -27.2850   11.6030  -10.3560 C.3   604  Z77604      0.0091
      6  CAC      -29.2220    9.5050  -11.1710 C.3   604  Z77604      0.0268
      7  OAD      -26.0620    4.9640   -6.4790 O.2   604  Z77604     -0.2096
      8  OAE      -25.6080    9.9230   -2.7320 O.3   604  Z77604     -0.2185
      9  SAF      -24.9050    5.4350   -1.8140 S.2   604  Z77604     -0.0166
     10  CAG      -24.9480    0.6390   -4.0340 C.ar  604  Z77604      0.0044
     11  CAH      -24.8060    1.9430   -4.5130 C.ar  604  Z77604      0.0168
     12  CAI      -24.7960    0.3780   -2.6750 C.ar  604  Z77604      0.0370
     13  CAJ      -24.3570    2.7270   -2.2810 C.ar  604  Z77604      0.0534
     14  CAK      -26.2530    9.9310   -8.7460 C.2   604  Z77604     -0.0198
     15  CAL      -28.0710    7.9700   -9.5160 C.2   604  Z77604      0.0249
     16  CAM      -25.2310    8.3500   -7.1700 C.2   604  Z77604      0.0123
     17  CAN      -25.6460    8.8360   -3.6600 C.3   604  Z77604      0.2035
     18  CAO      -24.5720    7.8300   -3.2410 C.3   604  Z77604      0.1283
     19  CAP      -24.0810    6.7760   -5.5310 C.3   604  Z77604      0.1320
     20  OAS      -24.3520    1.1580   -0.4650 O.3   604  Z77604     -0.4714
     21  CAT      -24.5550    5.4190   -3.5030 C.2   604  Z77604      0.1587
     22  CAU      -27.2160   10.2140   -9.7180 C.3   604  Z77604      0.0404
     23  CAV      -28.1370    9.2310  -10.1010 C.2   604  Z77604     -0.0376
     24  CAW      -24.5100    3.0040   -3.6480 C.ar  604  Z77604      0.0754
     25  CAX      -24.5010    1.4230   -1.7950 C.ar  604  Z77604      0.1400
     26  CAY      -25.1820    7.0700   -6.5800 C.2   604  Z77604      0.0924
     27  CAZ      -26.0990    6.1010   -6.9840 C.1   604  Z77604      0.2022
     28  CBA      -26.1940    8.6700   -8.1480 C.2   604  Z77604      0.0270
     29  CBB      -27.1050    7.6910   -8.5510 C.2   604  Z77604      0.1434
@<TRIPOS>BOND
     1     6    23    1
     2     5    22    1
     3    23    22    1
     4    23    15    2
     5    22    14    1
     6    15    29    1
     7    14    28    2
     8    29    28    1
     9    29     3    2
    10    28    16    1
    11     3    27    2
    12    16    26    2
    13    27    26    1
    14    27     7    2
    15    26    19    1
    16    19     2    1
    17    11    10   ar
    18    11    24   ar
    19     1    24    1
    20     1    21    1
    21     2    21    1
    22     2    18    1
    23    10    12   ar
    24    17    18    1
    25    17     8    1
    26    24    13   ar
    27    21     9    2
    28    12    25   ar
    29    13    25   ar
    30    25    20    1
    31    20     4    1
