@<TRIPOS>MOLECULE
3lpg_Z78_A_1.pdb
 27 29 0 0 0
SMALL
GASTEIGER

@<TRIPOS>ATOM
      1  N1       -27.1830    7.2200   -8.2180 N.2   604  Z78604     -0.3372
      2  N2       -25.0700    7.6430   -4.0820 N.am  604  Z78604     -0.2501
      3  N3       -24.4810    5.2110   -3.6420 N.am  604  Z78604     -0.1599
      4  CAA      -27.3300   12.5670  -10.4810 C.3   604  Z78604      0.0307
      5  OAB      -24.5490    6.8080   -2.0240 O.2   604  Z78604     -0.2504
      6  OAC      -26.3020    5.6070   -6.5880 O.2   604  Z78604     -0.2096
      7  OAD      -25.6240   11.1180   -3.3920 O.2   604  Z78604     -0.2864
      8  FAE      -24.8160    3.5450   -6.0280 F     604  Z78604     -0.2028
      9  CAF      -24.8520    0.9190   -3.4660 C.ar  604  Z78604      0.0024
     10  CAG      -24.6840    1.7280   -2.2460 C.ar  604  Z78604      0.0015
     11  CAH      -24.8910    1.5550   -4.7260 C.ar  604  Z78604      0.0310
     12  CAI      -24.5540    3.1390   -2.3390 C.ar  604  Z78604      0.0189
     13  CAJ      -28.1270   10.1360  -10.3930 C.2   604  Z78604     -0.0229
     14  CAK      -28.0830    8.7690   -9.8170 C.3   604  Z78604      0.0856
     15  CAL      -26.3960   10.8950   -8.7820 C.2   604  Z78604     -0.0023
     16  CAM      -25.4910    9.2070   -7.1210 C.2   604  Z78604      0.0122
     17  CAN      -25.8060   10.0160   -3.7970 C.2   604  Z78604      0.2291
     18  CAO      -24.7300    8.9550   -3.5930 C.3   604  Z78604      0.1676
     19  CAP      -24.5430    7.4940   -5.4300 C.3   604  Z78604      0.1348
     20  CAS      -24.5270    6.6050   -3.1950 C.2   604  Z78604      0.3281
     21  CAT      -27.2660   11.1720   -9.8610 C.2   604  Z78604     -0.0256
     22  CAU      -24.7660    2.9190   -4.8160 C.ar  604  Z78604      0.1554
     23  CAV      -25.4720    7.8990   -6.5970 C.2   604  Z78604      0.0925
     24  CAW      -24.5730    3.7560   -3.5560 C.ar  604  Z78604      0.1023
     25  CAX      -26.3180    6.9090   -7.1250 C.1   604  Z78604      0.2019
     26  CAY      -26.3550    9.5120   -8.1930 C.2   604  Z78604      0.0268
     27  CAZ      -27.2050    8.4840   -8.7380 C.2   604  Z78604      0.1262
@<TRIPOS>BOND
     1     4    21    1
     2    13    21    2
     3    13    14    1
     4    21    15    1
     5    14    27    1
     6    15    26    2
     7    27     1    2
     8    27    26    1
     9     1    25    2
    10    26    16    1
    11    25    23    1
    12    25     6    2
    13    16    23    2
    14    23    19    1
    15     8    22    1
    16    19     2    1
    17    22    11   ar
    18    22    24   ar
    19    11     9   ar
    20     2    18    1
    21     2    20   am
    22    17    18    1
    23    17     7    2
    24     3    24    1
    25     3    20   am
    26    24    12   ar
    27     9    10   ar
    28    20     5    2
    29    12    10   ar
