@<TRIPOS>MOLECULE
3lpi_Z74_A_1.pdb
 46 49 0 0 0
SMALL
GASTEIGER

@<TRIPOS>ATOM
      1  C1        26.8470   15.4820   24.3230 C.ar  456  Z74456      0.0003
      2  F1        26.8590   10.8750   18.9070 F     456  Z74456     -0.2041
      3  N1        23.5520   11.7160   23.4240 N.am  456  Z74456     -0.2004
      4  O1        18.1610   13.6830   24.2780 O.2   456  Z74456     -0.1528
      5  S1        17.7460   12.8380   25.3590 S.O2  456  Z74456      0.0634
      6  C2        27.0070   14.2550   23.6180 C.ar  456  Z74456      0.0534
      7  F2        22.8730   13.3690   18.3710 F     456  Z74456     -0.2041
      8  N2        28.7070   13.5230   21.8620 N.am  456  Z74456     -0.2761
      9  O2        17.1720   13.4280   26.5360 O.2   456  Z74456     -0.1528
     10  C3        25.8600   13.4590   23.3370 C.ar  456  Z74456      0.0091
     11  N3        19.2090   12.0450   25.9100 N.3   456  Z74456     -0.1525
     12  O3        29.2290   13.7560   24.0900 O.2   456  Z74456     -0.2699
     13  C4        24.5680   13.8820   23.7490 C.ar  456  Z74456      0.0549
     14  N4        21.0580    9.8280   26.4480 N.3   456  Z74456     -0.2138
     15  O4        22.2540   13.5770   23.2840 O.2   456  Z74456     -0.2684
     16  C5        24.4290   15.1150   24.4540 C.ar  456  Z74456      0.0003
     17  O5        21.0960    8.9550   23.7550 O.3   456  Z74456     -0.2197
     18  C6        25.5650   15.9210   24.7450 C.ar  456  Z74456     -0.0216
     19  C7        23.3600   13.0780   23.4680 C.2   456  Z74456      0.2648
     20  C8        28.3760   13.8350   23.2060 C.2   456  Z74456      0.2490
     21  C9        29.9730   12.7570   21.6410 C.3   456  Z74456      0.0937
     22  C10       27.9130   13.9060   20.6480 C.3   456  Z74456      0.0937
     23  C11       28.5960   14.9910   19.7980 C.3   456  Z74456      0.0215
     24  C12       28.7010   16.3390   20.5220 C.3   456  Z74456      0.0018
     25  C13       29.7500   11.3400   21.0550 C.3   456  Z74456      0.0215
     26  C14       28.9080   10.4240   21.9550 C.3   456  Z74456      0.0018
     27  C15       25.4210   17.2280   25.4910 C.3   456  Z74456      0.0310
     28  C16       22.5060   10.7690   22.9900 C.3   456  Z74456      0.1316
     29  C17       22.0230    9.9310   24.2000 C.3   456  Z74456      0.1893
     30  C18       21.3380   10.7460   25.3190 C.3   456  Z74456      0.1225
     31  C19       23.0820    9.8770   21.8500 C.3   456  Z74456      0.0508
     32  C20       23.7050   10.6680   20.7180 C.ar  456  Z74456     -0.0159
     33  C21       22.9700   11.6920   20.0400 C.ar  456  Z74456      0.0256
     34  C22       23.5760   12.4160   18.9910 C.ar  456  Z74456      0.1421
     35  C23       24.9040   12.1590   18.5790 C.ar  456  Z74456      0.0592
     36  C24       25.6110   11.1450   19.2620 C.ar  456  Z74456      0.1421
     37  C25       25.0390   10.4000   20.3190 C.ar  456  Z74456      0.0256
     38  C26       20.0180   11.4220   24.8450 C.3   456  Z74456      0.1158
     39  C27       19.0730   11.1750   27.1190 C.3   456  Z74456      0.1146
     40  C28       20.3810   10.5050   27.5750 C.3   456  Z74456      0.1079
     41  C29       16.6830   11.5370   24.7550 C.ar  456  Z74456      0.1222
     42  C30       16.6540   11.2460   23.3700 C.ar  456  Z74456      0.0199
     43  C31       15.8150   10.2110   22.8890 C.ar  456  Z74456      0.0014
     44  C32       15.0090    9.4700   23.7900 C.ar  456  Z74456      0.0001
     45  C33       15.0390    9.7610   25.1710 C.ar  456  Z74456      0.0014
     46  C34       15.8770   10.7970   25.6580 C.ar  456  Z74456      0.0199
@<TRIPOS>BOND
     1     7    34    1
     2    35    34   ar
     3    35    36   ar
     4     2    36    1
     5    34    33   ar
     6    36    37   ar
     7    23    24    1
     8    23    22    1
     9    33    32   ar
    10    37    32   ar
    11    22     8    1
    12    32    31    1
    13    25    21    1
    14    25    26    1
    15    21     8    1
    16    31    28    1
    17     8    20   am
    18    43    42   ar
    19    43    44   ar
    20    28     3    1
    21    28    29    1
    22    20     6    1
    23    20    12    2
    24    15    19    2
    25    10     6   ar
    26    10    13   ar
    27    42    41   ar
    28     3    19   am
    29    19    13    1
    30     6     1   ar
    31    13    16   ar
    32    17    29    1
    33    44    45   ar
    34    29    30    1
    35     4     5    2
    36     1    18   ar
    37    16    18   ar
    38    18    27    1
    39    41     5    1
    40    41    46   ar
    41    38    30    1
    42    38    11    1
    43    45    46   ar
    44    30    14    1
    45     5    11    1
    46     5     9    2
    47    11    39    1
    48    14    40    1
    49    39    40    1
