@<TRIPOS>MOLECULE
3lpj_Z75_A_1.pdb
 44 47 0 0 0
SMALL
GASTEIGER

@<TRIPOS>ATOM
      1  C1        26.7720   15.5390   24.4530 C.ar  456  Z75456      0.0003
      2  F1        26.9440   10.6810   19.1230 F     456  Z75456     -0.2041
      3  N1        28.5590   13.6580   21.9190 N.am  456  Z75456     -0.2761
      4  O1        29.0830   13.6710   24.1490 O.2   456  Z75456     -0.2699
      5  C2        26.9290   14.3350   23.7270 C.ar  456  Z75456      0.0534
      6  F2        23.0960   13.2670   18.3770 F     456  Z75456     -0.2041
      7  N2        23.5450   11.7420   23.3740 N.am  456  Z75456     -0.2004
      8  O2        22.1960   13.5700   23.4630 O.2   456  Z75456     -0.2684
      9  C3        25.7920   13.5270   23.4410 C.ar  456  Z75456      0.0091
     10  N3        21.0310    9.9670   26.5070 N.3   456  Z75456     -0.2139
     11  O3        21.0520    8.9800   23.8390 O.3   456  Z75456     -0.2197
     12  C4        24.5060   13.9100   23.8610 C.ar  456  Z75456      0.0549
     13  N4        19.1270   12.0900   25.8760 N.3   456  Z75456     -0.2664
     14  C5        24.3550   15.1240   24.5830 C.ar  456  Z75456      0.0003
     15  C6        25.4830   15.9430   24.8850 C.ar  456  Z75456     -0.0216
     16  C7        28.2510   13.8790   23.2810 C.2   456  Z75456      0.2490
     17  C8        29.9260   13.1710   21.6120 C.3   456  Z75456      0.0937
     18  C9        27.6510   13.8710   20.7530 C.3   456  Z75456      0.0937
     19  C10       28.1530   15.0140   19.8450 C.3   456  Z75456      0.0215
     20  C11       28.3630   16.3380   20.6070 C.3   456  Z75456      0.0018
     21  C12       29.8900   11.6850   21.1180 C.3   456  Z75456      0.0215
     22  C13       29.1420   10.7020   22.0620 C.3   456  Z75456      0.0018
     23  C14       25.3110   17.2320   25.6540 C.3   456  Z75456      0.0310
     24  C15       23.3210   13.0860   23.5540 C.2   456  Z75456      0.2648
     25  C16       22.4770   10.7660   23.0390 C.3   456  Z75456      0.1316
     26  C17       21.9870    9.9670   24.2620 C.3   456  Z75456      0.1893
     27  C18       23.0260    9.8400   21.9260 C.3   456  Z75456      0.0508
     28  C19       23.7140   10.5970   20.8090 C.ar  456  Z75456     -0.0159
     29  C20       25.0500   10.2850   20.4690 C.ar  456  Z75456      0.0256
     30  C21       25.6900   10.9910   19.4260 C.ar  456  Z75456      0.1421
     31  C22       25.0520   12.0090   18.6980 C.ar  456  Z75456      0.0592
     32  C23       23.7240   12.3130   19.0440 C.ar  456  Z75456      0.1421
     33  C24       23.0390   11.6330   20.0790 C.ar  456  Z75456      0.0256
     34  C25       21.2770   10.8240   25.3240 C.3   456  Z75456      0.1207
     35  C26       19.9330   11.4310   24.8060 C.3   456  Z75456      0.0926
     36  C28       19.0160   11.2530   27.1140 C.3   456  Z75456      0.0914
     37  C29       20.3750   10.7170   27.5990 C.3   456  Z75456      0.1061
     38  C30       17.7620   12.5170   25.3410 C.3   456  Z75456      0.0992
     39  C31       16.7650   11.3810   25.0270 C.ar  456  Z75456     -0.0061
     40  C32       15.7970   10.9700   25.9950 C.ar  456  Z75456     -0.0029
     41  C33       14.8860    9.9250   25.7120 C.ar  456  Z75456     -0.0003
     42  C34       14.9250    9.2740   24.4530 C.ar  456  Z75456     -0.0000
     43  C35       15.8770    9.6690   23.4830 C.ar  456  Z75456     -0.0003
     44  C36       16.7850   10.7120   23.7670 C.ar  456  Z75456     -0.0029
@<TRIPOS>BOND
     1     6    32    1
     2    31    32   ar
     3    31    30   ar
     4    32    33   ar
     5     2    30    1
     6    30    29   ar
     7    19    20    1
     8    19    18    1
     9    33    28   ar
    10    29    28   ar
    11    18     3    1
    12    28    27    1
    13    21    17    1
    14    21    22    1
    15    17     3    1
    16     3    16   am
    17    27    25    1
    18    25     7    1
    19    25    26    1
    20    16     5    1
    21    16     4    2
    22     7    24   am
    23     9     5   ar
    24     9    12   ar
    25     8    24    2
    26    43    44   ar
    27    43    42   ar
    28    24    12    1
    29     5     1   ar
    30    44    39   ar
    31    11    26    1
    32    12    14   ar
    33    26    34    1
    34     1    15   ar
    35    42    41   ar
    36    14    15   ar
    37    35    34    1
    38    35    13    1
    39    15    23    1
    40    39    38    1
    41    39    40   ar
    42    34    10    1
    43    38    13    1
    44    41    40   ar
    45    13    36    1
    46    10    37    1
    47    36    37    1
