@<TRIPOS>MOLECULE
3lpk_Z76_A_1.pdb
 48 52 0 0 0
SMALL
GASTEIGER

@<TRIPOS>ATOM
      1  C1        26.8180   15.4440   24.4540 C.ar  456  Z76456      0.0003
      2  F1        26.8000   10.9570   18.7530 F     456  Z76456     -0.2041
      3  N1        28.5350   13.7020   21.9030 N.am  456  Z76456     -0.2752
      4  O1        29.2400   13.5910   24.0520 O.2   456  Z76456     -0.2699
      5  S1        17.8210   12.9150   25.2690 S.O2  456  Z76456      0.0634
      6  C2        26.9870   14.2580   23.6810 C.ar  456  Z76456      0.0534
      7  F2        22.6960   13.2920   18.1430 F     456  Z76456     -0.2041
      8  N2        23.6440   11.7320   23.2570 N.am  456  Z76456     -0.2004
      9  O2        22.2620   13.5200   23.1620 O.2   456  Z76456     -0.2684
     10  C3        25.8400   13.4740   23.3350 C.ar  456  Z76456      0.0091
     11  N3        21.1940    9.9620   26.3420 N.3   456  Z76456     -0.2138
     12  O3        21.1370    8.9980   23.6200 O.3   456  Z76456     -0.2197
     13  C4        24.5400   13.8700   23.7460 C.ar  456  Z76456      0.0549
     14  N4        19.2910   12.0850   25.7630 N.3   456  Z76456     -0.1525
     15  C5        24.3740   15.0610   24.5160 C.ar  456  Z76456      0.0003
     16  O5        29.2820   11.2170   22.5620 O.3   456  Z76456     -0.3493
     17  C6        25.5140   15.8460   24.8690 C.ar  456  Z76456     -0.0216
     18  O6        17.3120   13.5330   26.4560 O.2   456  Z76456     -0.1528
     19  C7        28.3340   13.8310   23.2550 C.2   456  Z76456      0.2490
     20  O7        18.1980   13.7170   24.1460 O.2   456  Z76456     -0.1528
     21  C8        29.8470   13.2800   21.4110 C.3   456  Z76456      0.1052
     22  C9        27.5740   13.9570   20.8380 C.3   456  Z76456      0.0938
     23  C10       28.3900   14.2350   19.6000 C.3   456  Z76456      0.0233
     24  C11       29.8250   13.9050   20.0090 C.3   456  Z76456      0.0241
     25  C12       29.7950   11.7450   21.3470 C.3   456  Z76456      0.1619
     26  C14       25.3430   17.0730   25.6640 C.3   456  Z76456      0.0310
     27  C15       23.3810   13.0550   23.3680 C.2   456  Z76456      0.2648
     28  C16       22.5430   10.8400   22.8710 C.3   456  Z76456      0.1316
     29  C17       22.0720    9.9840   24.0820 C.3   456  Z76456      0.1893
     30  C18       23.0140    9.9060   21.7430 C.3   456  Z76456      0.0508
     31  C19       23.6170   10.6880   20.5880 C.ar  456  Z76456     -0.0159
     32  C20       24.9680   10.4490   20.2010 C.ar  456  Z76456      0.0256
     33  C21       25.5380   11.1780   19.1160 C.ar  456  Z76456      0.1421
     34  C22       24.7650   12.1420   18.4180 C.ar  456  Z76456      0.0592
     35  C23       23.4180   12.3830   18.8020 C.ar  456  Z76456      0.1421
     36  C24       22.8400   11.6570   19.8850 C.ar  456  Z76456      0.0256
     37  C25       20.0450   11.3900   24.6920 C.3   456  Z76456      0.1158
     38  C27       19.1820   11.1940   26.9420 C.3   456  Z76456      0.1146
     39  C28       20.5470   10.7280   27.4120 C.3   456  Z76456      0.1079
     40  C29       21.3940   10.8400   25.1800 C.3   456  Z76456      0.1225
     41  C32       15.6250    9.8930   21.5440 C.3   456  Z76456      0.0311
     42  C34       29.5580    9.8250   22.6760 C.3   456  Z76456      0.1742
     43  C35       15.9480   10.9250   25.7200 C.ar  456  Z76456      0.0199
     44  C36       15.0680    9.8830   25.3110 C.ar  456  Z76456      0.0010
     45  C37       14.9630    9.5440   23.9330 C.ar  456  Z76456     -0.0042
     46  C38       15.7360   10.2450   22.9650 C.ar  456  Z76456     -0.0205
     47  C39       16.6170   11.2870   23.3730 C.ar  456  Z76456      0.0157
     48  C40       16.7220   11.6270   24.7510 C.ar  456  Z76456      0.1219
@<TRIPOS>BOND
     1     7    35    1
     2    34    35   ar
     3    34    33   ar
     4     2    33    1
     5    35    36   ar
     6    33    32   ar
     7    23    24    1
     8    23    22    1
     9    36    31   ar
    10    24    21    1
    11    32    31   ar
    12    31    30    1
    13    22     3    1
    14    25    21    1
    15    25    16    1
    16    21     3    1
    17    41    46    1
    18    30    28    1
    19     3    19   am
    20    16    42    1
    21    28     8    1
    22    28    29    1
    23    46    47   ar
    24    46    45   ar
    25     9    27    2
    26    19     6    1
    27    19     4    2
    28     8    27   am
    29    10     6   ar
    30    10    13   ar
    31    27    13    1
    32    47    48   ar
    33    12    29    1
    34     6     1   ar
    35    13    15   ar
    36    45    44   ar
    37    29    40    1
    38    20     5    2
    39     1    17   ar
    40    15    17   ar
    41    37    40    1
    42    37    14    1
    43    48     5    1
    44    48    43   ar
    45    17    26    1
    46    40    11    1
    47     5    14    1
    48     5    18    2
    49    44    43   ar
    50    14    38    1
    51    11    39    1
    52    38    39    1
