@<TRIPOS>MOLECULE
3lpl_TDP_A_1.pdb
 11 10 0 0 0
SMALL
GASTEIGER

@<TRIPOS>ATOM
      1  C5A       19.7830  -65.0930    0.8840 C.3   887  TDP887      0.0351
      2  C5B       18.5210  -64.2290    0.9260 C.3   887  TDP887      0.1492
      3  O5G       17.6100  -64.6670    1.9410 O.3   887  TDP887     -0.3138
      4  P1        16.1620  -63.9670    2.0550 P.3   887  TDP887      0.2230
      5  O11       15.5010  -64.3530    0.6330 O.3   887  TDP887     -0.2261
      6  O12       15.4390  -64.6030    3.1800 O.3   887  TDP887     -0.4370
      7  O13       16.3490  -62.4990    2.0870 O.2   887  TDP887     -0.5169
      8  P2        14.7500  -65.7490    0.3420 P.3   887  TDP887      0.5373
      9  O21       13.4130  -65.5220   -0.2550 O.3   887  TDP887     -0.1143
     10  O22       15.7010  -66.6100   -0.6300 O.2   887  TDP887     -0.2221
     11  O23       14.6810  -66.5450    1.7420 O.3   887  TDP887     -0.1143
@<TRIPOS>BOND
     1    10     8    2
     2     9     8    1
     3     8     5    1
     4     8    11    1
     5     5     4    1
     6     1     2    1
     7     2     3    1
     8     3     4    1
     9     4     7    2
    10     4     6    1
