@<TRIPOS>MOLECULE
3lpn_APC_A_1.pdb
 31 33 0 0 0
SMALL
GASTEIGER

@<TRIPOS>ATOM
      1  PG        19.0350  -11.3900   -5.9450 P.3   287  APC287      0.5389
      2  O1G       17.5210  -11.3570   -5.8960 O.3   287  APC287     -0.1143
      3  O2G       19.5720  -12.7010   -6.4940 O.2   287  APC287     -0.2220
      4  O3G       19.7240  -10.9320   -4.6810 O.3   287  APC287     -0.1143
      5  PB        18.7800   -8.8420   -7.1860 P.3   287  APC287      0.3895
      6  O1B       18.6850   -8.2800   -5.7820 O.3   287  APC287     -0.1388
      7  O2B       19.5620   -8.0460   -8.2120 O.2   287  APC287     -0.2544
      8  O3B       19.4290  -10.3250   -7.0930 O.3   287  APC287     -0.2026
      9  PA        16.3210   -7.6190   -8.4560 P.3   287  APC287      0.3820
     10  O1A       17.1830   -7.0840   -9.5750 O.2   287  APC287     -0.2548
     11  O2A       14.8860   -7.9730   -8.7790 O.3   287  APC287     -0.1392
     12  C3A       17.0940   -9.1140   -7.7960 C.3   287  APC287      0.2357
     13  O5'       16.2960   -6.4510   -7.3490 O.3   287  APC287     -0.2896
     14  C5'       15.5910   -6.6060   -6.1270 C.3   287  APC287      0.1836
     15  C4'       14.5440   -5.4960   -6.0680 C.3   287  APC287      0.1822
     16  O4'       13.6420   -5.7550   -4.9880 O.3   287  APC287     -0.3135
     17  C3'       15.1210   -4.0960   -5.8740 C.3   287  APC287      0.2184
     18  O3'       14.4520   -3.1650   -6.7300 O.3   287  APC287     -0.2174
     19  C2'       14.7520   -3.7540   -4.4430 C.3   287  APC287      0.2570
     20  O2'       14.5390   -2.3480   -4.2510 O.3   287  APC287     -0.2130
     21  C1'       13.4620   -4.5340   -4.2640 C.3   287  APC287      0.3186
     22  N9        13.1880   -4.8330   -2.8460 N.pl3 287  APC287     -0.1439
     23  C8        13.9590   -4.5260   -1.7870 C.3   287  APC287      0.3377
     24  N7        13.3770   -4.9530   -0.6340 N.2   287  APC287     -0.2095
     25  C5        12.2160   -5.5410   -0.9700 C.2   287  APC287      0.2526
     26  C6        11.1110   -6.2020   -0.2540 C.2   287  APC287      0.4393
     27  N6        11.1400   -6.3270    1.0920 N.pl3 287  APC287      0.2180
     28  N1        10.0770   -6.6810   -0.9830 N.2   287  APC287      0.0021
     29  C2        10.0380   -6.5690   -2.3200 C.3   287  APC287      0.5254
     30  N3        11.0080   -5.9730   -3.0410 N.2   287  APC287     -0.0055
     31  C4        12.0960   -5.4520   -2.4260 C.2   287  APC287      0.3518
@<TRIPOS>BOND
     1    10     9    2
     2    11     9    1
     3     9    12    1
     4     9    13    1
     5     7     5    2
     6    12     5    1
     7    13    14    1
     8     5     8    1
     9     5     6    1
    10     8     1    1
    11    18    17    1
    12     3     1    2
    13    14    15    1
    14    15    17    1
    15    15    16    1
    16     1     2    1
    17     1     4    1
    18    17    19    1
    19    16    21    1
    20    19    21    1
    21    19    20    1
    22    21    22    1
    23    30    31    2
    24    30    29    1
    25    22    31    1
    26    22    23    1
    27    31    25    1
    28    29    28    1
    29    23    24    1
    30    28    26    2
    31    25    24    2
    32    25    26    1
    33    26    27    1
