@<TRIPOS>MOLECULE
3lpp_KTL_B_1.pdb
 26 26 0 0 0
SMALL
GASTEIGER

@<TRIPOS>ATOM
      1  OAA       42.6470   59.5550   72.8240 O.3   5001  KTL5001    -0.2175
      2  OAB       40.0720   55.7350   84.0270 O.3   5001  KTL5001    -0.2194
      3  OAC       41.2560   57.7780   74.3250 O.3   5001  KTL5001    -0.2175
      4  OAD       36.5150   59.1090   83.8500 O.3   5001  KTL5001    -0.2195
      5  OAE       37.6510   58.0580   78.7070 O.3   5001  KTL5001    -0.2194
      6  OAF       38.7030   59.3910   73.9830 O.3   5001  KTL5001    -0.2175
      7  OAG       39.1760   58.8960   84.8880 O.3   5001  KTL5001    -0.2194
      8  OAH       39.6160   57.1640   75.9630 O.3   5001  KTL5001    -0.2175
      9  OAI       41.6450   61.4230   76.9670 O.2   5001  KTL5001    -0.3452
     10  OAJ       41.1400   61.0200   79.2730 O.3   5001  KTL5001    -0.2682
     11  OAK       43.1830   60.1080   78.3000 O.2   5001  KTL5001    -0.3452
     12  CAL       41.4410   60.0520   73.4210 C.3   5001  KTL5001     0.2175
     13  CAM       40.7500   56.6760   83.1940 C.3   5001  KTL5001     0.1946
     14  CAN       37.4150   58.0280   81.7850 C.3   5001  KTL5001     0.0839
     15  CAO       39.5710   58.4240   80.1450 C.3   5001  KTL5001     0.0839
     16  OAP       41.0030   59.0560   77.6610 O.3   5001  KTL5001    -0.2383
     17  CAQ       41.0630   59.1770   74.6210 C.3   5001  KTL5001     0.2175
     18  CAR       37.6700   58.8820   83.0350 C.3   5001  KTL5001     0.1929
     19  CAS       39.0800   58.0570   78.7400 C.3   5001  KTL5001     0.1938
     20  CAT       39.6290   59.4520   75.0930 C.3   5001  KTL5001     0.2175
     21  CAU       38.7240   58.1130   83.8030 C.3   5001  KTL5001     0.1946
     22  CAV       39.1640   58.5140   76.2170 C.3   5001  KTL5001     0.2166
     23  CAW       39.8110   57.8080   82.7770 C.3   5001  KTL5001     0.1051
     24  CAX       39.5880   58.9840   77.6190 C.3   5001  KTL5001     0.2069
     25  SAY       38.9440   57.4870   81.3760 S.3   5001  KTL5001    -0.1702
     26  SAZ       41.7600   60.4420   78.0570 S.3   5001  KTL5001    -0.0001
@<TRIPOS>BOND
     1     1    12    1
     2    12    17    1
     3     6    20    1
     4     3    17    1
     5    17    20    1
     6    20    22    1
     7     8    22    1
     8    22    24    1
     9     9    26    2
    10    24    16    1
    11    24    19    1
    12    16    26    1
    13    26    11    2
    14    26    10    1
    15     5    19    1
    16    19    15    1
    17    15    25    1
    18    25    14    1
    19    25    23    1
    20    14    18    1
    21    23    13    1
    22    23    21    1
    23    18    21    1
    24    18     4    1
    25    13     2    1
    26    21     7    1
