@<TRIPOS>MOLECULE
3lpr_III_P_1.pdb
 26 26 0 0 0
SMALL
GASTEIGER

@<TRIPOS>ATOM
      1  N         13.3950   42.1230   18.4390 N.3     4  ALA4        0.0000
      2  CA        14.0740   40.8370   18.1880 C.3     4  ALA4        0.0000
      3  C         13.2860   39.5590   18.5100 C.2     4  ALA4        0.0000
      4  O         12.5540   39.4950   19.5330 O.2     4  ALA4        0.0000
      5  CB        15.3450   40.7190   19.0220 C.3     4  ALA4        0.0000
      6  N         13.4790   38.6010   17.6180 N.am    3  ALA3        0.0000
      7  CA        12.7370   37.3270   17.8020 C.3     3  ALA3        0.0000
      8  C         13.6570   36.1830   17.4020 C.2     3  ALA3        0.0000
      9  O         14.4930   36.4690   16.5500 O.2     3  ALA3        0.0000
     10  CB        11.5350   37.3970   16.8520 C.3     3  ALA3        0.0000
     11  N         13.4180   35.0310   17.9690 N.am    2  PRO2        0.0000
     12  CA        14.1920   33.8350   17.6370 C.3     2  PRO2        0.0000
     13  C         13.9820   33.4800   16.1590 C.2     2  PRO2        0.0000
     14  O         12.8750   33.7550   15.6660 O.2     2  PRO2        0.0000
     15  CB        13.5770   32.7330   18.5060 C.3     2  PRO2        0.0000
     16  CG        12.7890   33.4300   19.5770 C.3     2  PRO2        0.0000
     17  CD        12.3520   34.7730   18.9690 C.3     2  PRO2        0.0000
     18  N         14.9580   32.8800   15.5020 N.am    1  BNO1        0.0000
     19  CA        14.8580   32.4620   14.1040 C.3     1  BNO1        0.0000
     20  CB        15.8830   33.1890   13.2190 C.3     1  BNO1        0.0000
     21  CG        15.5590   34.6760   12.9610 C.3     1  BNO1        0.0000
     22  CD        16.7520   35.3050   12.2450 C.3     1  BNO1        0.0000
     23  CE        16.7530   36.8380   12.1810 C.3     1  BNO1        0.0000
     24  B         14.9600   30.8930   14.0800 B       1  BNO1        0.0000
     25  O1        14.9410   30.3040   12.7170 O.3     1  BNO1        0.0000
     26  O2        14.0240   30.2070   15.0150 O.3     1  BNO1        0.0000
@<TRIPOS>BOND
     1    23    22    1
     2    22    21    1
     3    25    24    1
     4    21    20    1
     5    20    19    1
     6    24    19    1
     7    24    26    1
     8    19    18    1
     9    18    13   am
    10    14    13    2
    11    13    12    1
    12     9     8    2
    13    10     7    1
    14     8     7    1
    15     8    11   am
    16     6     7    1
    17     6     3   am
    18    12    11    1
    19    12    15    1
    20    11    17    1
    21     2     1    1
    22     2     3    1
    23     2     5    1
    24    15    16    1
    25     3     4    2
    26    17    16    1
