@<TRIPOS>MOLECULE
3lps_NOV_A_1.pdb
 44 47 0 0 0
SMALL
GASTEIGER

@<TRIPOS>ATOM
      1  C1        -9.6510   32.2660   59.4280 C.3   901  NOV901      0.1743
      2  O1        -9.1010   31.0970   60.0000 O.3   901  NOV901     -0.3474
      3  N1        -9.5110   29.0530   55.5480 N.am  901  NOV901     -0.0475
      4  C12       -8.8720   28.7740   56.7020 C.2   901  NOV901      0.4411
      5  O4        -8.5920   27.6200   56.9790 O.2   901  NOV901     -0.2228
      6  O5        -8.6160   29.8140   57.5920 O.3   901  NOV901     -0.4307
      7  C27       -7.7360   30.8470   59.5710 C.3   901  NOV901      0.1826
      8  C28       -7.7240   29.5650   58.7160 C.3   901  NOV901      0.2362
      9  C29       -6.2250   29.2990   58.2860 C.3   901  NOV901      0.2636
     10  O6        -5.6750   30.4230   57.6120 O.3   901  NOV901     -0.2123
     11  C30       -5.4200   29.0160   59.5740 C.3   901  NOV901      0.3228
     12  O7        -5.4760   30.1050   60.5310 O.3   901  NOV901     -0.3209
     13  C31       -6.7790   30.6870   60.8310 C.3   901  NOV901      0.1248
     14  C23       -7.4740   29.8750   61.9520 C.3   901  NOV901      0.0324
     15  C26       -6.4730   32.0700   61.4160 C.3   901  NOV901      0.0324
     16  O8        -5.9670   27.8560   60.1780 O.3   901  NOV901     -0.4507
     17  C3        -5.2880   27.1270   61.1740 C.ar  901  NOV901      0.1403
     18  C4        -5.8430   25.8470   61.4890 C.ar  901  NOV901      0.0469
     19  C2        -7.0890   25.3800   60.7420 C.3   901  NOV901      0.0374
     20  C5        -5.2280   25.0370   62.4890 C.ar  901  NOV901      0.1507
     21  C9        -4.0390   25.5140   63.1870 C.ar  901  NOV901      0.0750
     22  C10       -3.4940   26.7920   62.8600 C.ar  901  NOV901      0.0094
     23  C11       -4.1080   27.5860   61.8710 C.ar  901  NOV901      0.0370
     24  O10       -5.7830   23.8360   62.7640 O.2   901  NOV901     -0.4202
     25  C6        -5.2430   23.0370   63.6970 C.ar  901  NOV901      0.3645
     26  O11       -5.7850   21.9680   63.9070 O.2   901  NOV901     -0.2429
     27  C7        -4.0800   23.3990   64.4470 C.ar  901  NOV901      0.1882
     28  C8        -3.4680   24.6580   64.1770 C.ar  901  NOV901      0.2201
     29  O9        -2.3240   25.0170   64.9150 O.3   901  NOV901     -0.2848
     30  N2        -3.5370   22.5090   65.4440 N.am  901  NOV901     -0.1656
     31  C13       -3.9110   22.4140   66.7640 C.2   901  NOV901      0.2693
     32  O2        -3.3430   21.5840   67.4490 O.2   901  NOV901     -0.2680
     33  C14       -4.9640   23.2560   67.4080 C.ar  901  NOV901      0.0553
     34  C15       -4.7230   24.6410   67.6460 C.ar  901  NOV901      0.0038
     35  C16       -5.7040   25.4550   68.2640 C.ar  901  NOV901      0.0212
     36  C17       -6.9600   24.8870   68.6540 C.ar  901  NOV901      0.1920
     37  O3        -7.9180   25.7000   69.2640 O.3   901  NOV901     -0.2869
     38  C18       -7.2120   23.5010   68.4190 C.ar  901  NOV901      0.0419
     39  C19       -6.2200   22.6880   67.7960 C.ar  901  NOV901      0.0078
     40  C20       -5.4020   26.9070   68.4990 C.3   901  NOV901      0.0549
     41  C21       -5.9800   27.7230   67.3740 C.2   901  NOV901     -0.0298
     42  C22       -5.2540   28.4240   66.4700 C.2   901  NOV901     -0.0475
     43  C24       -5.9610   29.1940   65.3980 C.3   901  NOV901      0.0260
     44  C25       -3.7450   28.4720   66.4850 C.3   901  NOV901      0.0260
@<TRIPOS>BOND
     1     3     4   am
     2     4     5    2
     3     4     6    1
     4     6     8    1
     5    10     9    1
     6     9     8    1
     7     9    11    1
     8     8     7    1
     9     1     2    1
    10     7     2    1
    11     7    13    1
    12    11    16    1
    13    11    12    1
    14    16    17    1
    15    12    13    1
    16    19    18    1
    17    13    15    1
    18    13    14    1
    19    17    18   ar
    20    17    23   ar
    21    18    20   ar
    22    23    22   ar
    23    20    24   ar
    24    20    21   ar
    25    24    25   ar
    26    22    21   ar
    27    21    28   ar
    28    25    26    2
    29    25    27   ar
    30    28    27   ar
    31    28    29    1
    32    27    30    1
    33    43    42    1
    34    30    31   am
    35    42    44    1
    36    42    41    2
    37    31    33    1
    38    31    32    2
    39    41    40    1
    40    33    34   ar
    41    33    39   ar
    42    34    35   ar
    43    39    38   ar
    44    35    40    1
    45    35    36   ar
    46    38    36   ar
    47    36    37    1
