@<TRIPOS>MOLECULE
3lpt_723_A_1.pdb
 22 24 0 0 0
SMALL
GASTEIGER

@<TRIPOS>ATOM
      1  N         37.1750   33.5370    5.4660 N.2     1  7231       -0.3372
      2 CL         39.7850   28.2510    6.1940 Cl      1  7231       -0.0826
      3  C1        35.0010   32.6980    6.2910 C.2     1  7231        0.0838
      4  O1        35.4360   34.9370    5.5720 O.2     1  7231       -0.2096
      5  C2        33.5550   32.9650    6.6450 C.3     1  7231        0.1531
      6  O2        34.4760   33.2870    8.8510 O.co2   1  7231       -0.2453
      7  C3        35.5800   31.3570    6.5180 C.2     1  7231        0.0106
      8  O3        32.6040   34.2850    8.3780 O.co2   1  7231       -0.2453
      9  C4        34.7660   30.2200    7.0090 C.ar    1  7231        0.0005
     10  C5        37.0080   31.1720    6.1580 C.2     1  7231        0.0279
     11  C6        37.7680   32.3420    5.6280 C.2     1  7231        0.1263
     12  C7        35.8850   33.7810    5.7600 C.1     1  7231        0.2008
     13  C8        34.6520   29.8890    8.3530 C.ar    1  7231        0.0000
     14  C9        33.8600   28.7960    8.7060 C.ar    1  7231        0.0000
     15  C10       33.1980   28.0410    7.7360 C.ar    1  7231        0.0000
     16  C11       33.3170   28.3760    6.3910 C.ar    1  7231        0.0000
     17  C12       34.1060   29.4670    6.0320 C.ar    1  7231        0.0000
     18  C13       37.6430   29.9510    6.3190 C.2     1  7231        0.0133
     19  C14       38.9880   29.8370    5.9750 C.2     1  7231        0.0539
     20  C15       39.7110   30.9250    5.4750 C.2     1  7231       -0.0072
     21  C16       39.1160   32.1760    5.3030 C.3     1  7231        0.0868
     22  C17       33.5440   33.5450    8.0500 C.2     1  7231        0.3700
@<TRIPOS>BOND
     1    21    20    1
     2    21    11    1
     3     1    11    2
     4     1    12    2
     5    20    19    2
     6     4    12    2
     7    11    10    1
     8    12     3    1
     9    19     2    1
    10    19    18    1
    11    17    16   ar
    12    17     9   ar
    13    10    18    2
    14    10     7    1
    15     3     7    2
    16     3     5    1
    17    16    15   ar
    18     7     9    1
    19     5    22    1
    20     9    13   ar
    21    15    14   ar
    22    22     8   ar
    23    22     6   ar
    24    13    14   ar
