@<TRIPOS>MOLECULE
3lpu_P03_A_1.pdb
 15 14 0 0 0
SMALL
GASTEIGER

@<TRIPOS>ATOM
      1  C1        30.5370   41.6460    6.3200 C.3   213  P03213      0.2140
      2  O1        29.4310   41.8810    5.4380 O.3   213  P03213     -0.2176
      3  C2        31.8580   41.8840    5.5980 C.3   213  P03213      0.1776
      4  O2        31.9360   41.0710    4.4280 O.3   213  P03213     -0.3509
      5  C3        32.4230   39.7600    4.7040 C.3   213  P03213      0.1449
      6  O3        31.7240   37.2210    2.3370 O.3   213  P03213     -0.3536
      7  C4        32.8880   39.0650    3.4260 C.3   213  P03213      0.0641
      8  O4        27.4100   38.4320    1.4420 O.3   213  P03213     -0.3509
      9  C5        31.7310   38.6400    2.5250 C.3   213  P03213      0.1448
     10  O5        26.7130   40.8100    3.1690 O.3   213  P03213     -0.2176
     11  C6        30.4200   36.6340    2.3770 C.3   213  P03213      0.1448
     12  C7        29.5100   37.2400    1.3200 C.3   213  P03213      0.0641
     13  C8        28.0450   37.1910    1.7390 C.3   213  P03213      0.1449
     14  C9        26.2190   38.6460    2.1900 C.3   213  P03213      0.1776
     15  C10       25.9050   40.1390    2.1910 C.3   213  P03213      0.2140
@<TRIPOS>BOND
     1    12    13    1
     2    12    11    1
     3     8    13    1
     4     8    14    1
     5    14    15    1
     6    15    10    1
     7     6    11    1
     8     6     9    1
     9     9     7    1
    10     7     5    1
    11     4     5    1
    12     4     3    1
    13     2     1    1
    14     3     1    1
