@<TRIPOS>MOLECULE
3lpu_976_A_1.pdb
 25 27 0 0 0
SMALL
GASTEIGER

@<TRIPOS>ATOM
      1  N         37.4400   33.9690    5.6730 N.2     1  9761       -0.4105
      2 CL         39.8140   28.5220    6.1010 Cl      1  9761       -0.0826
      3  C1        39.1110   30.1590    5.9640 C.2     1  9761        0.0539
      4  O1        34.3750   33.7760    8.7190 O.co2   1  9761       -0.2453
      5  C2        39.9050   31.2580    5.6390 C.2     1  9761       -0.0073
      6  O2        32.6370   34.8750    8.0220 O.co2   1  9761       -0.2453
      7  C3        39.3650   32.5410    5.5390 C.3     1  9761        0.0858
      8  C4        38.0060   32.7370    5.7620 C.2     1  9761        0.1129
      9  C5        37.1820   31.5490    6.1050 C.2     1  9761        0.0263
     10  C6        37.7520   30.2950    6.1970 C.2     1  9761        0.0133
     11  C7        36.1120   34.1890    5.8910 C.2     1  9761        0.1055
     12  C8        35.1890   33.0800    6.2390 C.2     1  9761        0.0137
     13  C9        35.7390   31.7270    6.3600 C.2     1  9761        0.0008
     14  C10       34.8850   30.5670    6.6850 C.ar    1  9761       -0.0001
     15  C11       33.7470   33.2840    6.4840 C.3     1  9761        0.1277
     16  C12       33.6010   33.9950    7.8040 C.2     1  9761        0.3684
     17  C13       33.1340   34.0700    5.3240 C.3     1  9761        0.0158
     18  C14       32.8580   33.1630    4.1250 C.3     1  9761        0.0009
     19  C15       31.8700   32.0640    4.4660 C.3     1  9761        0.0000
     20  C16       35.5570   35.5830    5.7750 C.3     1  9761        0.0661
     21  C17       34.5100   30.2860    7.9900 C.ar    1  9761       -0.0000
     22  C18       33.7110   29.1770    8.2350 C.ar    1  9761       -0.0000
     23  C19       33.2930   28.3540    7.1920 C.ar    1  9761       -0.0000
     24  C20       33.6720   28.6450    5.8870 C.ar    1  9761       -0.0000
     25  C21       34.4730   29.7540    5.6370 C.ar    1  9761       -0.0000
@<TRIPOS>BOND
     1    18    19    1
     2    18    17    1
     3    17    15    1
     4     7     5    1
     5     7     8    1
     6    25    24   ar
     7    25    14   ar
     8     5     3    2
     9     1     8    2
    10     1    11    2
    11     8     9    1
    12    20    11    1
    13    24    23   ar
    14    11    12    1
    15     3     2    1
    16     3    10    1
    17     9    10    2
    18     9    13    1
    19    12    13    2
    20    12    15    1
    21    13    14    1
    22    15    16    1
    23    14    21   ar
    24    23    22   ar
    25    16     6   ar
    26    16     4   ar
    27    21    22   ar
