@<TRIPOS>MOLECULE
3lq2_TDP_A_1.pdb
 26 27 0 0 0
SMALL
GASTEIGER

@<TRIPOS>ATOM
      1  N1'       24.3550  -59.6140    1.5870 N.2   887  TDP887     -0.1861
      2  C2'       24.1320  -58.7230    0.5550 C.1   887  TDP887      0.0663
      3  C2A       24.2420  -57.2720    0.8740 C.3   887  TDP887      0.1291
      4  N3'       23.8250  -59.1140   -0.6860 N.2   887  TDP887     -0.3368
      5  C4'       23.7250  -60.4800   -0.9610 C.2   887  TDP887      0.2292
      6  N4'       23.4320  -60.8050   -2.2050 N.pl3 887  TDP887     -0.0925
      7  C5'       23.9560  -61.4690    0.1180 C.2   887  TDP887      0.0654
      8  C6'       24.2660  -60.9720    1.3620 C.2   887  TDP887      0.1115
      9  C35       23.8830  -62.9680   -0.0770 C.3   887  TDP887      0.1237
     10  N3        22.4710  -63.5100   -0.0770 N.pl3 887  TDP887     -0.2970
     11  C2        21.7440  -63.6370   -1.1720 C.3   887  TDP887      0.1543
     12  S1        20.2410  -64.2950   -0.8810 S.3   887  TDP887     -0.0951
     13  C5        20.5630  -64.4230    0.8080 C.2   887  TDP887      0.0164
     14  C4        21.8180  -63.9540    1.0950 C.2   887  TDP887      0.0279
     15  C4A       22.4860  -63.8830    2.4390 C.3   887  TDP887      0.0473
     16  C5A       19.5490  -64.9870    1.7590 C.3   887  TDP887      0.0661
     17  C5B       18.1780  -65.1000    1.1420 C.3   887  TDP887      0.1544
     18  O5G       17.1940  -64.8800    2.1940 O.3   887  TDP887     -0.3134
     19  P1        15.9390  -63.8730    2.0090 P.3   887  TDP887      0.2230
     20  O11       15.2310  -64.3730    0.6470 O.3   887  TDP887     -0.2261
     21  O12       15.0010  -64.1030    3.1330 O.3   887  TDP887     -0.4370
     22  O13       16.4580  -62.4920    1.7820 O.2   887  TDP887     -0.5169
     23  P2        14.6880  -65.7750    0.0690 P.3   887  TDP887      0.5373
     24  O21       13.2930  -65.4720   -0.5610 O.3   887  TDP887     -0.1143
     25  O22       15.6240  -66.1910   -1.0090 O.2   887  TDP887     -0.2221
     26  O23       14.5090  -66.7050    1.2200 O.3   887  TDP887     -0.1143
@<TRIPOS>BOND
     1     6     5    1
     2    11    12    1
     3    11    10    1
     4    25    23    2
     5     5     4    2
     6     5     7    1
     7    12    13    1
     8     4     2    2
     9    24    23    1
    10     9    10    1
    11     9     7    1
    12    10    14    1
    13    23    20    1
    14    23    26    1
    15     7     8    2
    16     2     3    1
    17     2     1    2
    18    20    19    1
    19    13    14    2
    20    13    16    1
    21    14    15    1
    22    17    16    1
    23    17    18    1
    24     8     1    1
    25    22    19    2
    26    19    18    1
    27    19    21    1
