@<TRIPOS>MOLECULE
3lq3_AMP_A_1.pdb
 23 25 0 0 0
SMALL
GASTEIGER

@<TRIPOS>ATOM
      1  P         30.8500   55.5300    6.7300 P.3   402  AMP402      0.5327
      2  O1P       31.9200   56.5790    6.5460 O.3   402  AMP402     -0.1145
      3  O2P       30.3550   55.4120    8.1550 O.3   402  AMP402     -0.1145
      4  O3P       29.8140   55.5300    5.6430 O.2   402  AMP402     -0.2224
      5  O5'       31.6040   54.1220    6.4910 O.3   402  AMP402     -0.2675
      6  C5'       32.2260   53.8180    5.2440 C.3   402  AMP402      0.1860
      7  C4'       32.1210   52.3180    4.9710 C.3   402  AMP402      0.1823
      8  O4'       32.8780   51.5230    5.8960 O.3   402  AMP402     -0.3135
      9  C3'       30.7040   51.8360    5.1440 C.3   402  AMP402      0.2184
     10  O3'       30.4410   50.9300    4.0680 O.3   402  AMP402     -0.2174
     11  C2'       30.6600   51.1030    6.4720 C.3   402  AMP402      0.2570
     12  O2'       29.7260   50.0540    6.4540 O.3   402  AMP402     -0.2130
     13  C1'       32.0530   50.5330    6.5610 C.3   402  AMP402      0.3186
     14  N9        32.6570   50.3600    7.9130 N.pl3 402  AMP402     -0.1439
     15  C8        32.4680   51.1200    9.0260 C.3   402  AMP402      0.3377
     16  N7        33.2380   50.6760   10.0330 N.2   402  AMP402     -0.2095
     17  C5        33.9570   49.6400    9.5510 C.2   402  AMP402      0.2526
     18  C6        34.9600   48.7680   10.1090 C.2   402  AMP402      0.4393
     19  N6        35.3710   48.9100   11.3720 N.pl3 402  AMP402      0.2180
     20  N1        35.4560   47.8050    9.3000 N.2   402  AMP402      0.0021
     21  C2        35.0690   47.6710    8.0170 C.3   402  AMP402      0.5254
     22  N3        34.1380   48.4450    7.4450 N.2   402  AMP402     -0.0055
     23  C4        33.5880   49.4380    8.1690 C.2   402  AMP402      0.3518
@<TRIPOS>BOND
     1    10     9    1
     2     7     9    1
     3     7     6    1
     4     7     8    1
     5     9    11    1
     6     6     5    1
     7     4     1    2
     8     8    13    1
     9    12    11    1
    10    11    13    1
    11     5     1    1
    12     2     1    1
    13    13    14    1
    14     1     3    1
    15    22    21    1
    16    22    23    2
    17    14    23    1
    18    14    15    1
    19    21    20    1
    20    23    17    1
    21    15    16    1
    22    20    18    2
    23    17    16    2
    24    17    18    1
    25    18    19    1
