@<TRIPOS>MOLECULE
3lq3_HC7_A_1.pdb
 34 36 0 0 0
SMALL
GASTEIGER

@<TRIPOS>ATOM
      1  CAW       25.7430   61.1780   -2.7370 C.3   396  HC7396     -0.0080
      2  NBG       26.6040   61.4300   -3.9080 N.4   396  HC7396      0.3924
      3  CAC       25.7760   61.2910   -5.1160 C.3   396  HC7396     -0.0955
      4  CAD       27.1360   62.7910   -3.8880 C.3   396  HC7396     -0.0955
      5  CAT       27.7020   60.4380   -3.9820 C.3   396  HC7396     -0.0403
      6  CAR       28.4060   60.2840   -2.6060 C.3   396  HC7396      0.1229
      7  OAX       27.5200   60.0390   -1.4940 O.3   396  HC7396     -0.3327
      8  CBE       26.5210   61.0560   -1.4020 C.3   396  HC7396      0.2200
      9  OAG       27.1220   62.3040   -1.0360 O.3   396  HC7396     -0.1927
     10  CBD       25.4750   60.6060   -0.3650 C.ar  396  HC7396      0.0290
     11  CAQ       24.9740   59.3070   -0.3970 C.ar  396  HC7396      0.0004
     12  CAO       24.0100   58.8710    0.5430 C.ar  396  HC7396     -0.0002
     13  CAP       24.9940   61.4960    0.5950 C.ar  396  HC7396      0.0004
     14  CAN       24.0330   61.0570    1.5260 C.ar  396  HC7396     -0.0002
     15  CBC       23.5350   59.7490    1.5230 C.ar  396  HC7396     -0.0000
     16  CBB       22.5680   59.3340    2.4690 C.ar  396  HC7396      0.0000
     17  CAM       22.5320   58.0390    2.9790 C.ar  396  HC7396      0.0001
     18  CAK       21.5790   57.6520    3.9210 C.ar  396  HC7396      0.0028
     19  CAL       21.5990   60.2260    2.9400 C.ar  396  HC7396      0.0001
     20  CAJ       20.6130   59.8370    3.8550 C.ar  396  HC7396      0.0028
     21  CBA       20.5930   58.5390    4.3740 C.ar  396  HC7396      0.0326
     22  CAZ       19.5160   58.1560    5.3710 C.2   396  HC7396      0.1529
     23  OAE       18.5300   58.8850    5.5690 O.2   396  HC7396     -0.2935
     24  CAV       19.6720   56.8690    6.1570 C.3   396  HC7396     -0.0021
     25  NBF       18.9110   56.8200    7.4240 N.4   396  HC7396      0.3938
     26  CAA       19.2150   55.4970    8.0670 C.3   396  HC7396     -0.0951
     27  CAB       17.4410   56.7890    7.1860 C.3   396  HC7396     -0.0951
     28  CAU       19.2170   57.9640    8.3210 C.3   396  HC7396     -0.0394
     29  CAS       20.5490   57.9220    9.0370 C.3   396  HC7396      0.1317
     30  OAY       21.5450   57.8400    8.1080 O.3   396  HC7396     -0.2725
     31  PBH       22.9880   57.3440    8.4670 P.3   396  HC7396      0.5325
     32  OAH       23.5740   58.2190    9.5130 O.3   396  HC7396     -0.1145
     33  OAI       23.7440   57.5070    7.1450 O.2   396  HC7396     -0.2224
     34  OAF       23.0200   55.8360    8.7870 O.3   396  HC7396     -0.1145
@<TRIPOS>BOND
     1     3     2    1
     2     5     2    1
     3     5     6    1
     4     2     4    1
     5     2     1    1
     6     1     8    1
     7     6     7    1
     8     7     8    1
     9     8     9    1
    10     8    10    1
    11    11    10   ar
    12    11    12   ar
    13    10    13   ar
    14    12    15   ar
    15    13    14   ar
    16    15    14   ar
    17    15    16    1
    18    16    19   ar
    19    16    17   ar
    20    19    20   ar
    21    17    18   ar
    22    20    21   ar
    23    18    21   ar
    24    21    22    1
    25    22    23    2
    26    22    24    1
    27    24    25    1
    28    33    31    2
    29    27    25    1
    30    25    26    1
    31    25    28    1
    32    30    31    1
    33    30    29    1
    34    28    29    1
    35    31    34    1
    36    31    32    1
