@<TRIPOS>MOLECULE
3lq3_ADP_A_1.pdb
 27 29 0 0 0
SMALL
GASTEIGER

@<TRIPOS>ATOM
      1  PB        28.8450   56.5110    8.8400 P.3   401  ADP401      0.5373
      2  O1B       28.3890   57.4110    9.9500 O.3   401  ADP401     -0.1143
      3  O2B       27.7260   55.7010    8.2160 O.3   401  ADP401     -0.1143
      4  O3B       29.7390   57.2210    7.8260 O.2   401  ADP401     -0.2221
      5  PA        29.9470   53.7960    9.6100 P.3   401  ADP401      0.2231
      6  O1A       30.5620   53.3680   10.9120 O.3   401  ADP401     -0.4370
      7  O2A       28.5950   53.2200    9.2600 O.2   401  ADP401     -0.5169
      8  O3A       29.8650   55.4360    9.5940 O.3   401  ADP401     -0.2261
      9  O5'       31.0140   53.5060    8.4560 O.3   401  ADP401     -0.3111
     10  C5'       30.6570   53.7370    7.1040 C.3   401  ADP401      0.1813
     11  C4'       31.0650   52.5570    6.2150 C.3   401  ADP401      0.1821
     12  O4'       32.4450   52.2190    6.4380 O.3   401  ADP401     -0.3135
     13  C3'       30.2910   51.2600    6.4460 C.3   401  ADP401      0.2184
     14  O3'       29.1470   51.1550    5.6000 O.3   401  ADP401     -0.2174
     15  C2'       31.2800   50.1910    6.0990 C.3   401  ADP401      0.2570
     16  O2'       31.2680   49.9480    4.6870 O.3   401  ADP401     -0.2130
     17  C1'       32.5970   50.8070    6.4690 C.3   401  ADP401      0.3186
     18  N9        33.0140   50.5160    7.8490 N.pl3 401  ADP401     -0.1439
     19  C8        32.6640   51.1930    8.9730 C.3   401  ADP401      0.3377
     20  N7        33.2670   50.6410   10.0510 N.2   401  ADP401     -0.2095
     21  C5        34.0170   49.6150    9.5870 C.2   401  ADP401      0.2526
     22  C6        34.9110   48.6250   10.1770 C.2   401  ADP401      0.4393
     23  N6        35.1330   48.6160   11.4960 N.pl3 401  ADP401      0.2180
     24  N1        35.4910   47.7260    9.3510 N.2   401  ADP401      0.0021
     25  C2        35.2770   47.7340    8.0200 C.3   401  ADP401      0.5254
     26  N3        34.4680   48.6150    7.4140 N.2   401  ADP401     -0.0055
     27  C4        33.8430   49.5510    8.1520 C.2   401  ADP401      0.3518
@<TRIPOS>BOND
     1    16    15    1
     2    14    13    1
     3    15    13    1
     4    15    17    1
     5    11    12    1
     6    11    13    1
     7    11    10    1
     8    12    17    1
     9    17    18    1
    10    10     9    1
    11    26    25    1
    12    26    27    2
    13     4     1    2
    14    18    27    1
    15    18    19    1
    16    25    24    1
    17    27    21    1
    18     3     1    1
    19     9     5    1
    20     1     8    1
    21     1     2    1
    22    19    20    1
    23     7     5    2
    24    24    22    2
    25    21    20    2
    26    21    22    1
    27     8     5    1
    28     5     6    1
    29    22    23    1
