@<TRIPOS>MOLECULE
3lq4_TDP_A_1.pdb
 26 27 0 0 0
SMALL
GASTEIGER

@<TRIPOS>ATOM
      1  N1'       25.0280  -59.3640    1.4060 N.2   887  TDP887     -0.1861
      2  C2'       24.5830  -58.4660    0.4550 C.1   887  TDP887      0.0663
      3  C2A       24.7260  -57.0140    0.7630 C.3   887  TDP887      0.1291
      4  N3'       24.0360  -58.8510   -0.6990 N.2   887  TDP887     -0.3368
      5  C4'       23.9020  -60.2190   -0.9670 C.2   887  TDP887      0.2292
      6  N4'       23.3630  -60.5320   -2.1300 N.pl3 887  TDP887     -0.0925
      7  C5'       24.3640  -61.2170    0.0260 C.2   887  TDP887      0.0654
      8  C6'       24.9150  -60.7250    1.1860 C.2   887  TDP887      0.1115
      9  C35       24.2990  -62.7220   -0.1760 C.3   887  TDP887      0.1237
     10  N3        22.8920  -63.2930   -0.2140 N.pl3 887  TDP887     -0.2970
     11  C2        22.2770  -63.6300   -1.3340 C.3   887  TDP887      0.1543
     12  S1        20.7620  -64.2790   -1.0760 S.3   887  TDP887     -0.0951
     13  C5        20.9190  -64.1040    0.6320 C.2   887  TDP887      0.0164
     14  C4        22.1330  -63.5540    0.9510 C.2   887  TDP887      0.0279
     15  C4A       22.6700  -63.2510    2.3190 C.3   887  TDP887      0.0473
     16  C5A       19.8160  -64.5110    1.5640 C.3   887  TDP887      0.0661
     17  C5B       18.4460  -64.2440    0.9890 C.3   887  TDP887      0.1544
     18  O5G       17.4760  -64.3920    2.0650 O.3   887  TDP887     -0.3134
     19  P1        16.0680  -63.5950    2.0730 P.3   887  TDP887      0.2230
     20  O11       15.2800  -64.1770    0.7870 O.3   887  TDP887     -0.2261
     21  O12       15.3350  -63.9930    3.2930 O.3   887  TDP887     -0.4370
     22  O13       16.3290  -62.1460    1.8410 O.2   887  TDP887     -0.5169
     23  P2        14.8910  -65.6370    0.2170 P.3   887  TDP887      0.5373
     24  O21       13.4600  -65.5020   -0.3900 O.3   887  TDP887     -0.1143
     25  O22       15.8470  -65.9450   -0.8760 O.2   887  TDP887     -0.2221
     26  O23       14.8430  -66.5790    1.3660 O.3   887  TDP887     -0.1143
@<TRIPOS>BOND
     1     6     5    1
     2    11    12    1
     3    11    10    1
     4    12    13    1
     5     5     4    2
     6     5     7    1
     7    25    23    2
     8     4     2    2
     9    24    23    1
    10    10     9    1
    11    10    14    1
    12     9     7    1
    13     7     8    2
    14    23    20    1
    15    23    26    1
    16     2     3    1
    17     2     1    2
    18    13    14    2
    19    13    16    1
    20    20    19    1
    21    14    15    1
    22    17    16    1
    23    17    18    1
    24     8     1    1
    25    22    19    2
    26    18    19    1
    27    19    21    1
