@<TRIPOS>MOLECULE
3lq5_SLQ_A_1.pdb
 32 35 0 0 0
SMALL
GASTEIGER

@<TRIPOS>ATOM
      1  N1        55.3360  -17.5040  -11.3650 N.2   331  SLQ331     -0.3084
      2  O1        52.5640  -20.6300  -12.4950 O.3   331  SLQ331     -0.2185
      3  C2        53.9860  -17.4670  -11.4850 C.1   331  SLQ331      0.2227
      4  N2        53.1850  -18.5830  -11.0300 N.pl3 331  SLQ331     -0.1508
      5  N3        53.3860  -16.3350  -11.9370 N.2   331  SLQ331     -0.3099
      6  C4        54.1220  -15.2610  -12.2740 C.2   331  SLQ331      0.2197
      7  C5        55.4730  -15.3040  -12.1610 C.2   331  SLQ331      0.1690
      8  C6        56.0670  -16.4410  -11.7000 C.2   331  SLQ331      0.2344
      9  N6        57.4890  -16.5040  -11.4960 N.pl3 331  SLQ331     -0.2027
     10  N7        55.9610  -14.1320  -12.5600 N.2   331  SLQ331     -0.2402
     11  C8        54.9160  -13.3570  -12.9260 C.3   331  SLQ331      0.2220
     12  C9        52.4200  -13.6060  -12.9800 C.3   331  SLQ331      0.0770
     13  N9        53.7810  -14.0610  -12.7440 N.pl3 331  SLQ331     -0.2624
     14  C1'       59.3820  -17.8390  -12.1210 C.ar  331  SLQ331     -0.0006
     15  C10       51.6790  -14.3280  -14.1040 C.3   331  SLQ331      0.0216
     16  C11       51.5930  -13.4670  -11.7050 C.3   331  SLQ331      0.0216
     17  C12       52.0570  -19.2990  -10.4650 C.3   331  SLQ331      0.1385
     18  C13       50.7890  -18.4390  -10.5570 C.3   331  SLQ331      0.0252
     19  C14       49.4790  -19.1140  -10.1560 C.3   331  SLQ331      0.0019
     20  C15       51.8790  -20.5580  -11.2750 C.3   331  SLQ331      0.2044
     21  C1B       61.1020  -19.7340  -15.3930 C.ar  331  SLQ331      0.0813
     22  N1B       61.8240  -18.9440  -16.2670 N.ar  331  SLQ331     -0.2438
     23  C2'       60.1650  -17.1100  -13.0120 C.ar  331  SLQ331     -0.0025
     24  C2B       60.9340  -21.1080  -15.6340 C.ar  331  SLQ331      0.0191
     25  C3'       60.7360  -17.7670  -14.0950 C.ar  331  SLQ331      0.0012
     26  C3B       61.5130  -21.6670  -16.7460 C.ar  331  SLQ331      0.0031
     27  C4'       60.5150  -19.1370  -14.2840 C.ar  331  SLQ331      0.0176
     28  C4B       62.2370  -20.8740  -17.6090 C.ar  331  SLQ331      0.0207
     29  C5'       59.7060  -19.8630  -13.3830 C.ar  331  SLQ331      0.0012
     30  C5B       62.3990  -19.4980  -17.3760 C.ar  331  SLQ331      0.0988
     31  C6'       59.1250  -19.2070  -12.2890 C.ar  331  SLQ331     -0.0025
     32  CA'       58.7250  -17.0630  -11.0090 C.3   331  SLQ331      0.1413
@<TRIPOS>BOND
     1    28    30   ar
     2    28    26   ar
     3    30    22   ar
     4    26    24   ar
     5    22    21   ar
     6    24    21   ar
     7    21    27    1
     8    27    25   ar
     9    27    29   ar
    10    15    12    1
    11    25    23   ar
    12    29    31   ar
    13    23    14   ar
    14    12    13    1
    15    12    16    1
    16    11    13    1
    17    11    10    1
    18    13     6    1
    19    10     7    2
    20     2    20    1
    21    31    14   ar
    22     6     7    1
    23     6     5    2
    24     7     8    1
    25    14    32    1
    26     5     3    2
    27     8     9    1
    28     8     1    2
    29     9    32    1
    30     3     1    2
    31     3     4    1
    32    20    17    1
    33     4    17    1
    34    18    17    1
    35    18    19    1
