@<TRIPOS>MOLECULE
3lq8_88Z_A_1.pdb
 46 51 0 0 0
SMALL
GASTEIGER

@<TRIPOS>ATOM
      1  C1        -4.1270    3.1380   30.7040 C.3     1  88Z1        0.1932
      2  C2        -5.0100    4.3010   30.5130 C.2     1  88Z1        0.1487
      3  C3        -4.5070    5.6010   30.3670 C.2     1  88Z1        0.0541
      4  C4        -3.1310    5.7950   30.3810 C.2     1  88Z1        0.0836
      5  C5        -2.2500    4.6130   30.5820 C.2     1  88Z1        0.0377
      6  C6        -2.7380    3.3300   30.7410 C.2     1  88Z1        0.0115
      7  N7        -2.5880    7.0190   30.2290 N.2     1  88Z1       -0.2442
      8  C8        -1.2580    7.2500   30.2170 C.2     1  88Z1        0.0982
      9  C9        -0.3540    6.1810   30.4530 C.2     1  88Z1        0.0418
     10  C10       -0.8220    4.8600   30.6120 C.3     1  88Z1        0.2131
     11  O11       -4.7660    1.9090   30.8150 O.3     1  88Z1       -0.3416
     12  C12       -4.0970    0.6650   31.0330 C.3     1  88Z1        0.1751
     13  O13       -6.3280    3.9790   30.5020 O.2     1  88Z1       -0.4769
     14  O14       -0.0100    3.7510   30.7610 O.3     1  88Z1       -0.4679
     15  C15        1.2820    3.8340   30.3260 C.ar    1  88Z1        0.1667
     16  C16        1.6580    3.7710   28.9990 C.ar    1  88Z1        0.0406
     17  C17        2.9920    3.8710   28.6730 C.ar    1  88Z1        0.0199
     18  C18        3.9860    4.0490   29.6490 C.ar    1  88Z1        0.0758
     19  C19        3.6530    4.0910   30.9980 C.ar    1  88Z1        0.0494
     20  C20        2.3080    4.0020   31.3610 C.ar    1  88Z1        0.1751
     21  F21        1.8570    4.0670   32.6250 F       1  88Z1       -0.2009
     22  N22        5.2660    4.1510   29.2260 N.am    1  88Z1       -0.1788
     23  C23       -7.3870    4.9350   30.6280 C.3     1  88Z1        0.2065
     24  C24       -8.6720    4.1240   30.7980 C.3     1  88Z1        0.0646
     25  C25       -9.1570    3.8610   29.3920 C.3     1  88Z1        0.0761
     26  N26      -10.3380    3.0260   29.3180 N.3     1  88Z1       -0.2683
     27  C27      -10.6240    2.5090   27.9740 C.3     1  88Z1        0.1046
     28  C28      -12.1230    2.2180   27.8660 C.3     1  88Z1        0.1595
     29  O29      -12.4340    1.3970   28.9820 O.3     1  88Z1       -0.3508
     30  C30      -12.3360    2.2120   30.1590 C.3     1  88Z1        0.1595
     31  C31      -10.8380    2.3140   30.4910 C.3     1  88Z1        0.1046
     32  C32        6.4110    3.8540   29.8760 C.2     1  88Z1        0.2530
     33  C33        7.7140    3.9280   29.1010 C.3     1  88Z1        0.1411
     34  C34        7.6440    4.1760   27.5770 C.2     1  88Z1        0.2530
     35  N35        8.7740    4.3730   26.8710 N.am    1  88Z1       -0.1788
     36  O36        6.4690    3.5060   31.0310 O.2     1  88Z1       -0.2725
     37  O37        6.5800    4.5870   27.0980 O.2     1  88Z1       -0.2725
     38  C38        8.7450    4.5550   25.5100 C.ar    1  88Z1        0.0735
     39  C39        8.1720    5.7060   24.9340 C.ar    1  88Z1        0.0189
     40  C40        8.1180    5.9050   23.5480 C.ar    1  88Z1        0.0310
     41  C41        8.7120    4.9090   22.7350 C.ar    1  88Z1        0.1402
     42  C42        9.2930    3.7690   23.2980 C.ar    1  88Z1        0.0310
     43  C43        9.3470    3.5810   24.6850 C.ar    1  88Z1        0.0189
     44  F44        8.7230    5.0430   21.3910 F       1  88Z1       -0.2042
     45  C45        8.6780    2.8460   29.6270 C.3     1  88Z1        0.0185
     46  C46        8.9860    4.3190   29.8840 C.3     1  88Z1        0.0185
@<TRIPOS>BOND
     1    44    41    1
     2    41    42   ar
     3    41    40   ar
     4    42    43   ar
     5    40    39   ar
     6    43    38   ar
     7    39    38   ar
     8    38    35    1
     9    35    34   am
    10    37    34    2
    11    34    33    1
    12    28    27    1
    13    28    29    1
    14    27    26    1
    15    17    16   ar
    16    17    18   ar
    17    29    30    1
    18    16    15   ar
    19    33    45    1
    20    33    32    1
    21    33    46    1
    22    22    18    1
    23    22    32   am
    24    26    25    1
    25    26    31    1
    26    25    24    1
    27    45    46    1
    28    18    19   ar
    29    32    36    2
    30    30    31    1
    31     8     7    1
    32     8     9    2
    33     7     4    2
    34    15    14    1
    35    15    20   ar
    36     3     4    1
    37     3     2    2
    38     4     5    1
    39     9    10    1
    40    13     2    1
    41    13    23    1
    42     2     1    1
    43     5    10    1
    44     5     6    2
    45    10    14    1
    46    23    24    1
    47     1     6    1
    48     1    11    1
    49    11    12    1
    50    19    20   ar
    51    20    21    1
