@<TRIPOS>MOLECULE
3lqd_HEM_A_1.pdb
 43 50 0 0 0
SMALL
GASTEIGER

@<TRIPOS>ATOM
      1  CHA       22.1270  -19.3550   11.0120 C.2   142  HEM142      0.0000
      2  CHB       21.3350  -19.6120   15.7740 C.2   142  HEM142      0.0000
      3  CHC       21.1420  -14.7720   15.9580 C.2   142  HEM142      0.0000
      4  CHD       21.8960  -14.4520   11.2530 C.2   142  HEM142      0.0000
      5  C1A       21.8210  -19.8570   12.2430 C.2   142  HEM142      0.0000
      6  C2A       21.5270  -21.2470   12.5740 C.2   142  HEM142      0.0000
      7  C3A       21.3110  -21.2920   13.8990 C.2   142  HEM142      0.0000
      8  C4A       21.4720  -19.9630   14.4420 C.2   142  HEM142      0.0000
      9  CMA       20.9490  -22.5270   14.7420 C.3   142  HEM142      0.0000
     10  CAA       21.4620  -22.4350   11.5700 C.3   142  HEM142      0.0000
     11  CBA       22.8420  -22.7060   10.9710 C.3   142  HEM142      0.0000
     12  CGA       23.0360  -24.0410   10.2690 C.2   142  HEM142      0.0000
     13  O1A       24.0430  -24.1620    9.5140 O.co2 142  HEM142      0.0000
     14  O2A       22.2280  -24.9950   10.4500 O.co2 142  HEM142      0.0000
     15  C1B       21.2100  -18.3250   16.2590 C.ar  142  HEM142      0.0000
     16  C2B       20.9450  -17.9110   17.6220 C.ar  142  HEM142      0.0000
     17  C3B       20.8850  -16.5890   17.6400 C.ar  142  HEM142      0.0000
     18  C4B       21.1290  -16.1050   16.3010 C.ar  142  HEM142      0.0000
     19  CMB       20.7680  -18.8000   18.8590 C.3   142  HEM142      0.0000
     20  CAB       20.6330  -15.6470   18.8460 C.2   142  HEM142      0.0000
     21  CBB       19.6220  -15.8460   19.6960 C.2   142  HEM142      0.0000
     22  C1C       21.2730  -14.2550   14.7140 C.2   142  HEM142      0.0000
     23  C2C       21.1180  -12.8610   14.3260 C.2   142  HEM142      0.0000
     24  C3C       21.3230  -12.7810   13.0060 C.2   142  HEM142      0.0000
     25  C4C       21.6180  -14.1200   12.5470 C.2   142  HEM142      0.0000
     26  CMC       20.7750  -11.7060   15.2840 C.3   142  HEM142      0.0000
     27  CAC       21.2980  -11.5510   12.0710 C.2   142  HEM142      0.0000
     28  CBC       20.2260  -10.7600   11.9250 C.2   142  HEM142      0.0000
     29  C1D       21.9800  -15.7270   10.7480 C.ar  142  HEM142      0.0000
     30  C2D       22.0920  -16.0260    9.3240 C.ar  142  HEM142      0.0000
     31  C3D       22.1750  -17.5640    9.2630 C.ar  142  HEM142      0.0000
     32  C4D       22.0990  -18.0290   10.6500 C.ar  142  HEM142      0.0000
     33  CMD       22.1300  -14.9940    8.1520 C.3   142  HEM142      0.0000
     34  CAD       22.2940  -18.4660    8.0170 C.3   142  HEM142      0.0000
     35  CBD       20.8750  -18.6820    7.4970 C.3   142  HEM142      0.0000
     36  CGD       20.8630  -19.5310    6.2570 C.2   142  HEM142      0.0000
     37  O1D       21.2680  -19.0300    5.1740 O.co2 142  HEM142      0.0000
     38  O2D       20.4560  -20.7160    6.3580 O.co2 142  HEM142      0.0000
     39  NA        21.7730  -19.1050   13.3950 N.2   142  HEM142      0.0000
     40  NB        21.3210  -17.1900   15.4790 N.ar  142  HEM142      0.0000
     41  NC        21.5820  -15.0020   13.6200 N.2   142  HEM142      0.0000
     42  ND        21.9900  -16.9170   11.4950 N.ar  142  HEM142      0.0000
     43 FE         21.6760  -17.0480   13.4830 Fe    142  HEM142      0.0000
@<TRIPOS>BOND
     1    37    36   ar
     2    36    38   ar
     3    36    35    1
     4    35    34    1
     5    34    31    1
     6    33    30    1
     7    31    30   ar
     8    31    32   ar
     9    30    29   ar
    10    13    12   ar
    11    12    14   ar
    12    12    11    1
    13    32     1    2
    14    32    42   ar
    15    29     4    2
    16    29    42   ar
    17    11    10    1
    18     1     5    1
    19     4    25    1
    20    42    43    1
    21    10     6    1
    22    28    27    2
    23    27    24    1
    24     5     6    1
    25     5    39    2
    26    25    24    1
    27    25    41    2
    28     6     7    2
    29    24    23    2
    30    39    43    1
    31    39     8    1
    32    43    41    1
    33    43    40    1
    34    41    22    1
    35     7     8    1
    36     7     9    1
    37    23    22    1
    38    23    26    1
    39     8     2    2
    40    22     3    2
    41    40    15   ar
    42    40    18   ar
    43     2    15    1
    44     3    18    1
    45    15    16   ar
    46    18    17   ar
    47    16    17   ar
    48    16    19    1
    49    17    20    1
    50    20    21    2
