@<TRIPOS>MOLECULE
3lqf_NAD_A_1.pdb
 44 48 0 0 0
SMALL
GASTEIGER

@<TRIPOS>ATOM
      1  PA         6.8880   10.4110    8.0290 P.3   257  NAD257      0.2189
      2  O1A        5.5070   10.1120    8.5020 O.3   257  NAD257     -0.4371
      3  O2A        7.5280    9.4820    7.0620 O.2   257  NAD257     -0.5170
      4  O5B        6.9520   11.9240    7.4150 O.3   257  NAD257     -0.3112
      5  C5B        8.1890   12.4120    6.8650 C.3   257  NAD257      0.1813
      6  C4B        7.9190   13.5350    5.8600 C.3   257  NAD257      0.1821
      7  O4B        9.2060   14.0610    5.4410 O.3   257  NAD257     -0.3135
      8  C3B        7.1940   13.0300    4.5890 C.3   257  NAD257      0.2184
      9  O3B        6.1690   13.9610    4.2620 O.3   257  NAD257     -0.2174
     10  C2B        8.2810   13.0700    3.5200 C.3   257  NAD257      0.2570
     11  O2B        7.7530   13.3370    2.2030 O.3   257  NAD257     -0.2130
     12  C1B        9.1150   14.2510    4.0230 C.3   257  NAD257      0.3186
     13  N9A       10.4430   14.1800    3.4160 N.pl3 257  NAD257     -0.1439
     14  C8A       11.2490   13.1120    3.3590 C.3   257  NAD257      0.3377
     15  N7A       12.3750   13.4420    2.7190 N.2   257  NAD257     -0.2095
     16  C5A       12.2750   14.7250    2.3720 C.2   257  NAD257      0.2526
     17  C6A       13.1170   15.6010    1.6880 C.2   257  NAD257      0.4393
     18  N6A       14.2920   15.1590    1.2460 N.pl3 257  NAD257      0.2180
     19  N1A       12.7080   16.8820    1.4930 N.2   257  NAD257      0.0021
     20  C2A       11.5230   17.2940    1.9400 C.3   257  NAD257      0.5254
     21  N3A       10.6860   16.4820    2.5930 N.2   257  NAD257     -0.0055
     22  C4A       11.0410   15.1990    2.8100 C.2   257  NAD257      0.3518
     23  O3         7.9250   10.6260    9.3000 O.3   257  NAD257     -0.2703
     24  PN         7.5710   11.4140   10.6960 P.3   257  NAD257      0.2189
     25  O1N        6.7470   12.6070   10.4650 O.2   257  NAD257     -0.5170
     26  O2N        7.1300   10.4170   11.7020 O.3   257  NAD257     -0.4371
     27  O5D        9.1000   11.8780   11.0450 O.3   257  NAD257     -0.3112
     28  C5D        9.4120   13.2860   11.2330 C.3   257  NAD257      0.1813
     29  C4D       10.7890   13.5260   11.9250 C.3   257  NAD257      0.1799
     30  O4D       10.7820   12.8910   13.2440 O.3   257  NAD257     -0.3327
     31  C3D       11.9630   12.9110   11.1620 C.3   257  NAD257      0.2158
     32  O3D       13.1160   13.7370   11.3110 O.3   257  NAD257     -0.2175
     33  C2D       12.1830   11.5790   11.8830 C.3   257  NAD257      0.2309
     34  O2D       13.5280   11.1280   11.6970 O.3   257  NAD257     -0.2158
     35  C1D       11.9260   12.0040   13.3260 C.3   257  NAD257      0.2263
     36  N1N       11.5850   10.9300   14.2870 N.pl3 257  NAD257     -0.2787
     37  C2N       10.5790    9.9790   13.9870 C.3   257  NAD257      0.1244
     38  C3N       10.2620    8.9720   14.9040 C.2   257  NAD257      0.0544
     39  C7N        9.1680    7.9440   14.5570 C.2   257  NAD257      0.2818
     40  O7N        8.1120    8.3010   13.7460 O.2   257  NAD257     -0.2670
     41  N7N        9.3360    6.7010   15.0330 N.am  257  NAD257     -0.0839
     42  C4N       10.9570    8.9240   16.1200 C.2   257  NAD257      0.0033
     43  C5N       11.9550    9.8610   16.4190 C.2   257  NAD257      0.0157
     44  C6N       12.2750   10.8720   15.5080 C.2   257  NAD257      0.0633
@<TRIPOS>BOND
     1    18    17    1
     2    19    17    2
     3    19    20    1
     4    17    16    1
     5    20    21    1
     6    11    10    1
     7    16    15    2
     8    16    22    1
     9    21    22    2
    10    15    14    1
    11    22    13    1
    12    14    13    1
    13    13    12    1
    14    10    12    1
    15    10     8    1
    16    12     7    1
    17     9     8    1
    18     8     6    1
    19     7     6    1
    20     6     5    1
    21     5     4    1
    22     3     1    2
    23     4     1    1
    24     1     2    1
    25     1    23    1
    26    23    24    1
    27    25    24    2
    28    24    27    1
    29    24    26    1
    30    27    28    1
    31    31    32    1
    32    31    33    1
    33    31    29    1
    34    28    29    1
    35    34    33    1
    36    33    35    1
    37    29    30    1
    38    30    35    1
    39    35    36    1
    40    40    39    2
    41    37    36    1
    42    37    38    1
    43    36    44    1
    44    39    38    1
    45    39    41   am
    46    38    42    2
    47    44    43    2
    48    42    43    1
