@<TRIPOS>MOLECULE
3lqg_388_A_1.pdb
 24 25 0 0 0
SMALL
GASTEIGER

@<TRIPOS>ATOM
      1  C1        18.1610   -6.0950   13.5090 C.3   600  388600      0.1440
      2  N10       17.5910   -6.8870   14.5690 N.am  600  388600     -0.1966
      3  C11       17.7520   -8.2420   14.4910 C.2   600  388600      0.2680
      4  O12       18.3430   -8.7670   13.5610 O.2   600  388600     -0.2682
      5  C2        17.2050   -5.5550   12.4640 C.ar  600  388600      0.0270
      6  C7        17.6760   -4.5620   11.5940 C.ar  600  388600      0.1383
      7  F9        18.9570   -4.1710   11.6850 F     600  388600     -0.2044
      8  C6        16.8520   -4.0210   10.6350 C.ar  600  388600      0.0361
      9  C5        15.5380   -4.4530   10.4840 C.ar  600  388600      0.0368
     10 BR8        14.5510   -3.6100    9.1520 Br    600  388600     -0.0489
     11  C4        15.0390   -5.4550   11.3310 C.ar  600  388600      0.0066
     12  C3        15.8840   -5.9880   12.3100 C.ar  600  388600      0.0002
     13  C8        16.8970   -9.0050   15.4760 C.ar  600  388600      0.0890
     14  C9        16.2540  -10.1620   15.0360 C.ar  600  388600      0.0085
     15  C10       15.4430  -10.9180   15.8980 C.ar  600  388600      0.0117
     16  C12       15.3140  -10.4650   17.1960 C.ar  600  388600      0.0607
     17 CL1        14.3110  -11.3630   18.2810 Cl    600  388600     -0.0821
     18  C14       15.9420   -9.3070   17.6910 C.ar  600  388600      0.0484
     19  C15       16.7460   -8.5950   16.8140 C.ar  600  388600      0.1446
     20  O20       17.4220   -7.4740   17.2380 O.3   600  388600     -0.4635
     21  C21       16.9020   -6.7460   18.3290 C.3   600  388600      0.3186
     22  C22       15.6510   -5.9960   17.9370 C.2   600  388600      0.4084
     23  O24       14.9650   -5.5950   18.9340 O.co2 600  388600     -0.2415
     24  O23       15.4000   -5.8350   16.6910 O.co2 600  388600     -0.2415
@<TRIPOS>BOND
     1    10     9    1
     2     9     8   ar
     3     9    11   ar
     4     8     6   ar
     5    11    12   ar
     6     6     7    1
     7     6     5   ar
     8    12     5   ar
     9     5     1    1
    10     1     2    1
    11     4     3    2
    12     3     2   am
    13     3    13    1
    14    14    13   ar
    15    14    15   ar
    16    13    19   ar
    17    15    16   ar
    18    24    22   ar
    19    19    20    1
    20    19    18   ar
    21    16    18   ar
    22    16    17    1
    23    20    21    1
    24    22    21    1
    25    22    23   ar
