@<TRIPOS>MOLECULE
3lqg_NAP_A_1.pdb
 48 52 0 0 0
SMALL
GASTEIGER

@<TRIPOS>ATOM
      1  PA        22.5530   -4.8100   26.8230 P.3   500  NAP500      0.2189
      2  O1A       23.4660   -3.7580   26.3180 O.2   500  NAP500     -0.5170
      3  O2A       21.4810   -4.4900   27.7810 O.3   500  NAP500     -0.4371
      4  O5B       23.4810   -6.0000   27.3400 O.3   500  NAP500     -0.3112
      5  C5B       22.8740   -7.2240   27.8100 C.3   500  NAP500      0.1813
      6  C4B       24.0710   -8.1150   28.2300 C.3   500  NAP500      0.1820
      7  O4B       24.7550   -7.4920   29.3220 O.3   500  NAP500     -0.3136
      8  C3B       23.6380   -9.5140   28.7350 C.3   500  NAP500      0.2157
      9  O3B       24.5420  -10.4870   28.2150 O.3   500  NAP500     -0.2175
     10  C2B       23.7620   -9.3450   30.2750 C.3   500  NAP500      0.2314
     11  O2B       24.0810  -10.6160   30.8710 O.3   500  NAP500     -0.2630
     12  C1B       24.9420   -8.3980   30.3890 C.3   500  NAP500      0.3158
     13  N9A       24.9110   -7.6670   31.6190 N.pl3 500  NAP500     -0.1439
     14  C8A       23.8280   -6.9940   32.1830 C.3   500  NAP500      0.3377
     15  N7A       24.1120   -6.4060   33.3060 N.2   500  NAP500     -0.2095
     16  C5A       25.4610   -6.6930   33.5180 C.2   500  NAP500      0.2526
     17  C6A       26.2570   -6.2970   34.6020 C.2   500  NAP500      0.4393
     18  N6A       25.8740   -5.5460   35.6320 N.pl3 500  NAP500      0.2180
     19  N1A       27.5560   -6.7590   34.4820 N.2   500  NAP500      0.0021
     20  C2A       28.0230   -7.5470   33.4240 C.3   500  NAP500      0.5254
     21  N3A       27.2150   -7.9090   32.3810 N.2   500  NAP500     -0.0055
     22  C4A       25.9080   -7.4570   32.4750 C.2   500  NAP500      0.3518
     23  O3        21.9080   -5.5370   25.5410 O.3   500  NAP500     -0.2703
     24  PN        20.5490   -5.6290   24.7260 P.3   500  NAP500      0.2189
     25  O1N       19.7380   -6.7560   25.3190 O.3   500  NAP500     -0.4371
     26  O2N       20.8890   -5.6590   23.2880 O.2   500  NAP500     -0.5170
     27  O5D       19.8040   -4.2360   24.9870 O.3   500  NAP500     -0.3112
     28  C5D       18.9290   -3.9740   26.1410 C.3   500  NAP500      0.1813
     29  C4D       17.4660   -4.0740   25.7310 C.3   500  NAP500      0.1799
     30  O4D       17.1430   -3.0880   24.6890 O.3   500  NAP500     -0.3327
     31  C3D       17.0550   -5.4000   24.9940 C.3   500  NAP500      0.2158
     32  O3D       17.0000   -6.5280   25.8350 O.3   500  NAP500     -0.2175
     33  C2D       15.7110   -4.9510   24.3660 C.3   500  NAP500      0.2309
     34  O2D       14.7680   -4.9230   25.4500 O.3   500  NAP500     -0.2158
     35  C1D       16.0310   -3.5370   23.9000 C.3   500  NAP500      0.2263
     36  N1N       16.5350   -3.5140   22.4690 N.pl3 500  NAP500     -0.2787
     37  C2N       15.6490   -2.9480   21.5440 C.3   500  NAP500      0.1244
     38  C3N       16.0360   -2.9790   20.1910 C.2   500  NAP500      0.0544
     39  C7N       15.1110   -2.3660   19.1650 C.2   500  NAP500      0.2818
     40  O7N       15.3650   -2.5090   17.9560 O.2   500  NAP500     -0.2670
     41  N7N       14.2770   -1.4650   19.6590 N.am  500  NAP500     -0.0839
     42  C4N       17.2640   -3.5820   19.7630 C.2   500  NAP500      0.0033
     43  C5N       18.1630   -4.1290   20.7480 C.2   500  NAP500      0.0157
     44  C6N       17.7640   -4.0670   22.0900 C.2   500  NAP500      0.0633
     45  P2B       23.0300  -11.5440   31.6880 P.3   500  NAP500      0.5328
     46  O1X       23.6210  -12.9340   31.4410 O.3   500  NAP500     -0.1145
     47  O2X       23.1040  -11.1090   33.1300 O.3   500  NAP500     -0.1145
     48  O3X       21.6530  -11.3340   31.0730 O.2   500  NAP500     -0.2224
@<TRIPOS>BOND
     1    40    39    2
     2    39    41   am
     3    39    38    1
     4    42    38    2
     5    42    43    1
     6    38    37    1
     7    43    44    2
     8    37    36    1
     9    44    36    1
    10    36    35    1
    11    26    24    2
    12    35    33    1
    13    35    30    1
    14    33    31    1
    15    33    34    1
    16    30    29    1
    17    24    27    1
    18    24    25    1
    19    24    23    1
    20    27    28    1
    21    31    29    1
    22    31    32    1
    23    23     1    1
    24    29    28    1
    25     2     1    2
    26     1     4    1
    27     1     3    1
    28     4     5    1
    29     5     6    1
    30     9     8    1
    31     6     8    1
    32     6     7    1
    33     8    10    1
    34     7    12    1
    35    10    12    1
    36    10    11    1
    37    12    13    1
    38    11    45    1
    39    48    45    2
    40    46    45    1
    41    13    14    1
    42    13    22    1
    43    45    47    1
    44    14    15    1
    45    21    22    2
    46    21    20    1
    47    22    16    1
    48    15    16    2
    49    20    19    1
    50    16    17    1
    51    19    17    2
    52    17    18    1
