@<TRIPOS>MOLECULE
3lqi_III_R_1.pdb
 50 49 0 0 0
SMALL
GASTEIGER

@<TRIPOS>ATOM
      1  N         -1.0110   23.8830   -6.5600 N.3     1  ALA1       -0.1231
      2  CA        -1.7180   23.1550   -7.6550 C.3     1  ALA1        0.1694
      3  C         -3.0380   22.6270   -7.1240 C.2     1  ALA1        0.2592
      4  O         -3.0710   21.9250   -6.1170 O.2     1  ALA1       -0.2718
      5  CB        -0.8550   21.9980   -8.1640 C.3     1  ALA1        0.0304
      6  N         -4.1270   22.9540   -7.8100 N.am    2  ARG2       -0.1966
      7  CA        -5.4470   22.5170   -7.3750 C.3     2  ARG2        0.1729
      8  C         -5.8150   21.1360   -7.9050 C.2     2  ARG2        0.2617
      9  O         -5.7350   20.8760   -9.1060 O.2     2  ARG2       -0.2715
     10  CB        -6.4900   23.5460   -7.8150 C.3     2  ARG2        0.0348
     11  CG        -7.8850   23.3360   -7.2530 C.3     2  ARG2        0.0492
     12  CD        -8.5660   24.6880   -7.0850 C.3     2  ARG2        0.2205
     13  NE        -9.8300   24.7910   -7.8050 N.pl3   2  ARG2       -0.0865
     14  CZ       -11.0130   24.4620   -7.2970 C.cat   2  ARG2        0.5346
     15  NH1      -11.1010   24.0060   -6.0540 N.pl3   2  ARG2        0.1354
     16  NH2      -12.1100   24.5980   -8.0310 N.pl3   2  ARG2        0.1354
     17  N         -6.2010   20.2430   -6.9990 N.am    3  THR3       -0.1937
     18  CA        -6.6080   18.8960   -7.3840 C.3     3  THR3        0.2028
     19  C         -7.9550   18.6310   -6.7330 C.2     3  THR3        0.2642
     20  O         -8.4550   19.4690   -5.9810 O.2     3  THR3       -0.2714
     21  CB        -5.6060   17.8210   -6.9050 C.3     3  THR3        0.1808
     22  OG1       -5.6830   17.6900   -5.4790 O.3     3  THR3       -0.2208
     23  CG2       -4.1800   18.2000   -7.3070 C.3     3  THR3        0.0379
     24  N         -8.5460   17.4780   -7.0240 N.am    4  LYS4       -0.1963
     25  CA        -9.8370   17.1240   -6.4450 C.3     4  LYS4        0.1728
     26  CB       -10.3720   15.8460   -7.0910 C.3     4  LYS4        0.0311
     27  CG       -10.8390   16.0190   -8.5340 C.3     4  LYS4        0.0037
     28  CD       -12.1250   16.8410   -8.6070 C.3     4  LYS4        0.0174
     29  CE       -12.6120   16.9930  -10.0410 C.3     4  LYS4        0.0722
     30  NZ       -14.0300   17.3980  -10.1380 N.3     4  LYS4       -0.2703
     31  CH1      -14.3970   17.4850  -11.5550 C.3     4  LYS4        0.0897
     32  CH2      -14.3840   18.6570   -9.4680 C.3     4  LYS4        0.0897
     33  C         -9.6990   16.9150   -4.9410 C.2     4  LYS4        0.2616
     34  O        -10.6810   16.9430   -4.2020 O.2     4  LYS4       -0.2715
     35  N         -8.4660   16.7100   -4.5000 N.am    5  GLN5       -0.1963
     36  CA        -8.1720   16.4780   -3.0960 C.3     5  GLN5        0.1733
     37  C         -7.9650   17.8080   -2.3760 C.2     5  GLN5        0.2617
     38  O         -8.2620   17.9350   -1.1870 O.2     5  GLN5       -0.2715
     39  CB        -6.9140   15.6180   -2.9880 C.3     5  GLN5        0.0408
     40  CG        -6.9560   14.5680   -1.9030 C.3     5  GLN5        0.0908
     41  CD        -5.8680   13.5320   -2.0800 C.2     5  GLN5        0.2608
     42  OE1       -4.6830   13.8580   -2.0930 O.2     5  GLN5       -0.2717
     43  NE2       -6.2660   12.2720   -2.2250 N.am    5  GLN5       -0.0878
     44  N         -7.4570   18.7960   -3.1090 N.am    6  THR6       -0.1951
     45  CA        -7.2090   20.1230   -2.5540 C.3     6  THR6        0.1897
     46  C         -8.4950   20.6890   -1.9670 C.2     6  THR6        0.2313
     47  O         -8.5630   20.8270   -0.7280 O.2     6  THR6       -0.2863
     48  CB        -6.7040   21.1010   -3.6380 C.3     6  THR6        0.1794
     49  OG1       -5.5340   20.5630   -4.2610 O.3     6  THR6       -0.2208
     50  CG2       -6.3660   22.4520   -3.0220 C.3     6  THR6        0.0378
@<TRIPOS>BOND
     1    31    30    1
     2    30    29    1
     3    30    32    1
     4    29    28    1
     5     9     8    2
     6    28    27    1
     7    27    26    1
     8     5     2    1
     9    16    14    1
    10     8     7    1
    11     8    17   am
    12    10     7    1
    13    10    11    1
    14     6     7    1
    15     6     3   am
    16    13    14    2
    17    13    12    1
    18     2     3    1
    19     2     1    1
    20    18    17    1
    21    18    21    1
    22    18    19    1
    23    23    21    1
    24    14    15    1
    25    11    12    1
    26     3     4    2
    27    26    25    1
    28    24    19   am
    29    24    25    1
    30    21    22    1
    31    19    20    2
    32    25    33    1
    33    33    35   am
    34    33    34    2
    35    35    36    1
    36    49    48    1
    37    48    50    1
    38    48    45    1
    39    44    45    1
    40    44    37   am
    41    36    39    1
    42    36    37    1
    43    39    40    1
    44    45    46    1
    45    37    38    2
    46    43    41   am
    47    42    41    2
    48    41    40    1
    49    46    47    2
