@<TRIPOS>MOLECULE
3lql_LDT_A_1.pdb
 24 25 0 0 0
SMALL
GASTEIGER

@<TRIPOS>ATOM
      1  C2        15.8060   -9.2600   18.0100 C.ar  600  LDT600      0.0666
      2  C3        16.0120  -10.1610   15.4030 C.ar  600  LDT600      0.0071
      3  C4        16.6120   -8.5880   17.1090 C.ar  600  LDT600      0.1433
      4  C5        15.1020  -10.3750   17.5790 C.ar  600  LDT600      0.1432
      5  C6        15.1780  -10.8680   16.2880 C.ar  600  LDT600      0.0299
      6  C7        16.7030   -9.0300   15.7940 C.ar  600  LDT600      0.0556
      7 BR8        14.6880   -3.5520    9.3900 Br    600  LDT600     -0.0489
      8  F9        14.3210  -11.0080   18.4680 F     600  LDT600     -0.2041
      9  C11       17.5380   -8.3030   14.8090 C.2   600  LDT600      0.1039
     10  C13       18.1150   -6.1490   13.8470 C.3   600  LDT600      0.1414
     11  F14       19.0210   -4.2000   12.0890 F     600  LDT600     -0.2044
     12  O15       17.4000   -7.5170   17.4610 O.3   600  LDT600     -0.4636
     13  S16       18.4790   -9.1900   13.7660 S.2   600  LDT600     -0.0331
     14  N17       17.3980   -6.9880   14.7820 N.am  600  LDT600     -0.2257
     15  C20       16.9540   -6.6900   18.5340 C.3   600  LDT600      0.3186
     16  C24       17.2190   -5.5570   12.7540 C.ar  600  LDT600      0.0269
     17  C25       15.7080   -4.3680   10.7170 C.ar  600  LDT600      0.0368
     18  C26       15.8790   -5.9390   12.5240 C.ar  600  LDT600      0.0002
     19  C27       17.7590   -4.5780   11.8990 C.ar  600  LDT600      0.1383
     20  C28       17.0200   -3.9770   10.8890 C.ar  600  LDT600      0.0361
     21  C29       15.1350   -5.3470   11.5260 C.ar  600  LDT600      0.0066
     22  C32       15.7200   -5.8920   18.1050 C.2   600  LDT600      0.4084
     23  O33       15.0090   -5.4340   19.0090 O.co2 600  LDT600     -0.2415
     24  O34       15.5030   -5.7390   16.8570 O.co2 600  LDT600     -0.2415
@<TRIPOS>BOND
     1     7    17    1
     2    17    20   ar
     3    17    21   ar
     4    20    19   ar
     5    21    18   ar
     6    19    11    1
     7    19    16   ar
     8    18    16   ar
     9    16    10    1
    10    13     9    2
    11    10    14    1
    12    14     9    1
    13     9     6    1
    14     2     6   ar
    15     2     5   ar
    16     6     3   ar
    17     5     4   ar
    18    24    22   ar
    19     3    12    1
    20     3     1   ar
    21    12    15    1
    22     4     1   ar
    23     4     8    1
    24    22    15    1
    25    22    23   ar
