@<TRIPOS>MOLECULE
3lql_NAP_A_1.pdb
 48 52 0 0 0
SMALL
GASTEIGER

@<TRIPOS>ATOM
      1  PA        22.6940   -4.6690   26.9420 P.3   500  NAP500      0.2189
      2  O1A       23.6020   -3.6200   26.4390 O.2   500  NAP500     -0.5170
      3  O2A       21.6200   -4.3180   27.8850 O.3   500  NAP500     -0.4371
      4  O5B       23.6360   -5.8460   27.4660 O.3   500  NAP500     -0.3112
      5  C5B       23.0170   -7.0600   27.9990 C.3   500  NAP500      0.1813
      6  C4B       24.1960   -7.9590   28.3740 C.3   500  NAP500      0.1820
      7  O4B       24.9480   -7.3560   29.4190 O.3   500  NAP500     -0.3136
      8  C3B       23.8010   -9.3660   28.8410 C.3   500  NAP500      0.2157
      9  O3B       24.7050  -10.2930   28.3270 O.3   500  NAP500     -0.2175
     10  C2B       23.9000   -9.2210   30.3850 C.3   500  NAP500      0.2314
     11  O2B       24.2740  -10.4640   30.9740 O.3   500  NAP500     -0.2630
     12  C1B       25.0820   -8.2490   30.5180 C.3   500  NAP500      0.3158
     13  N9A       25.0800   -7.4790   31.7480 N.pl3 500  NAP500     -0.1439
     14  C8A       23.9840   -6.8320   32.3130 C.3   500  NAP500      0.3377
     15  N7A       24.2520   -6.2350   33.4220 N.2   500  NAP500     -0.2095
     16  C5A       25.6050   -6.4800   33.6070 C.2   500  NAP500      0.2526
     17  C6A       26.4550   -6.0910   34.6520 C.2   500  NAP500      0.4393
     18  N6A       26.0520   -5.3580   35.7090 N.pl3 500  NAP500      0.2180
     19  N1A       27.7650   -6.5320   34.5750 N.2   500  NAP500      0.0021
     20  C2A       28.1660   -7.2890   33.4950 C.3   500  NAP500      0.5254
     21  N3A       27.3920   -7.6690   32.4690 N.2   500  NAP500     -0.0055
     22  C4A       26.0830   -7.2480   32.5790 C.2   500  NAP500      0.3518
     23  O3        22.0530   -5.3870   25.6360 O.3   500  NAP500     -0.2703
     24  PN        20.6780   -5.4970   24.8670 P.3   500  NAP500      0.2189
     25  O1N       19.8940   -6.6060   25.4460 O.3   500  NAP500     -0.4371
     26  O2N       20.9950   -5.5120   23.4090 O.2   500  NAP500     -0.5170
     27  O5D       19.9380   -4.0970   25.1120 O.3   500  NAP500     -0.3112
     28  C5D       19.0540   -3.8430   26.2470 C.3   500  NAP500      0.1813
     29  C4D       17.6200   -3.9660   25.8040 C.3   500  NAP500      0.1799
     30  O4D       17.2730   -2.9710   24.8270 O.3   500  NAP500     -0.3327
     31  C3D       17.2000   -5.2700   25.1080 C.3   500  NAP500      0.2158
     32  O3D       17.1470   -6.3860   25.9780 O.3   500  NAP500     -0.2175
     33  C2D       15.8610   -4.8410   24.5240 C.3   500  NAP500      0.2309
     34  O2D       14.8940   -4.8060   25.5700 O.3   500  NAP500     -0.2158
     35  C1D       16.1790   -3.4250   24.0460 C.3   500  NAP500      0.2263
     36  N1N       16.6630   -3.4000   22.5910 N.pl3 500  NAP500     -0.2787
     37  C2N       15.8000   -2.8540   21.6910 C.3   500  NAP500      0.1244
     38  C3N       16.1580   -2.8680   20.3210 C.2   500  NAP500      0.0544
     39  C7N       15.2430   -2.2220   19.3000 C.2   500  NAP500      0.2818
     40  O7N       15.4670   -2.4270   18.1070 O.2   500  NAP500     -0.2670
     41  N7N       14.3390   -1.3590   19.7620 N.am  500  NAP500     -0.0839
     42  C4N       17.3540   -3.4610   19.9080 C.2   500  NAP500      0.0033
     43  C5N       18.2430   -3.9750   20.8700 C.2   500  NAP500      0.0157
     44  C6N       17.8910   -3.9300   22.2030 C.2   500  NAP500      0.0633
     45  P2B       23.2150  -11.3940   31.8070 P.3   500  NAP500      0.5328
     46  O1X       23.8340  -12.7650   31.5880 O.3   500  NAP500     -0.1145
     47  O2X       23.3330  -10.9400   33.2670 O.3   500  NAP500     -0.1145
     48  O3X       21.8530  -11.1740   31.2330 O.2   500  NAP500     -0.2224
@<TRIPOS>BOND
     1    40    39    2
     2    39    41   am
     3    39    38    1
     4    42    38    2
     5    42    43    1
     6    38    37    1
     7    43    44    2
     8    37    36    1
     9    44    36    1
    10    36    35    1
    11    26    24    2
    12    35    33    1
    13    35    30    1
    14    33    31    1
    15    33    34    1
    16    30    29    1
    17    24    27    1
    18    24    25    1
    19    24    23    1
    20    31    29    1
    21    31    32    1
    22    27    28    1
    23    23     1    1
    24    29    28    1
    25     2     1    2
    26     1     4    1
    27     1     3    1
    28     4     5    1
    29     5     6    1
    30     9     8    1
    31     6     8    1
    32     6     7    1
    33     8    10    1
    34     7    12    1
    35    10    12    1
    36    10    11    1
    37    12    13    1
    38    11    45    1
    39    48    45    2
    40    46    45    1
    41    13    14    1
    42    13    22    1
    43    45    47    1
    44    14    15    1
    45    21    22    2
    46    21    20    1
    47    22    16    1
    48    15    16    2
    49    20    19    1
    50    16    17    1
    51    19    17    2
    52    17    18    1
