@<TRIPOS>MOLECULE
3lqq_ATP_A_1.pdb
 31 33 0 0 0
SMALL
GASTEIGER

@<TRIPOS>ATOM
      1  PG        15.6770  -43.8150   34.3910 P.3   602  ATP602      0.5373
      2  O1G       17.1500  -43.6590   34.6400 O.3   602  ATP602     -0.1143
      3  O2G       14.8350  -43.1030   35.4500 O.3   602  ATP602     -0.1143
      4  O3G       15.2420  -43.7000   32.9450 O.2   602  ATP602     -0.2221
      5  PB        15.6320  -45.9310   36.0140 P.3   602  ATP602      0.2277
      6  O1B       15.2180  -44.7570   36.8710 O.3   602  ATP602     -0.4368
      7  O2B       17.0340  -46.4640   35.9280 O.2   602  ATP602     -0.5168
      8  O3B       15.3620  -45.3700   34.5600 O.3   602  ATP602     -0.2258
      9  PA        13.2980  -47.0080   37.1910 P.3   602  ATP602      0.2189
     10  O1A       13.4940  -47.7510   38.4950 O.3   602  ATP602     -0.4371
     11  O2A       12.7510  -45.5940   37.2330 O.2   602  ATP602     -0.5170
     12  O3A       14.6020  -47.1590   36.2450 O.3   602  ATP602     -0.2700
     13  O5'       12.2410  -47.8570   36.3870 O.3   602  ATP602     -0.3112
     14  C5'       10.8910  -47.4940   36.5930 C.3   602  ATP602      0.1813
     15  C4'       10.1540  -48.6640   35.9830 C.3   602  ATP602      0.1821
     16  O4'       11.0530  -49.7790   35.8670 O.3   602  ATP602     -0.3135
     17  C3'        9.0020  -49.1100   36.8550 C.3   602  ATP602      0.2184
     18  O3'        7.7750  -48.6000   36.3270 O.3   602  ATP602     -0.2174
     19  C2'        9.0400  -50.6160   36.7360 C.3   602  ATP602      0.2570
     20  O2'        8.2510  -50.9200   35.5920 O.3   602  ATP602     -0.2130
     21  C1'       10.4790  -50.9890   36.4130 C.3   602  ATP602      0.3186
     22  N9        11.2140  -51.4150   37.6620 N.pl3 602  ATP602     -0.1439
     23  C8        12.5230  -51.1690   37.9410 C.3   602  ATP602      0.3377
     24  N7        12.9150  -51.6740   39.1360 N.2   602  ATP602     -0.2095
     25  C5        11.8300  -52.2710   39.6700 C.2   602  ATP602      0.2526
     26  C6        11.5420  -52.9950   40.9410 C.2   602  ATP602      0.4393
     27  N6        12.5200  -53.1770   41.8840 N.pl3 602  ATP602      0.2180
     28  N1        10.2740  -53.4640   41.1090 N.2   602  ATP602      0.0021
     29  C2         9.3200  -53.2860   40.1690 C.3   602  ATP602      0.5254
     30  N3         9.5060  -52.6390   39.0010 N.2   602  ATP602     -0.0055
     31  C4        10.7210  -52.1170   38.6970 C.2   602  ATP602      0.3518
@<TRIPOS>BOND
     1     4     1    2
     2     1     8    1
     3     1     2    1
     4     1     3    1
     5     8     5    1
     6    20    19    1
     7    16    15    1
     8    16    21    1
     9     7     5    2
    10    15    14    1
    11    15    17    1
    12     5    12    1
    13     5     6    1
    14    12     9    1
    15    18    17    1
    16    13    14    1
    17    13     9    1
    18    21    19    1
    19    21    22    1
    20    19    17    1
    21     9    11    2
    22     9    10    1
    23    22    23    1
    24    22    31    1
    25    23    24    1
    26    31    30    2
    27    31    25    1
    28    30    29    1
    29    24    25    2
    30    25    26    1
    31    29    28    1
    32    26    28    2
    33    26    27    1
