@<TRIPOS>MOLECULE
3lqr_ATP_A_1.pdb
 31 33 0 0 0
SMALL
GASTEIGER

@<TRIPOS>ATOM
      1  PG        15.3690  -43.0510   34.6600 P.3   602  ATP602      0.5373
      2  O1G       16.8100  -42.8420   35.0840 O.3   602  ATP602     -0.1143
      3  O2G       14.3840  -42.6460   35.7510 O.3   602  ATP602     -0.1143
      4  O3G       15.0340  -42.6270   33.2460 O.2   602  ATP602     -0.2221
      5  PB        15.5630  -45.5010   35.7430 P.3   602  ATP602      0.2277
      6  O1B       15.4530  -44.4620   36.8410 O.3   602  ATP602     -0.4368
      7  O2B       16.8850  -46.1500   35.4090 O.2   602  ATP602     -0.5168
      8  O3B       15.1680  -44.6310   34.4740 O.3   602  ATP602     -0.2258
      9  PA        13.2860  -46.7190   37.0340 P.3   602  ATP602      0.2189
     10  O1A       13.8980  -47.4200   38.2040 O.3   602  ATP602     -0.4371
     11  O2A       12.5890  -45.3750   37.2360 O.2   602  ATP602     -0.5170
     12  O3A       14.4360  -46.6790   35.8830 O.3   602  ATP602     -0.2700
     13  O5'       12.1810  -47.7670   36.5920 O.3   602  ATP602     -0.3112
     14  C5'       10.8080  -47.4670   36.8100 C.3   602  ATP602      0.1813
     15  C4'       10.1220  -48.6400   36.1280 C.3   602  ATP602      0.1821
     16  O4'       11.0580  -49.7310   36.0390 O.3   602  ATP602     -0.3135
     17  C3'        8.9130  -49.2020   36.8570 C.3   602  ATP602      0.2184
     18  O3'        7.6790  -48.5740   36.4750 O.3   602  ATP602     -0.2174
     19  C2'        8.9740  -50.6660   36.4600 C.3   602  ATP602      0.2570
     20  O2'        8.4630  -50.7960   35.1340 O.3   602  ATP602     -0.2130
     21  C1'       10.4580  -50.9880   36.4040 C.3   602  ATP602      0.3186
     22  N9        10.9610  -51.3810   37.7570 N.pl3 602  ATP602     -0.1439
     23  C8        12.1300  -50.9700   38.3010 C.3   602  ATP602      0.3377
     24  N7        12.3130  -51.4790   39.5490 N.2   602  ATP602     -0.2095
     25  C5        11.2400  -52.2460   39.8330 C.2   602  ATP602      0.2526
     26  C6        10.7950  -53.0750   40.9880 C.2   602  ATP602      0.4393
     27  N6        11.5620  -53.1820   42.1030 N.pl3 602  ATP602      0.2180
     28  N1         9.6050  -53.7240   40.8820 N.2   602  ATP602      0.0021
     29  C2         8.8410  -53.6300   39.7710 C.3   602  ATP602      0.5254
     30  N3         9.1820  -52.8950   38.6890 N.2   602  ATP602     -0.0055
     31  C4        10.3520  -52.1900   38.6500 C.2   602  ATP602      0.3518
@<TRIPOS>BOND
     1     4     1    2
     2     8     1    1
     3     8     5    1
     4     1     2    1
     5     1     3    1
     6    20    19    1
     7     7     5    2
     8     5    12    1
     9     5     6    1
    10    12     9    1
    11    16    15    1
    12    16    21    1
    13    15    14    1
    14    15    17    1
    15    21    19    1
    16    21    22    1
    17    19    17    1
    18    18    17    1
    19    13    14    1
    20    13     9    1
    21     9    11    2
    22     9    10    1
    23    22    23    1
    24    22    31    1
    25    23    24    1
    26    31    30    2
    27    31    25    1
    28    30    29    1
    29    24    25    2
    30    29    28    1
    31    25    26    1
    32    28    26    2
    33    26    27    1
