@<TRIPOS>MOLECULE
3lqs_PSZ_A_1.pdb
 24 25 0 0 0
SMALL
GASTEIGER

@<TRIPOS>ATOM
      1  O1T       51.3820   14.2110   14.3630 O.co2 595  PSZ595     -0.2400
      2  C3A       51.5470   15.3170   14.9550 C.2   595  PSZ595      0.3937
      3  O2T       52.5250   15.4690   15.7460 O.co2 595  PSZ595     -0.2400
      4  C2T       50.6580   16.5040   14.7470 C.ar  595  PSZ595      0.1106
      5  S         50.9230   18.1000   15.2180 S.2   595  PSZ595     -0.0785
      6  C5T       49.4130   18.7070   14.7370 C.ar  595  PSZ595      0.0517
      7  C4T       48.7340   17.6910   14.1480 C.ar  595  PSZ595      0.0729
      8  C3T       49.5280   16.7330   14.2770 C.ar  595  PSZ595      0.0297
      9  N4A       47.5260   17.7530   13.5840 N.pl3 595  PSZ595     -0.2322
     10  C4A       46.6590   18.9050   13.6930 C.3   595  PSZ595      0.1416
     11  C4        45.4130   18.7270   12.8280 C.ar  595  PSZ595      0.0394
     12  C3        44.2500   17.9740   13.3290 C.ar  595  PSZ595      0.2065
     13  O3        44.3100   17.4180   14.5610 O.3   595  PSZ595     -0.2856
     14  C2        43.0550   17.8280   12.4470 C.ar  595  PSZ595      0.0978
     15  C2A       41.8360   17.0580   12.9150 C.3   595  PSZ595      0.0555
     16  N1        43.0710   18.3880   11.2220 N.ar  595  PSZ595     -0.2452
     17  C6        44.1160   19.0990   10.7260 C.ar  595  PSZ595      0.0965
     18  C5        45.2940   19.2680   11.4580 C.ar  595  PSZ595      0.0278
     19  C5A       46.4110   20.0540   10.9030 C.3   595  PSZ595      0.1816
     20  O4P       46.5130   21.3900   11.4840 O.3   595  PSZ595     -0.2653
     21  P         47.8970   22.2020   11.4640 P.3   595  PSZ595      0.5329
     22  O3P       48.3430   22.2370   10.0150 O.2   595  PSZ595     -0.2224
     23  O1P       47.4490   23.5230   11.9930 O.3   595  PSZ595     -0.1145
     24  O2P       48.8820   21.4270   12.2890 O.3   595  PSZ595     -0.1145
@<TRIPOS>BOND
     1    22    21    2
     2    17    16   ar
     3    17    18   ar
     4    19    18    1
     5    19    20    1
     6    16    14   ar
     7    18    11   ar
     8    21    20    1
     9    21    23    1
    10    21    24    1
    11    14    15    1
    12    14    12   ar
    13    11    12   ar
    14    11    10    1
    15    12    13    1
    16     9    10    1
    17     9     7    1
    18     7     8   ar
    19     7     6   ar
    20     8     4   ar
    21     1     2   ar
    22     6     5   ar
    23     4     2    1
    24     4     5   ar
    25     2     3   ar
