@<TRIPOS>MOLECULE
3lqu_5SP_A_1.pdb
 14 13 0 0 0
SMALL
GASTEIGER

@<TRIPOS>ATOM
      1  O1        -9.7220  -21.7720   20.4800 O.3   500  5SP500     -0.2118
      2  C2        -8.8330  -22.6740   21.0650 C.3   500  5SP500      0.2486
      3  C3        -8.0050  -23.5370   20.1500 C.2   500  5SP500      0.2165
      4  O4        -8.2220  -23.5230   18.9560 O.2   500  5SP500     -0.2905
      5  C5        -6.9940  -24.5210   20.7090 C.3   500  5SP500      0.2439
      6  C6        -7.4760  -25.2910   21.9370 C.3   500  5SP500      0.2194
      7  C7        -7.5340  -26.7810   21.6710 C.3   500  5SP500      0.1896
      8  O8        -7.3040  -27.1840   20.3430 O.3   500  5SP500     -0.2674
      9  P9        -6.3300  -28.3990   20.0840 P.3   500  5SP500      0.5327
     10  O10       -6.3460  -29.2160   21.3610 O.3   500  5SP500     -0.1145
     11  O11       -4.8740  -27.8940   19.8380 O.3   500  5SP500     -0.1145
     12  O12       -6.8340  -29.2310   18.8370 O.2   500  5SP500     -0.2224
     13  O13       -5.6870  -24.0380   20.7540 O.3   500  5SP500     -0.2122
     14  O14       -6.8880  -24.9570   23.1420 O.3   500  5SP500     -0.2172
@<TRIPOS>BOND
     1    12     9    2
     2     4     3    2
     3    11     9    1
     4     9     8    1
     5     9    10    1
     6     3     5    1
     7     3     2    1
     8     8     7    1
     9     1     2    1
    10     5    13    1
    11     5     6    1
    12     7     6    1
    13     6    14    1
