@<TRIPOS>MOLECULE
3lqv_ADE_A_1.pdb
 10 11 0 0 0
SMALL
GASTEIGER

@<TRIPOS>ATOM
      1  N9        36.4890   28.6820   33.6140 N.2     1  ADE1       -0.1914
      2  C8        37.2390   29.8410   33.4470 C.3     1  ADE1        0.2618
      3  N7        36.6790   30.8100   32.7300 N.2     1  ADE1       -0.2267
      4  C5        35.4440   30.2530   32.4100 C.2     1  ADE1        0.2303
      5  C6        34.3370   30.7750   31.6550 C.2     1  ADE1        0.4393
      6  N6        34.3030   31.9920   31.0960 N.pl3   1  ADE1        0.2185
      7  N1        33.2860   29.9660   31.5060 N.2     1  ADE1       -0.0265
      8  C2        33.3160   28.7490   32.0820 C.3     1  ADE1        0.4008
      9  N3        34.2490   28.1460   32.8420 N.2     1  ADE1       -0.1640
     10  C4        35.3100   28.9600   32.9600 C.1     1  ADE1        0.0579
@<TRIPOS>BOND
     1     6     5    1
     2     7     5    2
     3     7     8    1
     4     5     4    1
     5     8     9    1
     6     4     3    2
     7     4    10    1
     8     3     2    1
     9     9    10    2
    10    10     1    2
    11     2     1    1
