@<TRIPOS>MOLECULE
3lr7_HEM_A_1.pdb
 43 50 0 0 0
SMALL
GASTEIGER

@<TRIPOS>ATOM
      1  CHA       -0.5040    4.0110   16.3270 C.2   154  HEM154      0.0000
      2  CHB       -4.0500    0.8710   15.2940 C.2   154  HEM154      0.0000
      3  CHC       -0.7470   -2.3010   13.6880 C.2   154  HEM154      0.0000
      4  CHD        2.8450    0.7510   14.8500 C.2   154  HEM154      0.0000
      5  C1A       -1.7420    3.4410   16.1630 C.2   154  HEM154      0.0000
      6  C2A       -3.0020    4.0860   16.4430 C.2   154  HEM154      0.0000
      7  C3A       -3.9900    3.2310   16.1590 C.2   154  HEM154      0.0000
      8  C4A       -3.3740    2.0030   15.6880 C.2   154  HEM154      0.0000
      9  CMA       -5.5160    3.4530   16.2910 C.3   154  HEM154      0.0000
     10  CAA       -3.1260    5.5340   16.9550 C.3   154  HEM154      0.0000
     11  CBA       -3.6520    6.4210   15.8100 C.3   154  HEM154      0.0000
     12  CGA       -2.7560    6.4150   14.5850 C.2   154  HEM154      0.0000
     13  O1A       -1.5760    6.8200   14.7130 O.co2 154  HEM154      0.0000
     14  O2A       -3.2170    6.0380   13.4630 O.co2 154  HEM154      0.0000
     15  C1B       -3.4660   -0.2620   14.7770 C.ar  154  HEM154      0.0000
     16  C2B       -4.1680   -1.4630   14.3870 C.ar  154  HEM154      0.0000
     17  C3B       -3.2590   -2.3290   13.9120 C.ar  154  HEM154      0.0000
     18  C4B       -1.9500   -1.7170   14.0350 C.ar  154  HEM154      0.0000
     19  CMB       -5.7000   -1.6500   14.4630 C.3   154  HEM154      0.0000
     20  CAB       -3.5260   -3.7610   13.4150 C.2   154  HEM154      0.0000
     21  CBB       -4.5600   -4.4460   13.9260 C.2   154  HEM154      0.0000
     22  C1C        0.5040   -1.7840   13.9440 C.2   154  HEM154      0.0000
     23  C2C        1.7510   -2.4920   13.8090 C.2   154  HEM154      0.0000
     24  C3C        2.7440   -1.6440   14.1330 C.2   154  HEM154      0.0000
     25  C4C        2.1530   -0.3770   14.4710 C.2   154  HEM154      0.0000
     26  CMC        1.8320   -3.9730   13.3730 C.3   154  HEM154      0.0000
     27  CAC        4.2730   -1.8730   14.1850 C.2   154  HEM154      0.0000
     28  CBC        4.7960   -3.0970   14.1310 C.2   154  HEM154      0.0000
     29  C1D        2.2770    1.8850   15.3540 C.ar  154  HEM154      0.0000
     30  C2D        3.0270    3.0070   15.8670 C.ar  154  HEM154      0.0000
     31  C3D        1.9870    4.0090   16.3250 C.ar  154  HEM154      0.0000
     32  C4D        0.7070    3.4090   16.0520 C.ar  154  HEM154      0.0000
     33  CMD        4.5520    3.1950   15.9560 C.3   154  HEM154      0.0000
     34  CAD        2.2780    5.3690   16.9750 C.3   154  HEM154      0.0000
     35  CBD        2.5120    5.0540   18.4530 C.3   154  HEM154      0.0000
     36  CGD        2.7560    6.3000   19.2680 C.2   154  HEM154      0.0000
     37  O1D        1.8050    6.8110   19.9220 O.co2 154  HEM154      0.0000
     38  O2D        3.9190    6.7700   19.2860 O.co2 154  HEM154      0.0000
     39  NA        -2.0050    2.1690   15.7010 N.2   154  HEM154      0.0000
     40  NB        -2.1160   -0.4480   14.5490 N.ar  154  HEM154      0.0000
     41  NC         0.7930   -0.4850   14.3450 N.2   154  HEM154      0.0000
     42  ND         0.9090    2.1540   15.4750 N.ar  154  HEM154      0.0000
     43 FE         -0.5820    0.8490   15.0040 Fe    154  HEM154      0.0000
@<TRIPOS>BOND
     1    26    23    1
     2    20    17    1
     3    20    21    2
     4    14    12   ar
     5     3    22    2
     6     3    18    1
     7    23    22    1
     8    23    24    2
     9    17    18   ar
    10    17    16   ar
    11    22    41    1
    12    18    40   ar
    13    28    27    2
    14    24    27    1
    15    24    25    1
    16    41    25    2
    17    41    43    1
    18    16    19    1
    19    16    15   ar
    20    25     4    1
    21    40    15   ar
    22    40    43    1
    23    12    13   ar
    24    12    11    1
    25    15     2    1
    26     4    29    2
    27    43    42    1
    28    43    39    1
    29     2     8    2
    30    29    42   ar
    31    29    30   ar
    32    42    32   ar
    33     8    39    1
    34     8     7    1
    35    39     5    2
    36    11    10    1
    37    30    33    1
    38    30    31   ar
    39    32    31   ar
    40    32     1    2
    41     7     9    1
    42     7     6    2
    43     5     1    1
    44     5     6    1
    45    31    34    1
    46     6    10    1
    47    34    35    1
    48    35    36    1
    49    36    38   ar
    50    36    37   ar
