@<TRIPOS>MOLECULE
3lr9_HEM_A_1.pdb
 43 50 0 0 0
SMALL
GASTEIGER

@<TRIPOS>ATOM
      1  CHA       -0.5440    3.9630   16.2990 C.2   154  HEM154      0.0000
      2  CHB       -4.0310    0.7580   15.3120 C.2   154  HEM154      0.0000
      3  CHC       -0.7490   -2.4510   13.7230 C.2   154  HEM154      0.0000
      4  CHD        2.7830    0.6690   14.8560 C.2   154  HEM154      0.0000
      5  C1A       -1.7680    3.3810   16.1460 C.2   154  HEM154      0.0000
      6  C2A       -3.0420    4.0070   16.4170 C.2   154  HEM154      0.0000
      7  C3A       -4.0150    3.1390   16.1570 C.2   154  HEM154      0.0000
      8  C4A       -3.3940    1.9160   15.7040 C.2   154  HEM154      0.0000
      9  CMA       -5.5390    3.3330   16.2940 C.3   154  HEM154      0.0000
     10  CAA       -3.1880    5.4550   16.9100 C.3   154  HEM154      0.0000
     11  CBA       -3.6450    6.3600   15.7450 C.3   154  HEM154      0.0000
     12  CGA       -2.7540    6.3350   14.5130 C.2   154  HEM154      0.0000
     13  O1A       -1.5570    6.7050   14.6340 O.co2 154  HEM154      0.0000
     14  O2A       -3.2370    5.9620   13.4010 O.co2 154  HEM154      0.0000
     15  C1B       -3.4400   -0.3740   14.7920 C.ar  154  HEM154      0.0000
     16  C2B       -4.1560   -1.5470   14.3810 C.ar  154  HEM154      0.0000
     17  C3B       -3.2730   -2.4370   13.9170 C.ar  154  HEM154      0.0000
     18  C4B       -1.9500   -1.8670   14.0540 C.ar  154  HEM154      0.0000
     19  CMB       -5.6970   -1.6980   14.4340 C.3   154  HEM154      0.0000
     20  CAB       -3.5770   -3.8520   13.4040 C.2   154  HEM154      0.0000
     21  CBB       -4.5260   -4.5780   14.0160 C.2   154  HEM154      0.0000
     22  C1C        0.5020   -1.9340   13.9680 C.2   154  HEM154      0.0000
     23  C2C        1.7650   -2.6270   13.8530 C.2   154  HEM154      0.0000
     24  C3C        2.7530   -1.7680   14.1750 C.2   154  HEM154      0.0000
     25  C4C        2.1330   -0.4940   14.4890 C.2   154  HEM154      0.0000
     26  CMC        1.8730   -4.1070   13.4290 C.3   154  HEM154      0.0000
     27  CAC        4.2850   -2.0090   14.2260 C.2   154  HEM154      0.0000
     28  CBC        4.8010   -3.2270   14.0940 C.2   154  HEM154      0.0000
     29  C1D        2.2180    1.8330   15.3350 C.ar  154  HEM154      0.0000
     30  C2D        2.9770    2.9550   15.8310 C.ar  154  HEM154      0.0000
     31  C3D        1.9590    3.9840   16.2870 C.ar  154  HEM154      0.0000
     32  C4D        0.6730    3.3890   16.0290 C.ar  154  HEM154      0.0000
     33  CMD        4.5060    3.1070   15.8820 C.3   154  HEM154      0.0000
     34  CAD        2.2610    5.3540   16.9120 C.3   154  HEM154      0.0000
     35  CBD        2.3590    5.0420   18.4040 C.3   154  HEM154      0.0000
     36  CGD        2.6610    6.2510   19.2440 C.2   154  HEM154      0.0000
     37  O1D        1.7570    6.6930   19.9950 O.co2 154  HEM154      0.0000
     38  O2D        3.8080    6.7560   19.1670 O.co2 154  HEM154      0.0000
     39  NA        -2.0230    2.1020   15.7120 N.2   154  HEM154      0.0000
     40  NB        -2.0900   -0.5980   14.5730 N.ar  154  HEM154      0.0000
     41  NC         0.7740   -0.6400   14.3600 N.2   154  HEM154      0.0000
     42  ND         0.8550    2.1230   15.4790 N.ar  154  HEM154      0.0000
     43 FE         -0.6100    0.7790   15.0060 Fe    154  HEM154      0.0000
@<TRIPOS>BOND
     1    14    12   ar
     2    20    17    1
     3    20    21    2
     4    26    23    1
     5     3    22    2
     6     3    18    1
     7    23    22    1
     8    23    24    2
     9    17    18   ar
    10    17    16   ar
    11    22    41    1
    12    18    40   ar
    13    28    27    2
    14    24    27    1
    15    24    25    1
    16    41    25    2
    17    41    43    1
    18    16    19    1
    19    16    15   ar
    20    25     4    1
    21    12    13   ar
    22    12    11    1
    23    40    15   ar
    24    40    43    1
    25    15     2    1
    26     4    29    2
    27    43    42    1
    28    43    39    1
    29     2     8    2
    30    29    42   ar
    31    29    30   ar
    32    42    32   ar
    33     8    39    1
    34     8     7    1
    35    39     5    2
    36    11    10    1
    37    30    33    1
    38    30    31   ar
    39    32    31   ar
    40    32     1    2
    41     5     1    1
    42     5     6    1
    43     7     9    1
    44     7     6    2
    45    31    34    1
    46     6    10    1
    47    34    35    1
    48    35    36    1
    49    38    36   ar
    50    36    37   ar
