@<TRIPOS>MOLECULE
3lre_ADP_A_1.pdb
 27 29 0 0 0
SMALL
GASTEIGER

@<TRIPOS>ATOM
      1  PB        43.9240   43.4400   34.2190 P.3   500  ADP500      0.5373
      2  O1B       44.0960   43.0010   35.6030 O.3   500  ADP500     -0.1143
      3  O2B       42.5860   44.2040   34.1980 O.3   500  ADP500     -0.1143
      4  O3B       43.9940   42.2380   33.2500 O.2   500  ADP500     -0.2221
      5  PA        44.9970   46.0000   33.6280 P.3   500  ADP500      0.2231
      6  O1A       44.5530   46.6700   34.8420 O.3   500  ADP500     -0.4370
      7  O2A       44.0720   46.2560   32.4230 O.2   500  ADP500     -0.5169
      8  O3A       45.1330   44.4400   33.9330 O.3   500  ADP500     -0.2261
      9  O5'       46.4780   46.3840   33.2870 O.3   500  ADP500     -0.3111
     10  C5'       47.5050   46.3330   34.2620 C.3   500  ADP500      0.1813
     11  C4'       48.2830   47.5140   33.7930 C.3   500  ADP500      0.1821
     12  O4'       49.1730   47.4210   32.7540 O.3   500  ADP500     -0.3135
     13  C3'       47.7330   48.8550   34.0260 C.3   500  ADP500      0.2184
     14  O3'       48.5770   49.7620   34.6720 O.3   500  ADP500     -0.2174
     15  C2'       47.6180   49.1870   32.5610 C.3   500  ADP500      0.2570
     16  O2'       47.5770   50.5560   32.3960 O.3   500  ADP500     -0.2130
     17  C1'       48.8110   48.5040   31.9010 C.3   500  ADP500      0.3186
     18  N9        48.4560   48.0220   30.5390 N.pl3 500  ADP500     -0.1439
     19  C8        47.7390   46.9080   30.1850 C.3   500  ADP500      0.3377
     20  N7        47.6200   46.8030   28.8410 N.2   500  ADP500     -0.2095
     21  C5        48.2680   47.8720   28.3300 C.2   500  ADP500      0.2526
     22  C6        48.4700   48.2800   27.0200 C.2   500  ADP500      0.4393
     23  N6        48.3130   47.3920   26.0420 N.pl3 500  ADP500      0.2180
     24  N1        49.2050   49.4160   26.8060 N.2   500  ADP500      0.0021
     25  C2        49.7240   50.1710   27.8600 C.3   500  ADP500      0.5254
     26  N3        49.5190   49.7690   29.1600 N.2   500  ADP500     -0.0055
     27  C4        48.8200   48.6240   29.3870 C.2   500  ADP500      0.3518
@<TRIPOS>BOND
     1    23    22    1
     2    24    22    2
     3    24    25    1
     4    22    21    1
     5    25    26    1
     6    21    20    2
     7    21    27    1
     8    20    19    1
     9    26    27    2
    10    27    18    1
    11    19    18    1
    12    18    17    1
    13    17    15    1
    14    17    12    1
    15    16    15    1
    16     7     5    2
    17    15    13    1
    18    12    11    1
    19     4     1    2
    20     9     5    1
    21     9    10    1
    22     5     8    1
    23     5     6    1
    24    11    13    1
    25    11    10    1
    26     8     1    1
    27    13    14    1
    28     3     1    1
    29     1     2    1
