@<TRIPOS>MOLECULE
3lrl_GLA_A_1.pdb
 11 11 0 0 0
SMALL
GASTEIGER

@<TRIPOS>ATOM
      1  C1         2.5310   26.5520   32.7940 C.3   481  GLA481      0.1777
      2  C2         4.0800   26.7120   32.6990 C.3   481  GLA481      0.2141
      3  C3         4.7390   25.3270   32.8890 C.3   481  GLA481      0.2173
      4  C4         4.0700   24.3920   33.9530 C.3   481  GLA481      0.2142
      5  C5         2.5380   24.3750   33.8860 C.3   481  GLA481      0.1810
      6  C6         1.9380   23.5950   35.0610 C.3   481  GLA481      0.2141
      7  O2         4.5000   27.4000   31.4750 O.3   481  GLA481     -0.2176
      8  O3         6.1180   25.4920   33.1300 O.3   481  GLA481     -0.2175
      9  O4         4.4230   24.7100   35.2820 O.3   481  GLA481     -0.2176
     10  O5         2.0790   25.7290   33.8850 O.3   481  GLA481     -0.3481
     11  O6         1.4200   22.3240   34.6960 O.3   481  GLA481     -0.2176
@<TRIPOS>BOND
     1     7     2    1
     2     2     1    1
     3     2     3    1
     4     1    10    1
     5     3     8    1
     6     3     4    1
     7    10     5    1
     8     5     4    1
     9     5     6    1
    10     4     9    1
    11    11     6    1
