@<TRIPOS>MOLECULE
3lrl_GLC_A_1.pdb
 12 12 0 0 0
SMALL
GASTEIGER

@<TRIPOS>ATOM
      1  C1        -2.8760   26.3830   31.9340 C.3   480  GLC480      0.3024
      2  C2        -3.5390   27.6030   31.2560 C.3   480  GLC480      0.2434
      3  C3        -2.6030   28.4430   30.3790 C.3   480  GLC480      0.2199
      4  C4        -1.2590   28.6280   31.0860 C.3   480  GLC480      0.2144
      5  C5        -0.6340   27.2650   31.3500 C.3   480  GLC480      0.1836
      6  C6         0.6600   27.5120   32.1030 C.3   480  GLC480      0.2142
      7  O1        -3.4100   26.2710   33.2350 O.3   480  GLC480     -0.1869
      8  O2        -4.6650   27.1800   30.5000 O.3   480  GLC480     -0.2148
      9  O3        -3.2010   29.6930   30.1710 O.3   480  GLC480     -0.2174
     10  O4        -0.3270   29.3980   30.3510 O.3   480  GLC480     -0.2176
     11  O5        -1.4640   26.4010   32.1210 O.3   480  GLC480     -0.3236
     12  O6         1.6070   26.5540   31.7090 O.3   480  GLC480     -0.2176
@<TRIPOS>BOND
     1     9     3    1
     2    10     4    1
     3     3     4    1
     4     3     2    1
     5     8     2    1
     6     4     5    1
     7     2     1    1
     8     5     6    1
     9     5    11    1
    10    12     6    1
    11     1    11    1
    12     1     7    1
