@<TRIPOS>MOLECULE
3lrm_SUC_A_1.pdb
 23 24 0 0 0
SMALL
GASTEIGER

@<TRIPOS>ATOM
      1  C1       -34.5950  -10.2640   39.4790 C.3   9001  SUC9001     0.2713
      2  C2       -34.5530  -11.7520   39.8760 C.3   9001  SUC9001     0.2406
      3  C3       -33.3760  -12.4790   39.2300 C.3   9001  SUC9001     0.2198
      4  C4       -33.3920  -12.2390   37.7260 C.3   9001  SUC9001     0.2144
      5  C5       -33.3690  -10.7380   37.4360 C.3   9001  SUC9001     0.1835
      6  C6       -33.4090  -10.4820   35.9290 C.3   9001  SUC9001     0.2142
      7  O1       -33.6050   -9.4620   40.1190 O.3   9001  SUC9001    -0.3033
      8  O2       -34.5180  -11.9250   41.2760 O.3   9001  SUC9001    -0.2149
      9  O3       -33.4620  -13.8580   39.4940 O.3   9001  SUC9001    -0.2174
     10  O4       -32.2800  -12.8690   37.1440 O.3   9001  SUC9001    -0.2176
     11  O5       -34.4790  -10.1090   38.0660 O.3   9001  SUC9001    -0.3256
     12  O6       -33.4040   -9.1030   35.6280 O.3   9001  SUC9001    -0.2176
     13  C1'      -32.7660   -7.8100   41.6400 C.3   9001  SUC9001     0.2406
     14  C2'      -34.0270   -8.4850   41.0770 C.3   9001  SUC9001     0.2516
     15  C3'      -35.0060   -7.4170   40.5580 C.3   9001  SUC9001     0.2381
     16  C4'      -36.2160   -7.4540   41.4710 C.3   9001  SUC9001     0.2167
     17  C5'      -35.8410   -8.4170   42.5850 C.3   9001  SUC9001     0.1835
     18  C6'      -36.9960   -9.3630   42.9010 C.3   9001  SUC9001     0.2142
     19  O1'      -32.1790   -6.8870   40.7410 O.3   9001  SUC9001    -0.2149
     20  O2'      -34.6800   -9.1170   42.1680 O.3   9001  SUC9001    -0.3272
     21  O3'      -35.4040   -7.5880   39.2150 O.3   9001  SUC9001    -0.2150
     22  O4'      -36.4540   -6.1660   41.9940 O.3   9001  SUC9001    -0.2175
     23  O6'      -36.6370  -10.7240   42.7660 O.3   9001  SUC9001    -0.2176
@<TRIPOS>BOND
     1    12     6    1
     2     6     5    1
     3    10     4    1
     4     5     4    1
     5     5    11    1
     6     4     3    1
     7    11     1    1
     8    21    15    1
     9     3     9    1
    10     3     2    1
    11     1     2    1
    12     1     7    1
    13     2     8    1
    14     7    14    1
    15    15    14    1
    16    15    16    1
    17    19    13    1
    18    14    13    1
    19    14    20    1
    20    16    22    1
    21    16    17    1
    22    20    17    1
    23    17    18    1
    24    23    18    1
