@<TRIPOS>MOLECULE
3lrm_GLA_A_1.pdb
 11 11 0 0 0
SMALL
GASTEIGER

@<TRIPOS>ATOM
      1  C1       -33.8970   -8.2990   34.6840 C.3   9002  GLA9002     0.1777
      2  C2       -32.8440   -7.6860   33.7640 C.3   9002  GLA9002     0.2141
      3  C3       -32.1910   -6.4810   34.4550 C.3   9002  GLA9002     0.2173
      4  C4       -33.2500   -5.4840   34.9410 C.3   9002  GLA9002     0.2142
      5  C5       -34.3200   -6.2110   35.7690 C.3   9002  GLA9002     0.1810
      6  C6       -35.4380   -5.2900   36.2510 C.3   9002  GLA9002     0.2141
      7  O2       -31.8740   -8.6820   33.4220 O.3   9002  GLA9002    -0.2176
      8  O3       -31.2600   -5.8340   33.5780 O.3   9002  GLA9002    -0.2175
      9  O4       -33.8400   -4.8320   33.8090 O.3   9002  GLA9002    -0.2176
     10  O5       -34.8690   -7.2910   35.0030 O.3   9002  GLA9002    -0.3481
     11  O6       -36.0080   -5.7850   37.4670 O.3   9002  GLA9002    -0.2176
@<TRIPOS>BOND
     1     7     2    1
     2     8     3    1
     3     2     3    1
     4     2     1    1
     5     9     4    1
     6     3     4    1
     7     1    10    1
     8     4     5    1
     9    10     5    1
    10     5     6    1
    11     6    11    1
