@<TRIPOS>MOLECULE
3lrp_GDP_A_1.pdb
 28 30 0 0 0
SMALL
GASTEIGER

@<TRIPOS>ATOM
      1  PB        20.2880   49.9370   12.4170 P.3   182  GDP182      0.5373
      2  O1B       20.1730   49.5630   11.0040 O.2   182  GDP182     -0.2221
      3  O2B       19.6900   51.2240   12.7700 O.3   182  GDP182     -0.1143
      4  O3B       19.7310   48.9300   13.3460 O.3   182  GDP182     -0.1143
      5  O3A       21.8600   50.1040   12.7480 O.3   182  GDP182     -0.2261
      6  PA        22.7560   51.4720   12.7720 P.3   182  GDP182      0.2231
      7  O1A       23.6230   51.8080   11.6500 O.2   182  GDP182     -0.5169
      8  O2A       22.9470   51.9840   14.1480 O.3   182  GDP182     -0.4370
      9  O5'       23.8920   50.4020   13.2070 O.3   182  GDP182     -0.3111
     10  C5'       24.4430   49.3500   12.3760 C.3   182  GDP182      0.1813
     11  C4'       25.8910   49.0250   12.7500 C.3   182  GDP182      0.1799
     12  O4'       26.6420   48.8460   11.5250 O.3   182  GDP182     -0.3326
     13  C3'       26.6270   50.1090   13.5140 C.3   182  GDP182      0.2158
     14  O3'       27.5770   49.3740   14.3030 O.3   182  GDP182     -0.2175
     15  C2'       27.2610   50.9320   12.3610 C.3   182  GDP182      0.2310
     16  O2'       28.4410   51.6760   12.7850 O.3   182  GDP182     -0.2158
     17  C1'       27.6190   49.8650   11.3420 C.3   182  GDP182      0.2293
     18  N9        27.5040   50.3330    9.9380 N.pl3 182  GDP182     -0.2354
     19  C8        26.5230   51.0970    9.3160 C.3   182  GDP182      0.2246
     20  N7        26.7330   51.3280    8.0380 N.2   182  GDP182     -0.2322
     21  C5        27.9360   50.6680    7.8040 C.2   182  GDP182      0.2182
     22  C6        28.7170   50.5250    6.6330 C.1   182  GDP182      0.2372
     23  O6        28.4900   50.9800    5.5040 O.2   182  GDP182     -0.2069
     24  N1        29.8680   49.7760    6.8210 N.2   182  GDP182     -0.2485
     25  C2        30.2600   49.2000    8.0280 C.1   182  GDP182      0.2531
     26  N2        31.3900   48.5070    8.0600 N.pl3 182  GDP182     -0.0226
     27  N3        29.5440   49.3200    9.1460 N.2   182  GDP182     -0.3074
     28  C4        28.4080   50.0560    8.9730 C.2   182  GDP182      0.2300
@<TRIPOS>BOND
     1    23    22    2
     2    22    24    2
     3    22    21    1
     4    24    25    2
     5    21    20    2
     6    21    28    1
     7    25    26    1
     8    25    27    2
     9    20    19    1
    10    28    27    2
    11    28    18    1
    12    19    18    1
    13    18    17    1
    14     2     1    2
    15    17    12    1
    16    17    15    1
    17    12    11    1
    18     7     6    2
    19    15    16    1
    20    15    13    1
    21    10    11    1
    22    10     9    1
    23     1     5    1
    24     1     3    1
    25     1     4    1
    26     5     6    1
    27    11    13    1
    28     6     9    1
    29     6     8    1
    30    13    14    1
