@<TRIPOS>MOLECULE
3lrt_ADP_A_1.pdb
 27 29 0 0 0
SMALL
GASTEIGER

@<TRIPOS>ATOM
      1  PB        18.4370   -8.8410   -7.0150 P.3   300  ADP300      0.5373
      2  O1B       17.4490   -9.3270   -5.9780 O.3   300  ADP300     -0.1143
      3  O2B       19.5250   -7.9210   -6.5070 O.3   300  ADP300     -0.1143
      4  O3B       18.9660   -9.9590   -7.8870 O.2   300  ADP300     -0.2221
      5  PA        15.9660   -8.2790   -8.1810 P.3   300  ADP300      0.2231
      6  O1A       15.7970   -9.7800   -8.1060 O.3   300  ADP300     -0.4370
      7  O2A       15.4530   -7.5070   -9.3780 O.2   300  ADP300     -0.5169
      8  O3A       17.5390   -7.9630   -8.0280 O.3   300  ADP300     -0.2261
      9  O5'       15.3080   -7.6280   -6.8630 O.3   300  ADP300     -0.3111
     10  C5'       15.8040   -6.3880   -6.3750 C.3   300  ADP300      0.1813
     11  C4'       14.6490   -5.4160   -6.1430 C.3   300  ADP300      0.1821
     12  O4'       13.8300   -5.7770   -5.0190 O.3   300  ADP300     -0.3135
     13  C3'       15.1820   -4.0150   -5.8830 C.3   300  ADP300      0.2184
     14  O3'       14.5020   -3.1170   -6.7490 O.3   300  ADP300     -0.2174
     15  C2'       14.7840   -3.7210   -4.4510 C.3   300  ADP300      0.2570
     16  O2'       14.5270   -2.3330   -4.2170 O.3   300  ADP300     -0.2130
     17  C1'       13.5470   -4.5830   -4.2780 C.3   300  ADP300      0.3186
     18  N9        13.2410   -4.8580   -2.8570 N.pl3 300  ADP300     -0.1439
     19  C8        13.9730   -4.5500   -1.7660 C.3   300  ADP300      0.3377
     20  N7        13.3300   -4.9560   -0.6310 N.2   300  ADP300     -0.2095
     21  C5        12.1690   -5.5370   -1.0110 C.2   300  ADP300      0.2526
     22  C6        11.0260   -6.1710   -0.3360 C.2   300  ADP300      0.4393
     23  N6        11.0070   -6.2750    1.0140 N.pl3 300  ADP300      0.2180
     24  N1        10.0150   -6.6300   -1.1060 N.2   300  ADP300      0.0021
     25  C2        10.0390   -6.5220   -2.4470 C.3   300  ADP300      0.5254
     26  N3        11.0520   -5.9520   -3.1320 N.2   300  ADP300     -0.0055
     27  C4        12.1160   -5.4460   -2.4730 C.2   300  ADP300      0.3518
@<TRIPOS>BOND
     1     7     5    2
     2     5     6    1
     3     5     8    1
     4     5     9    1
     5     8     1    1
     6     4     1    2
     7     1     3    1
     8     1     2    1
     9     9    10    1
    10    14    13    1
    11    10    11    1
    12    11    13    1
    13    11    12    1
    14    13    15    1
    15    12    17    1
    16    15    17    1
    17    15    16    1
    18    17    18    1
    19    26    27    2
    20    26    25    1
    21    18    27    1
    22    18    19    1
    23    27    21    1
    24    25    24    1
    25    19    20    1
    26    24    22    2
    27    21    20    2
    28    21    22    1
    29    22    23    1
