@<TRIPOS>MOLECULE
3ls4_TCI_H_1.pdb
 23 25 0 0 0
SMALL
GASTEIGER

@<TRIPOS>ATOM
      1  C1        29.0150   19.9760  -32.0420 C.ar  220  TCI220      0.0325
      2  O1        27.1890   21.4940  -31.9010 O.3   220  TCI220     -0.4828
      3  C2        30.1380   19.5470  -32.7250 C.ar  220  TCI220     -0.0160
      4  O2        30.0360   21.7900  -35.6130 O.3   220  TCI220     -0.2868
      5  C3        30.4930   20.1700  -33.9280 C.ar  220  TCI220      0.0376
      6  C4        29.7100   21.2460  -34.4170 C.ar  220  TCI220      0.1946
      7  C5        28.6090   21.6850  -33.6790 C.ar  220  TCI220      0.0544
      8  C6        28.2930   21.0600  -32.5290 C.ar  220  TCI220      0.1372
      9  C7        27.5520   22.7750  -34.0670 C.3   220  TCI220      0.0531
     10  C8        28.3500   23.8630  -34.8620 C.2   220  TCI220     -0.0302
     11  C9        27.9470   25.1910  -34.9040 C.2   220  TCI220     -0.0479
     12  C10       26.7040   25.5380  -34.1470 C.3   220  TCI220      0.0218
     13  C11       25.7580   24.3870  -33.8040 C.3   220  TCI220      0.0084
     14  C12       26.6440   23.4360  -32.9690 C.3   220  TCI220      0.0453
     15  C13       25.9820   22.1990  -32.4140 C.3   220  TCI220      0.1338
     16  C14       25.1160   22.5600  -31.2120 C.3   220  TCI220      0.0436
     17  C15       25.3030   21.2740  -33.4530 C.3   220  TCI220      0.0436
     18  C16       28.7780   26.3100  -35.5420 C.3   220  TCI220      0.0260
     19  C17       30.9520   18.4100  -32.0530 C.3   220  TCI220      0.0266
     20  C18       30.1610   17.1280  -31.9220 C.3   220  TCI220      0.0047
     21  C19       30.9940   16.0910  -31.1180 C.3   220  TCI220      0.0003
     22  C20       30.3050   14.7300  -31.0220 C.3   220  TCI220      0.0000
     23  C21       31.2140   13.7710  -30.2270 C.3   220  TCI220      0.0000
@<TRIPOS>BOND
     1     4     6    1
     2    18    11    1
     3    11    10    2
     4    11    12    1
     5    10     9    1
     6     6     5   ar
     7     6     7   ar
     8    12    13    1
     9     9     7    1
    10     9    14    1
    11     5     3   ar
    12    13    14    1
    13     7     8   ar
    14    17    15    1
    15    14    15    1
    16     3    19    1
    17     3     1   ar
    18     8     1   ar
    19     8     2    1
    20    15     2    1
    21    15    16    1
    22    19    20    1
    23    20    21    1
    24    21    22    1
    25    22    23    1
