@<TRIPOS>MOLECULE
3ls7_LYS_A_1.pdb
 10 9 0 0 0
SMALL
GASTEIGER

@<TRIPOS>ATOM
      1  N         -9.1650   40.8890    4.1560 N.3   802  LYS802     -0.1208
      2  CA        -7.9200   41.6520    4.4040 C.3   802  LYS802      0.1943
      3  C         -8.2810   42.8550    5.2410 C.2   802  LYS802      0.3819
      4  O         -9.4270   43.0490    5.6390 O.co2 802  LYS802     -0.2441
      5  CB        -7.2320   42.1150    3.0890 C.3   802  LYS802      0.0307
      6  CG        -8.1850   42.8690    2.1230 C.3   802  LYS802      0.0036
      7  CD        -7.6880   44.3210    1.8540 C.3   802  LYS802      0.0206
      8  CE        -8.4390   44.9080    0.6250 C.3   802  LYS802      0.1093
      9  NZ        -9.3010   46.0520    1.0110 N.3   802  LYS802     -0.1314
     10  OXT       -7.2580   43.5300    5.7770 O.co2 802  LYS802     -0.2441
@<TRIPOS>BOND
     1     8     9    1
     2     8     7    1
     3     7     6    1
     4     6     5    1
     5     5     2    1
     6     1     2    1
     7     2     3    1
     8     3     4   ar
     9     3    10   ar
