@<TRIPOS>MOLECULE
3ls8_AJZ_A_1.pdb
 22 25 0 0 0
SMALL
GASTEIGER

@<TRIPOS>ATOM
      1  N1       -25.9920   40.6650  -36.3950 N.2   1000  AJZ1000    -0.3279
      2  C2       -25.7320   41.8080  -35.7340 C.1   1000  AJZ1000     0.1386
      3  N3       -25.7350   42.9880  -36.3890 N.2   1000  AJZ1000    -0.3429
      4  C4       -25.9800   43.0650  -37.7100 C.2   1000  AJZ1000     0.1400
      5  C5       -26.2310   41.8720  -38.4010 C.3   1000  AJZ1000     0.1722
      6  C6       -26.2350   40.6760  -37.7110 C.2   1000  AJZ1000     0.1896
      7  OAA      -26.0910   39.3480  -31.6710 O.3   1000  AJZ1000    -0.2865
      8  CAB      -24.7550   42.7250  -32.2610 C.ar  1000  AJZ1000     0.0040
      9  CAC      -26.2780   43.9500  -39.8130 C.2   1000  AJZ1000     0.0340
     10  CAD      -25.1300   41.5610  -31.5830 C.ar  1000  AJZ1000     0.0421
     11  CAE      -24.9540   42.8150  -33.6530 C.ar  1000  AJZ1000     0.0122
     12  CAF      -26.0160   44.1570  -38.5080 C.2   1000  AJZ1000     0.0365
     13  CAG      -25.8850   40.6040  -33.6700 C.ar  1000  AJZ1000     0.0540
     14  CAH      -27.6620   38.1080  -40.0240 C.3   1000  AJZ1000     0.1636
     15  CAI      -27.1240   37.1290  -38.0200 C.3   1000  AJZ1000     0.1636
     16  CAJ      -26.9410   39.4030  -39.7430 C.3   1000  AJZ1000     0.1250
     17  CAK      -26.2110   38.2410  -37.5600 C.3   1000  AJZ1000     0.1250
     18  OAN      -26.9420   37.0550  -39.4420 O.3   1000  AJZ1000    -0.3501
     19  SAO      -26.5020   42.2840  -40.0050 S.3   1000  AJZ1000    -0.0982
     20  CAP      -25.6990   40.4990  -32.2990 C.ar  1000  AJZ1000     0.1965
     21  CAQ      -25.5050   41.7460  -34.3580 C.ar  1000  AJZ1000     0.0888
     22  NAV      -26.4690   39.4630  -38.3380 N.pl3 1000  AJZ1000    -0.2801
@<TRIPOS>BOND
     1    14    16    1
     2    14    18    1
     3    19     9    1
     4    19     5    1
     5     9    12    2
     6    16    22    1
     7    18    15    1
     8    12     4    1
     9     5     6    1
    10     5     4    1
    11    22     6    1
    12    22    17    1
    13    15    17    1
    14     6     1    2
    15     4     3    2
    16     1     2    2
    17     3     2    2
    18     2    21    1
    19    21    13   ar
    20    21    11   ar
    21    13    20   ar
    22    11     8   ar
    23    20     7    1
    24    20    10   ar
    25     8    10   ar
