@<TRIPOS>MOLECULE
3lsb_RYN_A_1.pdb
 15 15 0 0 0
SMALL
GASTEIGER

@<TRIPOS>ATOM
      1  N1        32.7750   36.6070    2.6350 N.2   457  RYN457     -0.2528
      2  C2        32.6620   37.6990    1.9020 C.1   457  RYN457      0.1916
      3  N3        33.3840   38.8070    2.1850 N.2   457  RYN457     -0.2528
      4  C4        34.2350   38.7820    3.2670 C.1   457  RYN457      0.2413
      5  N5        34.3540   37.6640    4.0090 N.2   457  RYN457     -0.2439
      6  C6        33.6500   36.6030    3.7440 C.1   457  RYN457      0.2413
      7  N7        35.0760   39.8660    3.6540 N.pl3 457  RYN457     -0.1524
      8  C8        36.2210   40.3210    4.3770 C.3   457  RYN457      0.1058
      9  C9        37.4500   39.6160    3.9120 C.3   457  RYN457      0.0243
     10  C10       36.3550   41.7870    4.6350 C.3   457  RYN457      0.0243
     11  N11       33.8490   35.4810    4.5980 N.pl3 457  RYN457     -0.1506
     12  C12       34.5730   34.7230    5.5690 C.3   457  RYN457      0.1263
     13  C13       36.0450   34.8980    5.4460 C.3   457  RYN457      0.0261
     14  S21       31.5720   37.7140    0.5160 S.3   457  RYN457     -0.0157
     15  C22       30.9740   36.0770    0.3180 C.3   457  RYN457      0.0872
@<TRIPOS>BOND
     1    15    14    1
     2    14     2    1
     3     2     3    2
     4     2     1    2
     5     3     4    2
     6     1     6    2
     7     4     7    1
     8     4     5    2
     9     7     8    1
    10     6     5    2
    11     6    11    1
    12     9     8    1
    13     8    10    1
    14    11    12    1
    15    13    12    1
