@<TRIPOS>MOLECULE
3lsc_AOO_A_1.pdb
 15 15 0 0 0
SMALL
GASTEIGER

@<TRIPOS>ATOM
      1  N1        33.2030   36.7280    2.6120 N.2   457  AOO457     -0.2277
      2  C2        33.1070   37.8210    1.8790 C.1   457  AOO457      0.3322
      3  N3        33.8090   38.9370    2.2000 N.2   457  AOO457     -0.2277
      4  C4        34.6300   38.9020    3.2960 C.1   457  AOO457      0.2433
      5  N5        34.7380   37.7860    4.0340 N.2   457  AOO457     -0.2437
      6  C6        34.0490   36.7210    3.7340 C.1   457  AOO457      0.2433
      7  N7        35.4720   39.9560    3.7420 N.pl3 457  AOO457     -0.1523
      8  C8        36.5710   40.3640    4.5650 C.3   457  AOO457      0.1058
      9  C9        36.7000   41.8250    4.8480 C.3   457  AOO457      0.0243
     10  C10       37.8230   39.6690    4.1490 C.3   457  AOO457      0.0243
     11  N11       34.2490   35.5990    4.5800 N.pl3 457  AOO457     -0.1505
     12  C12       35.0200   34.8420    5.5110 C.3   457  AOO457      0.1263
     13  C13       36.4820   35.0990    5.3850 C.3   457  AOO457      0.0261
     14  O21       32.2690   37.8250    0.7850 O.2   457  AOO457     -0.3945
     15  C22       31.5700   36.6780    0.4550 C.3   457  AOO457      0.2709
@<TRIPOS>BOND
     1    15    14    1
     2    14     2    1
     3     2     3    2
     4     2     1    2
     5     3     4    2
     6     1     6    2
     7     4     7    1
     8     4     5    2
     9     6     5    2
    10     6    11    1
    11     7     8    1
    12    10     8    1
    13     8     9    1
    14    11    12    1
    15    13    12    1
