@<TRIPOS>MOLECULE
3lse_LAT_A_1.pdb
 23 24 0 0 0
SMALL
GASTEIGER

@<TRIPOS>ATOM
      1  C1         8.6210  -13.5720  -21.2200 C.3     1  LAT1        0.2695
      2  C2         8.5920  -13.6760  -19.6780 C.3     1  LAT1        0.2406
      3  C3         7.5280  -14.6950  -19.2800 C.3     1  LAT1        0.2198
      4  C4         6.1880  -14.3270  -19.8680 C.3     1  LAT1        0.2144
      5  C5         6.2950  -14.0470  -21.3660 C.3     1  LAT1        0.1835
      6  C6         4.9690  -13.5740  -21.9530 C.3     1  LAT1        0.2142
      7  O1         9.6550  -12.7120  -21.7210 O.3     1  LAT1       -0.3257
      8  O2         9.8520  -13.9550  -19.0460 O.3     1  LAT1       -0.2149
      9  O3         7.3690  -14.7060  -17.8910 O.3     1  LAT1       -0.2174
     10  O4         5.7140  -13.2100  -19.1690 O.3     1  LAT1       -0.2176
     11  O5         7.3390  -13.1350  -21.6520 O.3     1  LAT1       -0.3256
     12  O6         5.1890  -13.1840  -23.2750 O.3     1  LAT1       -0.2176
     13  C1'       10.4690  -11.0160  -25.5340 C.3     1  LAT1        0.3023
     14  C2'        9.4710  -10.3140  -24.6080 C.3     1  LAT1        0.2433
     15  C3'        9.4980  -10.8440  -23.1800 C.3     1  LAT1        0.2168
     16  C4'        9.6050  -12.3630  -23.1050 C.3     1  LAT1        0.1804
     17  C5'       10.7550  -12.8830  -24.0000 C.3     1  LAT1        0.1804
     18  C6'       10.7860  -14.3980  -24.1500 C.3     1  LAT1        0.2141
     19  O1'       11.7480  -10.4690  -25.3170 O.3     1  LAT1       -0.1869
     20  O2'        9.7520   -8.9360  -24.5240 O.3     1  LAT1       -0.2148
     21  O3'        8.2920  -10.4710  -22.5640 O.3     1  LAT1       -0.2175
     22  O5'       10.5580  -12.4150  -25.3250 O.3     1  LAT1       -0.3237
     23  O6'       11.1220  -15.0770  -22.9700 O.3     1  LAT1       -0.2176
@<TRIPOS>BOND
     1    13    22    1
     2    13    19    1
     3    13    14    1
     4    22    17    1
     5    14    20    1
     6    14    15    1
     7    18    17    1
     8    18    23    1
     9    17    16    1
    10    12     6    1
    11    15    16    1
    12    15    21    1
    13    16     7    1
    14     6     5    1
    15     7     1    1
    16    11     5    1
    17    11     1    1
    18     5     4    1
    19     1     2    1
    20     4     3    1
    21     4    10    1
    22     2     3    1
    23     2     8    1
    24     3     9    1
