@<TRIPOS>MOLECULE
3lsf_GLU_B_1.pdb
 10 9 0 0 0
SMALL
GASTEIGER

@<TRIPOS>ATOM
      1  N          4.0380   38.7480   27.3830 N.3   400  GLU400     -0.1208
      2  CA         3.7850   37.7290   26.3630 C.3   400  GLU400      0.1949
      3  C          2.3030   37.5750   26.0600 C.2   400  GLU400      0.3819
      4  O          1.9400   36.7190   25.2520 O.co2 400  GLU400     -0.2441
      5  CB         4.3540   36.3750   26.7950 C.3   400  GLU400      0.0424
      6  CG         5.8590   36.2470   26.6060 C.3   400  GLU400      0.1161
      7  CD         6.2850   36.1580   25.1380 C.2   400  GLU400      0.3649
      8  OE1        7.5000   36.3370   24.8690 O.co2 400  GLU400     -0.2457
      9  OE2        5.4260   35.8970   24.2630 O.co2 400  GLU400     -0.2457
     10  OXT        1.4530   38.2770   26.6190 O.co2 400  GLU400     -0.2441
@<TRIPOS>BOND
     1     9     7   ar
     2     8     7   ar
     3     7     6    1
     4     4     3   ar
     5     3     2    1
     6     3    10   ar
     7     2     5    1
     8     2     1    1
     9     6     5    1
