@<TRIPOS>MOLECULE
3lsf_PZI_B_1.pdb
 10 10 0 0 0
SMALL
GASTEIGER

@<TRIPOS>ATOM
      1  N01        7.4940   49.0500   35.2720 N.am  800  PZI800     -0.0863
      2  C02        7.6240   50.4670   34.9730 C.2   800  PZI800      0.2813
      3  O03        8.4740   51.0840   35.5230 O.2   800  PZI800     -0.2698
      4  C04        6.5120   51.1950   34.2090 C.3   800  PZI800      0.1867
      5  N05        6.4680   52.6430   34.3400 N.am  800  PZI800     -0.2484
      6  C06        7.1500   53.3560   35.2560 C.2   800  PZI800      0.0639
      7  C07        6.7840   54.7130   35.1360 C.2   800  PZI800     -0.0004
      8  C08        5.8400   54.8100   34.1270 C.3   800  PZI800      0.1129
      9  C09        5.6220   53.5610   33.6270 C.2   800  PZI800      0.2342
     10  O10        4.7290   53.2610   32.5920 O.2   800  PZI800     -0.2742
@<TRIPOS>BOND
     1    10     9    2
     2     9     8    1
     3     9     5   am
     4     8     7    1
     5     4     5    1
     6     4     2    1
     7     5     6    1
     8     2     1   am
     9     2     3    2
    10     7     6    2
