@<TRIPOS>MOLECULE
3lsj_COA_A_1.pdb
 48 50 0 0 0
SMALL
GASTEIGER

@<TRIPOS>ATOM
      1  N1A       -9.9960   15.0040    3.1640 N.2   222  COA222      0.0021
      2  C2A      -11.1300   14.8580    2.4560 C.3   222  COA222      0.5254
      3  N3A      -12.1940   15.6420    2.6960 N.2   222  COA222     -0.0055
      4  C4A      -12.1490   16.6000    3.6660 C.2   222  COA222      0.3518
      5  C5A      -10.9850   16.7620    4.4090 C.2   222  COA222      0.2526
      6  C6A       -9.8960   15.9420    4.1400 C.2   222  COA222      0.4393
      7  N6A       -8.7500   16.0780    4.8510 N.pl3 222  COA222      0.2180
      8  N7A      -11.1940   17.7610    5.2910 N.2   222  COA222     -0.2095
      9  C8A      -12.4560   18.2070    5.0990 C.3   222  COA222      0.3377
     10  N9A      -13.0420   17.4970    4.1150 N.pl3 222  COA222     -0.1439
     11  C1B      -14.4320   17.6980    3.5960 C.3   222  COA222      0.3185
     12  C2B      -15.4830   16.7830    4.2270 C.3   222  COA222      0.2543
     13  O2B      -15.6150   15.5490    3.4910 O.3   222  COA222     -0.2131
     14  C3B      -16.7640   17.6220    4.2060 C.3   222  COA222      0.1928
     15  O3B      -17.5770   17.3490    3.0440 O.3   222  COA222     -0.2673
     16  P3B      -18.5880   18.3870    2.2970 P.3   222  COA222      0.5327
     17  O7A      -19.6590   17.4650    1.7120 O.3   222  COA222     -0.1145
     18  O8A      -17.7150   19.0650    1.2480 O.2   222  COA222     -0.2224
     19  O9A      -19.1280   19.3330    3.3620 O.3   222  COA222     -0.1145
     20  C4B      -16.2690   19.0660    4.2210 C.3   222  COA222      0.1795
     21  O4B      -14.8730   19.0440    3.8530 O.3   222  COA222     -0.3136
     22  C5B      -16.5160   19.7370    5.5850 C.3   222  COA222      0.1812
     23  O5B      -15.3230   19.7250    6.3850 O.3   222  COA222     -0.3112
     24  P1A      -14.4370   21.0680    6.5900 P.3   222  COA222      0.2189
     25  O1A      -13.0880   20.6380    7.1280 O.2   222  COA222     -0.5170
     26  O2A      -15.2610   22.0650    7.3860 O.3   222  COA222     -0.4371
     27  O3A      -14.1870   21.6240    5.0870 O.3   222  COA222     -0.2703
     28  P2A      -15.0010   22.8190    4.3490 P.3   222  COA222      0.2188
     29  O4A      -15.9200   23.5320    5.3230 O.3   222  COA222     -0.4371
     30  O5A      -15.5770   22.2650    3.0530 O.2   222  COA222     -0.5170
     31  O6A      -13.8010   23.8170    3.9440 O.3   222  COA222     -0.3138
     32  CBP      -12.8340   25.7710    5.0620 C.3   222  COA222      0.0645
     33  CCP      -13.9160   25.2310    4.1210 C.3   222  COA222      0.1519
     34  CDP      -13.1220   25.2630    6.4720 C.3   222  COA222      0.0056
     35  CEP      -12.9620   27.2930    5.0720 C.3   222  COA222      0.0056
     36  CAP      -11.4310   25.3010    4.6290 C.3   222  COA222      0.2312
     37  OAP      -10.4160   26.1250    5.2270 O.3   222  COA222     -0.2131
     38  C9P      -11.2240   25.2830    3.1310 C.2   222  COA222      0.2719
     39  O9P      -11.1100   24.2230    2.5320 O.2   222  COA222     -0.2706
     40  N8P      -11.1680   26.4720    2.5340 N.am  222  COA222     -0.2028
     41  C7P      -10.9850   26.8090    1.1320 C.3   222  COA222      0.1248
     42  C6P      -11.3620   28.2830    1.1390 C.3   222  COA222      0.1102
     43  C5P      -10.9580   28.9740   -0.1410 C.2   222  COA222      0.2432
     44  O5P       -9.7830   29.2260   -0.3570 O.2   222  COA222     -0.2733
     45  N4P      -11.9380   29.2990   -0.9840 N.am  222  COA222     -0.2044
     46  C3P      -13.3720   29.0610   -0.8440 C.3   222  COA222      0.1276
     47  C2P      -13.6530   27.8590   -1.7450 C.3   222  COA222      0.0920
     48  S1P      -13.8750   28.4200   -3.4070 S.3   222  COA222     -0.0802
@<TRIPOS>BOND
     1    48    47    1
     2    47    46    1
     3    45    46    1
     4    45    43   am
     5    44    43    2
     6    43    42    1
     7    41    42    1
     8    41    40    1
     9    18    16    2
    10    17    16    1
    11    16    15    1
    12    16    19    1
    13     2     3    1
    14     2     1    1
    15    39    38    2
    16    40    38   am
    17     3     4    2
    18    15    14    1
    19    30    28    2
    20    38    36    1
    21     1     6    2
    22    13    12    1
    23    11    21    1
    24    11    10    1
    25    11    12    1
    26     4    10    1
    27     4     5    1
    28    21    20    1
    29    31    33    1
    30    31    28    1
    31    10     9    1
    32    33    32    1
    33     6     5    1
    34     6     7    1
    35    14    20    1
    36    14    12    1
    37    20    22    1
    38    28    27    1
    39    28    29    1
    40     5     8    2
    41    36    32    1
    42    36    37    1
    43    32    35    1
    44    32    34    1
    45    27    24    1
    46     9     8    1
    47    22    23    1
    48    23    24    1
    49    24    25    2
    50    24    26    1
