@<TRIPOS>MOLECULE
3lsl_PZI_A_1.pdb
 10 10 0 0 0
SMALL
GASTEIGER

@<TRIPOS>ATOM
      1  N01       -7.6420   -0.5180  -15.4500 N.am  800  PZI800     -0.0863
      2  C02       -7.4630   -1.4040  -16.5820 C.2   800  PZI800      0.2810
      3  O03       -6.4580   -1.3130  -17.2170 O.2   800  PZI800     -0.2698
      4  C04       -8.5690   -2.4320  -16.9020 C.3   800  PZI800      0.1826
      5  N05       -8.2930   -3.4000  -18.0600 N.am  800  PZI800     -0.2712
      6  C06       -8.3580   -2.9460  -19.5410 C.3   800  PZI800      0.0944
      7  C07       -7.5190   -3.9680  -20.2950 C.3   800  PZI800      0.0311
      8  C08       -6.5050   -4.4810  -19.2570 C.3   800  PZI800      0.0871
      9  C09       -7.2910   -4.5750  -17.9350 C.2   800  PZI800      0.2260
     10  O10       -7.6320   -5.8340  -17.3930 O.2   800  PZI800     -0.2749
@<TRIPOS>BOND
     1     7     6    1
     2     7     8    1
     3     6     5    1
     4     8     9    1
     5     5     9   am
     6     5     4    1
     7     9    10    2
     8     3     2    2
     9     4     2    1
    10     2     1   am
