@<TRIPOS>MOLECULE
3lsl_GLU_A_1.pdb
 10 9 0 0 0
SMALL
GASTEIGER

@<TRIPOS>ATOM
      1  N         -3.9730    9.6440  -25.1360 N.3   400  GLU400     -0.1208
      2  CA        -3.6470   10.6600  -26.1470 C.3   400  GLU400      0.1949
      3  C         -2.1340   10.8330  -26.2740 C.2   400  GLU400      0.3819
      4  O         -1.6480   11.6910  -27.0170 O.co2 400  GLU400     -0.2441
      5  CB        -4.2310   12.0110  -25.7640 C.3   400  GLU400      0.0424
      6  CG        -5.7390   12.0920  -25.8990 C.3   400  GLU400      0.1161
      7  CD        -6.1540   12.3710  -27.3290 C.2   400  GLU400      0.3649
      8  OE1       -7.3760   12.2550  -27.5710 O.co2 400  GLU400     -0.2457
      9  OE2       -5.2690   12.7250  -28.1870 O.co2 400  GLU400     -0.2457
     10  OXT       -1.3980   10.1240  -25.6020 O.co2 400  GLU400     -0.2441
@<TRIPOS>BOND
     1     9     7   ar
     2     8     7   ar
     3     7     6    1
     4     4     3   ar
     5     3     2    1
     6     3    10   ar
     7     2     5    1
     8     2     1    1
     9     6     5    1
