@<TRIPOS>MOLECULE
3lsm_GLC_A_1.pdb
 12 12 0 0 0
SMALL
GASTEIGER

@<TRIPOS>ATOM
      1  C1        -9.6450   19.2330  -47.9020 C.2   912  GLC912      0.3505
      2  C2       -10.4150   19.2810  -46.5720 C.3   912  GLC912      0.2823
      3  C3       -11.3370   20.4730  -46.7920 C.3   912  GLC912      0.2270
      4  C4       -10.5290   21.7230  -47.2230 C.3   912  GLC912      0.2276
      5  C5        -9.6630   21.4600  -48.4800 C.3   912  GLC912      0.2344
      6  C6        -8.7830   22.6250  -48.9230 C.3   912  GLC912      0.2281
      7  O1       -10.1380   18.4410  -48.9850 O.2   912  GLC912     -0.2472
      8  O2       -11.1840   18.0890  -46.4520 O.3   912  GLC912     -0.2082
      9  O3       -12.2040   20.7010  -45.6970 O.3   912  GLC912     -0.2169
     10  O4       -11.4030   22.8000  -47.4510 O.3   912  GLC912     -0.2163
     11  O5        -8.7890   20.3450  -48.2580 O.3   912  GLC912     -0.4450
     12  O6        -7.9490   23.0940  -47.8740 O.3   912  GLC912     -0.2163
@<TRIPOS>BOND
     1     7     1    2
     2     6     5    1
     3     6    12    1
     4     5    11    1
     5     5     4    1
     6    11     1    1
     7     1     2    1
     8    10     4    1
     9     4     3    1
    10     3     2    1
    11     3     9    1
    12     2     8    1
