@<TRIPOS>MOLECULE
3lss_ATP_A_1.pdb
 31 33 0 0 0
SMALL
GASTEIGER

@<TRIPOS>ATOM
      1  PG        16.4900   30.3620   86.0020 P.3   501  ATP501      0.5373
      2  O1G       17.2990   30.7130   84.7680 O.2   501  ATP501     -0.2221
      3  O2G       16.8540   29.0420   86.6360 O.3   501  ATP501     -0.1143
      4  O3G       15.0000   30.5360   85.9150 O.3   501  ATP501     -0.1143
      5  PB        16.1110   32.8640   87.3060 P.3   501  ATP501      0.2277
      6  O1B       14.8650   32.9120   86.4430 O.2   501  ATP501     -0.5168
      7  O2B       17.0480   34.0450   87.2700 O.3   501  ATP501     -0.4368
      8  O3B       16.9860   31.5280   87.0010 O.3   501  ATP501     -0.2258
      9  PA        14.9340   31.3210   89.4070 P.3   501  ATP501      0.2189
     10  O1A       15.1940   31.1770   90.8950 O.3   501  ATP501     -0.4371
     11  O2A       15.1940   30.1450   88.4900 O.2   501  ATP501     -0.5170
     12  O3A       15.7210   32.6260   88.8650 O.3   501  ATP501     -0.2700
     13  O5'       13.4030   31.7480   89.2020 O.3   501  ATP501     -0.3112
     14  C5'       12.3610   30.8470   89.5540 C.3   501  ATP501      0.1813
     15  C4'       11.0330   31.5000   89.2420 C.3   501  ATP501      0.1821
     16  O4'       10.8900   32.6760   90.0640 O.3   501  ATP501     -0.3135
     17  C3'       10.9360   31.9850   87.8180 C.3   501  ATP501      0.2184
     18  O3'       10.5410   30.9870   86.8580 O.3   501  ATP501     -0.2174
     19  C2'        9.8950   33.0630   87.9700 C.3   501  ATP501      0.2570
     20  O2'        8.5830   32.5130   87.9700 O.3   501  ATP501     -0.2130
     21  C1'       10.1750   33.6590   89.3300 C.3   501  ATP501      0.3186
     22  N9        11.0340   34.8620   89.2830 N.pl3 501  ATP501     -0.1439
     23  C8        12.3920   34.9480   89.0960 C.3   501  ATP501      0.3377
     24  N7        12.8110   36.2650   89.1560 N.2   501  ATP501     -0.2095
     25  C5        11.6950   36.9910   89.3600 C.2   501  ATP501      0.2526
     26  C6        11.4350   38.4160   89.5340 C.2   501  ATP501      0.4393
     27  N6        12.4970   39.2500   89.4650 N.pl3 501  ATP501      0.2180
     28  N1        10.1640   38.7870   89.7630 N.2   501  ATP501      0.0021
     29  C2         9.1360   37.9010   89.8540 C.3   501  ATP501      0.5254
     30  N3         9.3010   36.5620   89.7100 N.2   501  ATP501     -0.0055
     31  C4        10.5410   36.0810   89.4620 C.2   501  ATP501      0.3518
@<TRIPOS>BOND
     1     2     1    2
     2     4     1    1
     3     1     3    1
     4     1     8    1
     5     6     5    2
     6    18    17    1
     7     8     5    1
     8     7     5    1
     9     5    12    1
    10    17    19    1
    11    17    15    1
    12    20    19    1
    13    19    21    1
    14    11     9    2
    15    12     9    1
    16    23    24    1
    17    23    22    1
    18    24    25    2
    19    13     9    1
    20    13    14    1
    21    15    14    1
    22    15    16    1
    23    22    21    1
    24    22    31    1
    25    21    16    1
    26    25    31    1
    27    25    26    1
    28     9    10    1
    29    31    30    2
    30    27    26    1
    31    26    28    2
    32    30    29    1
    33    28    29    1
