@<TRIPOS>MOLECULE
3lst_SAH_A_1.pdb
 26 28 0 0 0
SMALL
GASTEIGER

@<TRIPOS>ATOM
      1  N         38.7990   68.7950  103.7700 N.3   346  SAH346     -0.1208
      2  CA        38.0340   68.3380  104.9640 C.3   346  SAH346      0.1952
      3  CB        37.2660   67.0850  104.5830 C.3   346  SAH346      0.0422
      4  CG        35.9230   67.0500  105.2870 C.3   346  SAH346      0.0597
      5  SD        35.0900   65.5590  104.8630 S.3   346  SAH346     -0.1375
      6  C         38.9750   67.9740  106.0690 C.2   346  SAH346      0.3819
      7  O         38.6330   68.0430  107.2500 O.co2 346  SAH346     -0.2441
      8  OXT       40.1130   67.5810  105.8140 O.co2 346  SAH346     -0.2441
      9  C5'       34.8370   65.7990  103.1290 C.3   346  SAH346      0.0899
     10  C4'       34.1010   67.1080  102.8330 C.3   346  SAH346      0.1630
     11  O4'       33.6730   67.1490  101.4670 O.3   346  SAH346     -0.3153
     12  C3'       32.8620   67.3160  103.6900 C.3   346  SAH346      0.2168
     13  O3'       33.0070   68.5580  104.3860 O.3   346  SAH346     -0.2175
     14  C2'       31.7020   67.3890  102.7160 C.3   346  SAH346      0.2569
     15  O2'       30.7600   68.4000  103.0860 O.3   346  SAH346     -0.2130
     16  C1'       32.3730   67.7370  101.4030 C.3   346  SAH346      0.3185
     17  N9        31.5980   67.2250  100.2490 N.pl3 346  SAH346     -0.1439
     18  C8        30.9350   66.0540  100.1870 C.3   346  SAH346      0.3377
     19  N7        30.3250   65.9040   98.9830 N.2   346  SAH346     -0.2095
     20  C5        30.5950   67.0060   98.2580 C.2   346  SAH346      0.2526
     21  C6        30.2640   67.5000   96.9030 C.2   346  SAH346      0.4393
     22  N6        29.4990   66.7570   96.0680 N.pl3 346  SAH346      0.2180
     23  N1        30.7510   68.7080   96.5330 N.2   346  SAH346      0.0021
     24  C2        31.5100   69.4500   97.3610 C.3   346  SAH346      0.5254
     25  N3        31.8500   69.0640   98.6040 N.2   346  SAH346     -0.0055
     26  C4        31.4280   67.8760   99.0990 C.2   346  SAH346      0.3518
@<TRIPOS>BOND
     1    22    21    1
     2    23    21    2
     3    23    24    1
     4    21    20    1
     5    24    25    1
     6    20    19    2
     7    20    26    1
     8    25    26    2
     9    19    18    1
    10    26    17    1
    11    18    17    1
    12    17    16    1
    13    16    11    1
    14    16    14    1
    15    11    10    1
    16    14    15    1
    17    14    12    1
    18    10     9    1
    19    10    12    1
    20     9     5    1
    21    12    13    1
    22     1     2    1
    23     3     2    1
    24     3     4    1
    25     5     4    1
    26     2     6    1
    27     8     6   ar
    28     6     7   ar
