@<TRIPOS>MOLECULE
3lsw_GLU_A_1.pdb
 10 9 0 0 0
SMALL
GASTEIGER

@<TRIPOS>ATOM
      1  N          3.0680    3.3080   20.8380 N.3   400  GLU400     -0.1208
      2  CA         4.3290    3.5000   20.1430 C.3   400  GLU400      0.1949
      3  C          4.6310    4.9810   20.1080 C.2   400  GLU400      0.3819
      4  O          5.6450    5.3850   19.5430 O.co2 400  GLU400     -0.2441
      5  CB         4.2790    2.9540   18.7210 C.3   400  GLU400      0.0424
      6  CG         4.5130    1.4090   18.6220 C.3   400  GLU400      0.1161
      7  CD         5.9440    0.9380   18.9340 C.2   400  GLU400      0.3649
      8  OE1        6.1540   -0.3110   19.1780 O.co2 400  GLU400     -0.2457
      9  OE2        6.8680    1.7860   18.8700 O.co2 400  GLU400     -0.2457
     10  OXT        3.8580    5.7550   20.6480 O.co2 400  GLU400     -0.2441
@<TRIPOS>BOND
     1     6     5    1
     2     6     7    1
     3     5     2    1
     4     9     7   ar
     5     7     8   ar
     6     4     3   ar
     7     3     2    1
     8     3    10   ar
     9     2     1    1
