@<TRIPOS>MOLECULE
3lsw_4MP_A_1.pdb
 16 17 0 0 0
SMALL
GASTEIGER

@<TRIPOS>ATOM
      1  O1         2.9540    0.7910   34.3600 O.2   801  4MP801     -0.2695
      2  O2         2.5770    4.7130   32.9100 O.2   801  4MP801     -0.2695
      3  O3        -3.0890    2.1040   34.3600 O.3   801  4MP801     -0.4714
      4  N1         3.4610    3.0640   34.2100 N.am  801  4MP801     -0.2186
      5  C1         3.6850    1.7130   34.5610 C.2   801  4MP801      0.2551
      6  C2         5.0120    1.6500   35.2330 C.2   801  4MP801      0.0555
      7  C3         5.5480    2.9810   35.2770 C.2   801  4MP801      0.0004
      8  C4         4.6500    3.8870   34.5400 C.3   801  4MP801      0.1279
      9  C5         2.3590    3.6980   33.5650 C.2   801  4MP801      0.2552
     10  C6         0.9330    3.2540   33.7610 C.ar  801  4MP801      0.0542
     11  C7         0.3280    3.2170   35.0590 C.ar  801  4MP801      0.0076
     12  C8        -1.0260    2.8210   35.2080 C.ar  801  4MP801      0.0370
     13  C9        -1.7950    2.4590   34.0710 C.ar  801  4MP801      0.1387
     14  C10       -1.1870    2.4940   32.7730 C.ar  801  4MP801      0.0370
     15  C11        0.1700    2.8910   32.6240 C.ar  801  4MP801      0.0076
     16  C12       -3.9930    1.7110   33.2920 C.3   801  4MP801      0.2525
@<TRIPOS>BOND
     1    15    14   ar
     2    15    10   ar
     3    14    13   ar
     4     2     9    2
     5    16     3    1
     6     9    10    1
     7     9     4   am
     8    10    11   ar
     9    13     3    1
    10    13    12   ar
    11     4     8    1
    12     4     5   am
    13     1     5    2
    14     8     7    1
    15     5     6    1
    16    11    12   ar
    17     6     7    2
