@<TRIPOS>MOLECULE
3lsx_GLU_A_1.pdb
 10 9 0 0 0
SMALL
GASTEIGER

@<TRIPOS>ATOM
      1  N         -3.0280   20.8600   21.0910 N.3   400  GLU400     -0.1208
      2  CA        -4.2930   20.6060   20.4100 C.3   400  GLU400      0.1949
      3  C         -4.6420   19.1000   20.3540 C.2   400  GLU400      0.3819
      4  O         -5.6410   18.6920   19.7720 O.co2 400  GLU400     -0.2441
      5  CB        -4.2760   21.1740   18.9970 C.3   400  GLU400      0.0424
      6  CG        -4.4350   22.7160   18.9580 C.3   400  GLU400      0.1161
      7  CD        -5.8590   23.1940   19.2680 C.2   400  GLU400      0.3649
      8  OE1       -6.0150   24.4050   19.5850 O.co2 400  GLU400     -0.2457
      9  OE2       -6.8150   22.3750   19.1750 O.co2 400  GLU400     -0.2457
     10  OXT       -3.9170   18.2730   20.8940 O.co2 400  GLU400     -0.2441
@<TRIPOS>BOND
     1     6     5    1
     2     6     7    1
     3     5     2    1
     4     9     7   ar
     5     7     8   ar
     6     4     3   ar
     7     3     2    1
     8     3    10   ar
     9     2     1    1
