@<TRIPOS>MOLECULE
3lsy_NAD_A_1.pdb
 44 48 0 0 0
SMALL
GASTEIGER

@<TRIPOS>ATOM
      1  PA        51.3520   88.8740   40.4870 P.3   501  NAD501      0.2189
      2  O1A       52.8390   88.6340   40.2630 O.2   501  NAD501     -0.5170
      3  O2A       50.8980   89.3660   41.8410 O.3   501  NAD501     -0.4371
      4  O5B       50.5260   87.5170   40.1720 O.3   501  NAD501     -0.3112
      5  C5B       50.8680   86.7330   39.0260 C.3   501  NAD501      0.1813
      6  C4B       51.3820   85.3970   39.5330 C.3   501  NAD501      0.1821
      7  O4B       51.2650   84.4060   38.5070 O.3   501  NAD501     -0.3135
      8  C3B       52.8620   85.4850   39.8940 C.3   501  NAD501      0.2184
      9  O3B       52.9820   85.5940   41.3150 O.3   501  NAD501     -0.2174
     10  C2B       53.4710   84.1880   39.4020 C.3   501  NAD501      0.2570
     11  O2B       53.9320   83.4210   40.5170 O.3   501  NAD501     -0.2130
     12  C1B       52.3130   83.4440   38.7390 C.3   501  NAD501      0.3186
     13  N9A       52.7810   82.7350   37.5110 N.pl3 501  NAD501     -0.1439
     14  C8A       53.5730   83.2610   36.5560 C.3   501  NAD501      0.3377
     15  N7A       53.8020   82.3290   35.5890 N.2   501  NAD501     -0.2095
     16  C5A       53.1540   81.2120   35.9670 C.2   501  NAD501      0.2526
     17  C6A       53.0080   79.8630   35.3670 C.2   501  NAD501      0.4393
     18  N6A       53.6060   79.5830   34.1990 N.pl3 501  NAD501      0.2180
     19  N1A       52.2560   78.9360   36.0000 N.2   501  NAD501      0.0021
     20  C2A       51.6560   79.2490   37.1750 C.3   501  NAD501      0.5254
     21  N3A       51.7690   80.4760   37.7500 N.2   501  NAD501     -0.0055
     22  C4A       52.5020   81.4610   37.1740 C.2   501  NAD501      0.3518
     23  O3        50.8120   89.8790   39.3150 O.3   501  NAD501     -0.2703
     24  PN        49.4510   90.7740   39.4480 P.3   501  NAD501      0.2189
     25  O1N       49.8850   92.2300   39.3160 O.2   501  NAD501     -0.5170
     26  O2N       48.6120   90.2930   40.6200 O.3   501  NAD501     -0.4371
     27  O5D       48.6470   90.3370   38.1350 O.3   501  NAD501     -0.3112
     28  C5D       47.6660   89.3070   38.1930 C.3   501  NAD501      0.1813
     29  C4D       46.9320   89.3400   36.8550 C.3   501  NAD501      0.1799
     30  O4D       46.2180   90.5820   36.7120 O.3   501  NAD501     -0.3327
     31  C3D       47.9250   89.2980   35.7120 C.3   501  NAD501      0.2158
     32  O3D       47.5350   88.2280   34.8360 O.3   501  NAD501     -0.2175
     33  C2D       47.8290   90.5960   34.9450 C.3   501  NAD501      0.2309
     34  O2D       47.7900   90.2680   33.5400 O.3   501  NAD501     -0.2158
     35  C1D       46.5110   91.2140   35.4450 C.3   501  NAD501      0.2263
     36  N1N       46.5510   92.6920   35.5400 N.pl3 501  NAD501     -0.2787
     37  C2N       47.4310   93.2560   36.3910 C.3   501  NAD501      0.1244
     38  C3N       47.5470   94.6330   36.5480 C.2   501  NAD501      0.0544
     39  C7N       48.5520   95.1920   37.5270 C.2   501  NAD501      0.2818
     40  O7N       48.8120   96.3800   37.5620 O.2   501  NAD501     -0.2670
     41  N7N       49.1740   94.3720   38.3660 N.am  501  NAD501     -0.0839
     42  C4N       46.6500   95.5440   35.7220 C.2   501  NAD501      0.0033
     43  C5N       45.7210   94.8250   34.8240 C.2   501  NAD501      0.0157
     44  C6N       45.7170   93.4310   34.7680 C.2   501  NAD501      0.0633
@<TRIPOS>BOND
     1    34    33    1
     2    18    17    1
     3    44    43    2
     4    44    36    1
     5    43    42    1
     6    32    31    1
     7    33    35    1
     8    33    31    1
     9    17    16    1
    10    17    19    2
    11    35    36    1
    12    35    30    1
    13    36    37    1
    14    15    16    2
    15    15    14    1
    16    31    29    1
    17    42    38    2
    18    16    22    1
    19    19    20    1
    20    37    38    1
    21    38    39    1
    22    14    13    1
    23    30    29    1
    24    29    28    1
    25    22    13    1
    26    22    21    2
    27    20    21    1
    28    13    12    1
    29    39    40    2
    30    39    41   am
    31    27    28    1
    32    27    24    1
    33     7    12    1
    34     7     6    1
    35    12    10    1
    36     5     6    1
    37     5     4    1
    38    23    24    1
    39    23     1    1
    40    25    24    2
    41    10     8    1
    42    10    11    1
    43    24    26    1
    44     6     8    1
    45     8     9    1
    46     4     1    1
    47     2     1    2
    48     1     3    1
