@<TRIPOS>MOLECULE
3lsy_FT0_A_1.pdb
 16 17 0 0 0
SMALL
GASTEIGER

@<TRIPOS>ATOM
      1  C1        50.6730   92.8560   34.3960 C.ar  502  FT0502      0.1839
      2  C2        49.7240   93.3230   33.5040 C.ar  502  FT0502      0.2300
      3  C3        49.4210   94.6790   33.4340 C.ar  502  FT0502      0.0485
      4  C4        50.0830   95.5800   34.2650 C.ar  502  FT0502      0.0456
      5  C5        51.0490   95.1260   35.1720 C.ar  502  FT0502      0.0066
      6  C6        51.3450   93.7620   35.2350 C.ar  502  FT0502      0.0409
      7  O7        50.9260   91.4950   34.4180 O.3   502  FT0502     -0.4503
      8  C8        52.0670   91.0110   33.8320 C.ar  502  FT0502      0.1454
      9  C9        52.5200   89.7310   34.1430 C.ar  502  FT0502      0.0375
     10  C10       53.6890   89.2360   33.5470 C.ar  502  FT0502      0.0031
     11  C11       54.4170   90.0240   32.6530 C.ar  502  FT0502      0.0002
     12  C12       53.9650   91.3080   32.3480 C.ar  502  FT0502      0.0031
     13  C13       52.7910   91.7950   32.9310 C.ar  502  FT0502      0.0375
     14  C14       49.7570   97.0150   34.1590 C.2   502  FT0502      0.2343
     15  O15       49.2720   97.5450   35.1300 O.2   502  FT0502     -0.2831
     16  O16       49.0880   92.4340   32.6970 O.3   502  FT0502     -0.2833
@<TRIPOS>BOND
     1    12    11   ar
     2    12    13   ar
     3    11    10   ar
     4    16     2    1
     5    13     8   ar
     6     3     2   ar
     7     3     4   ar
     8     2     1   ar
     9    10     9   ar
    10     8     9   ar
    11     8     7    1
    12    14     4    1
    13    14    15    2
    14     4     5   ar
    15     1     7    1
    16     1     6   ar
    17     5     6   ar
