@<TRIPOS>MOLECULE
3lsz_GSH_A_1.pdb
 20 19 0 0 0
SMALL
GASTEIGER

@<TRIPOS>ATOM
      1  N1        93.2240   46.2770   19.4700 N.3   300  GSH300     -0.1208
      2  CA1       93.5630   45.5930   18.2680 C.3   300  GSH300      0.1948
      3  C1        94.3130   46.4130   17.2690 C.2   300  GSH300      0.3819
      4  O11       95.1750   45.8770   16.5720 O.co2 300  GSH300     -0.2441
      5  O12       93.9150   47.5980   17.2740 O.co2 300  GSH300     -0.2441
      6  CB1       92.3110   44.8690   17.7690 C.3   300  GSH300      0.0402
      7  CG1       92.4490   44.0610   16.4790 C.3   300  GSH300      0.0889
      8  CD1       91.1610   43.3980   16.0820 C.2   300  GSH300      0.2418
      9  OE1       90.2560   43.0940   17.0150 O.2   300  GSH300     -0.2733
     10  N2        90.9540   43.1210   14.8080 N.am  300  GSH300     -0.1968
     11  CA2       89.7630   42.4690   14.2700 C.3   300  GSH300      0.1843
     12  C2        89.8630   41.0090   14.2870 C.2   300  GSH300      0.2627
     13  O2        91.0320   40.4520   13.8970 O.2   300  GSH300     -0.2714
     14  CB2       89.5320   42.9590   12.8040 C.3   300  GSH300      0.0997
     15  SG2       89.3940   44.7830   12.6860 S.3   300  GSH300     -0.0797
     16  N3        88.8590   40.2770   14.6880 N.am  300  GSH300     -0.1917
     17  CA3       88.4930   39.0530   13.9570 C.3   300  GSH300      0.2285
     18  C3        88.6240   37.8810   14.9050 C.2   300  GSH300      0.3865
     19  O31       88.3540   36.7410   14.4590 O.co2 300  GSH300     -0.2437
     20  O32       89.0000   38.0750   16.1150 O.co2 300  GSH300     -0.2437
@<TRIPOS>BOND
     1    15    14    1
     2    14    11    1
     3    13    12    2
     4    17    16    1
     5    17    18    1
     6    11    12    1
     7    11    10    1
     8    12    16   am
     9    19    18   ar
    10    10     8   am
    11    18    20   ar
    12     8     7    1
    13     8     9    2
    14     7     6    1
    15     4     3   ar
    16     3     5   ar
    17     3     2    1
    18     6     2    1
    19     2     1    1
