@<TRIPOS>MOLECULE
3lt0_NAD_A_1.pdb
 44 48 0 0 0
SMALL
GASTEIGER

@<TRIPOS>ATOM
      1  PA        51.1560   88.0100   40.6600 P.3   501  NAD501      0.2189
      2  O1A       52.6260   87.7520   40.4240 O.2   501  NAD501     -0.5170
      3  O2A       50.6320   88.2900   42.0490 O.3   501  NAD501     -0.4371
      4  O5B       50.3210   86.7750   40.0480 O.3   501  NAD501     -0.3112
      5  C5B       50.8260   86.0270   38.9440 C.3   501  NAD501      0.1813
      6  C4B       51.0880   84.5980   39.4080 C.3   501  NAD501      0.1821
      7  O4B       51.1100   83.6850   38.3060 O.3   501  NAD501     -0.3135
      8  C3B       52.4210   84.4470   40.1260 C.3   501  NAD501      0.2184
      9  O3B       52.1840   84.1380   41.5000 O.3   501  NAD501     -0.2174
     10  C2B       53.1180   83.2830   39.4570 C.3   501  NAD501      0.2570
     11  O2B       53.6460   82.3760   40.4240 O.3   501  NAD501     -0.2130
     12  C1B       52.0140   82.6310   38.6460 C.3   501  NAD501      0.3186
     13  N9A       52.5740   81.9170   37.4690 N.pl3 501  NAD501     -0.1439
     14  C8A       53.4520   82.3850   36.5660 C.3   501  NAD501      0.3377
     15  N7A       53.7190   81.4130   35.6530 N.2   501  NAD501     -0.2095
     16  C5A       52.9950   80.3280   36.0060 C.2   501  NAD501      0.2526
     17  C6A       52.8260   78.9590   35.4500 C.2   501  NAD501      0.4393
     18  N6A       53.4890   78.5660   34.3340 N.pl3 501  NAD501      0.2180
     19  N1A       51.9890   78.1110   36.0890 N.2   501  NAD501      0.0021
     20  C2A       51.3370   78.5070   37.1910 C.3   501  NAD501      0.5254
     21  N3A       51.4760   79.7400   37.7080 N.2   501  NAD501     -0.0055
     22  C4A       52.2830   80.6550   37.1470 C.2   501  NAD501      0.3518
     23  O3        50.7220   89.2280   39.7010 O.3   501  NAD501     -0.2703
     24  PN        49.1740   89.5920   39.4500 P.3   501  NAD501      0.2189
     25  O1N       49.1150   91.0220   38.9650 O.2   501  NAD501     -0.5170
     26  O2N       48.3910   89.1810   40.6700 O.3   501  NAD501     -0.4371
     27  O5D       48.7460   88.6270   38.2310 O.3   501  NAD501     -0.3112
     28  C5D       47.5110   87.9180   38.2860 C.3   501  NAD501      0.1813
     29  C4D       46.7150   88.1130   37.0000 C.3   501  NAD501      0.1799
     30  O4D       46.1300   89.4180   36.9580 O.3   501  NAD501     -0.3327
     31  C3D       47.5900   87.9800   35.7650 C.3   501  NAD501      0.2158
     32  O3D       46.9190   87.1500   34.8140 O.3   501  NAD501     -0.2175
     33  C2D       47.6930   89.3850   35.2150 C.3   501  NAD501      0.2309
     34  O2D       47.7990   89.3690   33.7880 O.3   501  NAD501     -0.2158
     35  C1D       46.3860   90.0020   35.6770 C.3   501  NAD501      0.2263
     36  N1N       46.4500   91.4660   35.7290 N.pl3 501  NAD501     -0.2787
     37  C2N       47.2960   92.1020   36.5480 C.3   501  NAD501      0.1244
     38  C3N       47.3470   93.4950   36.5970 C.2   501  NAD501      0.0544
     39  C7N       48.3000   94.1930   37.5210 C.2   501  NAD501      0.2818
     40  O7N       48.4890   95.3920   37.3760 O.2   501  NAD501     -0.2670
     41  N7N       48.9150   93.4950   38.4720 N.am  501  NAD501     -0.0839
     42  C4N       46.4520   94.3440   35.7230 C.2   501  NAD501      0.0033
     43  C5N       45.5870   93.5310   34.8830 C.2   501  NAD501      0.0157
     44  C6N       45.6260   92.1430   34.9250 C.2   501  NAD501      0.0633
@<TRIPOS>BOND
     1    34    33    1
     2    18    17    1
     3    32    31    1
     4    43    44    2
     5    43    42    1
     6    44    36    1
     7    33    35    1
     8    33    31    1
     9    17    16    1
    10    17    19    2
    11    15    16    2
    12    15    14    1
    13    35    36    1
    14    35    30    1
    15    42    38    2
    16    36    37    1
    17    31    29    1
    18    16    22    1
    19    19    20    1
    20    37    38    1
    21    14    13    1
    22    38    39    1
    23    30    29    1
    24    29    28    1
    25    22    13    1
    26    22    21    2
    27    20    21    1
    28    40    39    2
    29    13    12    1
    30    39    41   am
    31    27    28    1
    32    27    24    1
    33     7    12    1
    34     7     6    1
    35    12    10    1
    36     5     6    1
    37     5     4    1
    38    25    24    2
    39     6     8    1
    40    24    23    1
    41    24    26    1
    42    10     8    1
    43    10    11    1
    44    23     1    1
    45     4     1    1
    46     8     9    1
    47     2     1    2
    48     1     3    1
