@<TRIPOS>MOLECULE
3lt0_FT1_A_1.pdb
 18 19 0 0 0
SMALL
GASTEIGER

@<TRIPOS>ATOM
      1  C1        50.2550   92.1780   34.7550 C.ar  502  FT1502      0.1840
      2  C2        49.3470   92.5250   33.7570 C.ar  502  FT1502      0.2300
      3  C3        49.0350   93.8640   33.5280 C.ar  502  FT1502      0.0485
      4  C4        49.6560   94.8660   34.2830 C.ar  502  FT1502      0.0456
      5  C5        50.5790   94.5130   35.2850 C.ar  502  FT1502      0.0066
      6  C6        50.8820   93.1630   35.5280 C.ar  502  FT1502      0.0409
      7  O7        50.5330   90.8460   34.9580 O.3   502  FT1502     -0.4494
      8  C8        51.5590   90.2400   34.2520 C.ar  502  FT1502      0.1559
      9  C9        51.9150   88.9350   34.5780 C.ar  502  FT1502      0.0929
     10  C10       52.9470   88.2850   33.9080 C.ar  502  FT1502      0.0259
     11  C11       53.6080   88.9750   32.8990 C.ar  502  FT1502      0.0587
     12  C12       53.2680   90.2790   32.5370 C.ar  502  FT1502      0.0146
     13  C13       52.2360   90.9110   33.2240 C.ar  502  FT1502      0.0392
     14  C14       49.3240   96.2910   34.0280 C.2   502  FT1502      0.2343
     15  O15       49.8060   97.1680   34.7360 O.2   502  FT1502     -0.2831
     16 CL1        54.9260   88.1400   32.0550 Cl    502  FT1502     -0.0822
     17 CL9        51.0600   88.0790   35.8920 Cl    502  FT1502     -0.0790
     18  O18       48.7700   91.5310   33.0130 O.3   502  FT1502     -0.2833
@<TRIPOS>BOND
     1    16    11    1
     2    12    11   ar
     3    12    13   ar
     4    11    10   ar
     5    18     2    1
     6    13     8   ar
     7     3     2   ar
     8     3     4   ar
     9     2     1   ar
    10    10     9   ar
    11    14     4    1
    12    14    15    2
    13     8     9   ar
    14     8     7    1
    15     4     5   ar
    16     9    17    1
    17     1     7    1
    18     1     6   ar
    19     5     6   ar
