@<TRIPOS>MOLECULE
3lt1_NAD_A_1.pdb
 44 48 0 0 0
SMALL
GASTEIGER

@<TRIPOS>ATOM
      1  PA        51.1150   88.0790   40.6050 P.3   501  NAD501      0.2189
      2  O1A       52.5890   87.8410   40.3740 O.2   501  NAD501     -0.5170
      3  O2A       50.6040   88.3020   42.0080 O.3   501  NAD501     -0.4371
      4  O5B       50.2870   86.8650   39.9510 O.3   501  NAD501     -0.3112
      5  C5B       50.8440   86.0760   38.9040 C.3   501  NAD501      0.1813
      6  C4B       51.0600   84.6580   39.4160 C.3   501  NAD501      0.1821
      7  O4B       51.0790   83.7060   38.3460 O.3   501  NAD501     -0.3135
      8  C3B       52.3810   84.5030   40.1580 C.3   501  NAD501      0.2184
      9  O3B       52.1130   84.1830   41.5240 O.3   501  NAD501     -0.2174
     10  C2B       53.0890   83.3390   39.4910 C.3   501  NAD501      0.2570
     11  O2B       53.6400   82.4490   40.4650 O.3   501  NAD501     -0.2130
     12  C1B       51.9850   82.6580   38.7010 C.3   501  NAD501      0.3186
     13  N9A       52.5280   81.9270   37.5280 N.pl3 501  NAD501     -0.1439
     14  C8A       53.3970   82.3820   36.6150 C.3   501  NAD501      0.3377
     15  N7A       53.6420   81.4010   35.7110 N.2   501  NAD501     -0.2095
     16  C5A       52.9130   80.3290   36.0750 C.2   501  NAD501      0.2526
     17  C6A       52.7280   78.9570   35.5310 C.2   501  NAD501      0.4393
     18  N6A       53.3790   78.5590   34.4140 N.pl3 501  NAD501      0.2180
     19  N1A       51.8930   78.1220   36.1800 N.2   501  NAD501      0.0021
     20  C2A       51.2550   78.5330   37.2880 C.3   501  NAD501      0.5254
     21  N3A       51.4090   79.7680   37.7990 N.2   501  NAD501     -0.0055
     22  C4A       52.2170   80.6650   37.2200 C.2   501  NAD501      0.3518
     23  O3        50.6670   89.3260   39.6900 O.3   501  NAD501     -0.2703
     24  PN        49.1160   89.6840   39.4490 P.3   501  NAD501      0.2189
     25  O1N       49.0630   91.0850   38.8950 O.2   501  NAD501     -0.5170
     26  O2N       48.3410   89.3460   40.7010 O.3   501  NAD501     -0.4371
     27  O5D       48.6630   88.6670   38.2850 O.3   501  NAD501     -0.3112
     28  C5D       47.3720   88.0570   38.3300 C.3   501  NAD501      0.1813
     29  C4D       46.6350   88.2350   37.0050 C.3   501  NAD501      0.1799
     30  O4D       46.0650   89.5440   36.9100 O.3   501  NAD501     -0.3327
     31  C3D       47.5610   88.0670   35.8100 C.3   501  NAD501      0.2158
     32  O3D       46.9270   87.2050   34.8610 O.3   501  NAD501     -0.2175
     33  C2D       47.6830   89.4550   35.2150 C.3   501  NAD501      0.2309
     34  O2D       47.8120   89.3820   33.7940 O.3   501  NAD501     -0.2158
     35  C1D       46.3730   90.1040   35.6300 C.3   501  NAD501      0.2263
     36  N1N       46.4570   91.5690   35.6810 N.pl3 501  NAD501     -0.2787
     37  C2N       47.3060   92.1900   36.5140 C.3   501  NAD501      0.1244
     38  C3N       47.3800   93.5840   36.5690 C.2   501  NAD501      0.0544
     39  C7N       48.3380   94.2660   37.5050 C.2   501  NAD501      0.2818
     40  O7N       48.4830   95.4770   37.4260 O.2   501  NAD501     -0.2670
     41  N7N       49.0090   93.5440   38.3980 N.am  501  NAD501     -0.0839
     42  C4N       46.5010   94.4450   35.6920 C.2   501  NAD501      0.0033
     43  C5N       45.6330   93.6450   34.8420 C.2   501  NAD501      0.0157
     44  C6N       45.6470   92.2570   34.8740 C.2   501  NAD501      0.0633
@<TRIPOS>BOND
     1    34    33    1
     2    18    17    1
     3    43    44    2
     4    43    42    1
     5    32    31    1
     6    44    36    1
     7    33    35    1
     8    33    31    1
     9    17    16    1
    10    17    19    2
    11    35    36    1
    12    35    30    1
    13    36    37    1
    14    42    38    2
    15    15    16    2
    16    15    14    1
    17    31    29    1
    18    16    22    1
    19    19    20    1
    20    37    38    1
    21    38    39    1
    22    14    13    1
    23    30    29    1
    24    29    28    1
    25    22    13    1
    26    22    21    2
    27    20    21    1
    28    40    39    2
    29    39    41   am
    30    13    12    1
    31    27    28    1
    32    27    24    1
    33     7    12    1
    34     7     6    1
    35    12    10    1
    36    25    24    2
    37     5     6    1
    38     5     4    1
    39     6     8    1
    40    24    23    1
    41    24    26    1
    42    10     8    1
    43    10    11    1
    44    23     1    1
    45     4     1    1
    46     8     9    1
    47     2     1    2
    48     1     3    1
