@<TRIPOS>MOLECULE
3lt1_FT2_A_1.pdb
 18 19 0 0 0
SMALL
GASTEIGER

@<TRIPOS>ATOM
      1  C1        50.2140   92.1480   34.7010 C.ar  502  FT2502      0.1839
      2  C2        49.3780   92.4650   33.6470 C.ar  502  FT2502      0.2296
      3  C3        49.0790   93.7770   33.3580 C.ar  502  FT2502      0.0422
      4  C4        49.6470   94.7830   34.1140 C.ar  502  FT2502     -0.0025
      5  C5        50.5040   94.4850   35.1730 C.ar  502  FT2502      0.0003
      6  C6        50.7940   93.1640   35.4750 C.ar  502  FT2502      0.0405
      7  O7        50.4760   90.8190   34.9310 O.3   502  FT2502     -0.4494
      8  C8        51.5310   90.2400   34.2660 C.ar  502  FT2502      0.1559
      9  C9        51.9240   88.9460   34.5880 C.ar  502  FT2502      0.0929
     10  C10       53.0000   88.3610   33.9500 C.ar  502  FT2502      0.0259
     11  C11       53.6710   89.0980   32.9930 C.ar  502  FT2502      0.0587
     12  C12       53.3010   90.3930   32.6450 C.ar  502  FT2502      0.0146
     13  C13       52.2260   90.9700   33.2900 C.ar  502  FT2502      0.0392
     14  C14       49.3010   96.1910   33.7430 C.3   502  FT2502      0.1212
     15 CL15       49.3140   97.1430   35.2340 Cl    502  FT2502     -0.1085
     16 CL16       55.0380   88.3060   32.1870 Cl    502  FT2502     -0.0822
     17 CL17       51.1000   87.9770   35.8470 Cl    502  FT2502     -0.0790
     18  O18       48.8470   91.4810   32.8970 O.3   502  FT2502     -0.2833
@<TRIPOS>BOND
     1    16    11    1
     2    12    11   ar
     3    12    13   ar
     4    18     2    1
     5    11    10   ar
     6    13     8   ar
     7     3     2   ar
     8     3     4   ar
     9     2     1   ar
    10    14     4    1
    11    14    15    1
    12    10     9   ar
    13     4     5   ar
    14     8     9   ar
    15     8     7    1
    16     9    17    1
    17     1     7    1
    18     1     6   ar
    19     5     6   ar
