@<TRIPOS>MOLECULE
3lt2_FT3_A_1.pdb
 18 19 0 0 0
SMALL
GASTEIGER

@<TRIPOS>ATOM
      1  C1        50.0520   92.3230   34.7530 C.ar  502  FT3502      0.1839
      2  C2        49.1900   92.6950   33.7270 C.ar  502  FT3502      0.2296
      3  C3        48.8970   94.0370   33.5040 C.ar  502  FT3502      0.0435
      4  C4        49.4660   95.0280   34.2980 C.ar  502  FT3502      0.0140
      5  C5        50.3470   94.6570   35.3230 C.ar  502  FT3502      0.0016
      6  C6        50.6370   93.3120   35.5530 C.ar  502  FT3502      0.0406
      7  O7        50.3290   90.9770   34.9380 O.3   502  FT3502     -0.4494
      8  C8        51.3580   90.3700   34.2400 C.ar  502  FT3502      0.1559
      9  C9        51.7250   89.0610   34.5450 C.ar  502  FT3502      0.0929
     10  C10       52.7630   88.4470   33.8680 C.ar  502  FT3502      0.0259
     11  C11       53.4430   89.1520   32.8860 C.ar  502  FT3502      0.0587
     12  C12       53.1020   90.4640   32.5550 C.ar  502  FT3502      0.0146
     13  C13       52.0540   91.0660   33.2370 C.ar  502  FT3502      0.0392
     14  C14       49.1080   96.4720   34.0060 C.3   502  FT3502      0.2087
     15  O15       49.3340   97.3220   35.1410 O.3   502  FT3502     -0.2152
     16 CL16       54.7750   88.3100   32.0500 Cl    502  FT3502     -0.0822
     17 CL17       50.8990   88.1110   35.8180 Cl    502  FT3502     -0.0790
     18  O18       48.6430   91.7360   32.9300 O.3   502  FT3502     -0.2833
@<TRIPOS>BOND
     1    16    11    1
     2    12    11   ar
     3    12    13   ar
     4    11    10   ar
     5    18     2    1
     6    13     8   ar
     7     3     2   ar
     8     3     4   ar
     9     2     1   ar
    10    10     9   ar
    11    14     4    1
    12    14    15    1
    13     8     9   ar
    14     8     7    1
    15     4     5   ar
    16     9    17    1
    17     1     7    1
    18     1     6   ar
    19     5     6   ar
