@<TRIPOS>MOLECULE
3lt2_NAD_A_1.pdb
 44 48 0 0 0
SMALL
GASTEIGER

@<TRIPOS>ATOM
      1  PA        50.9630   88.1480   40.6070 P.3   501  NAD501      0.2189
      2  O1A       52.4290   87.9420   40.3060 O.2   501  NAD501     -0.5170
      3  O2A       50.5200   88.2920   42.0400 O.3   501  NAD501     -0.4371
      4  O5B       50.1550   86.9390   39.9150 O.3   501  NAD501     -0.3112
      5  C5B       50.7140   86.2060   38.8240 C.3   501  NAD501      0.1813
      6  C4B       50.8940   84.7500   39.2370 C.3   501  NAD501      0.1821
      7  O4B       50.9600   83.8430   38.1260 O.3   501  NAD501     -0.3135
      8  C3B       52.1930   84.5720   40.0110 C.3   501  NAD501      0.2184
      9  O3B       51.8930   84.2030   41.3600 O.3   501  NAD501     -0.2174
     10  C2B       52.9270   83.4430   39.3190 C.3   501  NAD501      0.2570
     11  O2B       53.4910   82.5580   40.2890 O.3   501  NAD501     -0.2130
     12  C1B       51.8380   82.7740   38.4920 C.3   501  NAD501      0.3186
     13  N9A       52.3850   82.0550   37.3160 N.pl3 501  NAD501     -0.1439
     14  C8A       53.2330   82.5360   36.3890 C.3   501  NAD501      0.3377
     15  N7A       53.4880   81.5620   35.4830 N.2   501  NAD501     -0.2095
     16  C5A       52.7940   80.4640   35.8550 C.2   501  NAD501      0.2526
     17  C6A       52.6370   79.0930   35.3110 C.2   501  NAD501      0.4393
     18  N6A       53.2760   78.6990   34.1800 N.pl3 501  NAD501      0.2180
     19  N1A       51.8280   78.2370   35.9800 N.2   501  NAD501      0.0021
     20  C2A       51.1890   78.6270   37.0970 C.3   501  NAD501      0.5254
     21  N3A       51.3250   79.8650   37.6000 N.2   501  NAD501     -0.0055
     22  C4A       52.1060   80.7860   37.0080 C.2   501  NAD501      0.3518
     23  O3        50.4730   89.4470   39.7900 O.3   501  NAD501     -0.2703
     24  PN        48.9250   89.7520   39.4510 P.3   501  NAD501      0.2189
     25  O1N       48.8420   91.0990   38.7710 O.2   501  NAD501     -0.5170
     26  O2N       48.0950   89.5010   40.6900 O.3   501  NAD501     -0.4371
     27  O5D       48.5400   88.6440   38.3480 O.3   501  NAD501     -0.3112
     28  C5D       47.2480   88.0340   38.3700 C.3   501  NAD501      0.1813
     29  C4D       46.5060   88.2650   37.0540 C.3   501  NAD501      0.1799
     30  O4D       45.9700   89.5940   36.9990 O.3   501  NAD501     -0.3327
     31  C3D       47.4180   88.0850   35.8430 C.3   501  NAD501      0.2158
     32  O3D       46.7580   87.2650   34.8690 O.3   501  NAD501     -0.2175
     33  C2D       47.5720   89.4840   35.2870 C.3   501  NAD501      0.2309
     34  O2D       47.7260   89.4500   33.8670 O.3   501  NAD501     -0.2158
     35  C1D       46.2640   90.1360   35.7110 C.3   501  NAD501      0.2263
     36  N1N       46.3170   91.6030   35.7460 N.pl3 501  NAD501     -0.2787
     37  C2N       47.1440   92.2630   36.5680 C.3   501  NAD501      0.1244
     38  C3N       47.1660   93.6540   36.5830 C.2   501  NAD501      0.0544
     39  C7N       48.0880   94.3890   37.4990 C.2   501  NAD501      0.2818
     40  O7N       48.2320   95.5940   37.3360 O.2   501  NAD501     -0.2670
     41  N7N       48.7040   93.7070   38.4570 N.am  501  NAD501     -0.0839
     42  C4N       46.2780   94.4780   35.6930 C.2   501  NAD501      0.0033
     43  C5N       45.4280   93.6430   34.8570 C.2   501  NAD501      0.0157
     44  C6N       45.4870   92.2570   34.9240 C.2   501  NAD501      0.0633
@<TRIPOS>BOND
     1    34    33    1
     2    18    17    1
     3    43    44    2
     4    43    42    1
     5    32    31    1
     6    44    36    1
     7    33    35    1
     8    33    31    1
     9    17    16    1
    10    17    19    2
    11    15    16    2
    12    15    14    1
    13    42    38    2
    14    35    36    1
    15    35    30    1
    16    36    37    1
    17    31    29    1
    18    16    22    1
    19    19    20    1
    20    14    13    1
    21    37    38    1
    22    38    39    1
    23    30    29    1
    24    22    13    1
    25    22    21    2
    26    29    28    1
    27    20    21    1
    28    13    12    1
    29    40    39    2
    30    39    41   am
    31     7    12    1
    32     7     6    1
    33    27    28    1
    34    27    24    1
    35    12    10    1
    36    25    24    2
    37     5     6    1
    38     5     4    1
    39     6     8    1
    40    10     8    1
    41    10    11    1
    42    24    23    1
    43    24    26    1
    44    23     1    1
    45     4     1    1
    46     8     9    1
    47     2     1    2
    48     1     3    1
