@<TRIPOS>MOLECULE
3lt4_NAD_A_1.pdb
 44 48 0 0 0
SMALL
GASTEIGER

@<TRIPOS>ATOM
      1  PA        51.2070   87.8800   40.5160 P.3   501  NAD501      0.2189
      2  O1A       52.6770   87.6140   40.3050 O.2   501  NAD501     -0.5170
      3  O2A       50.6590   88.1250   41.9000 O.3   501  NAD501     -0.4371
      4  O5B       50.3630   86.6790   39.8600 O.3   501  NAD501     -0.3112
      5  C5B       50.9150   85.8810   38.8120 C.3   501  NAD501      0.1813
      6  C4B       51.1800   84.4830   39.3540 C.3   501  NAD501      0.1821
      7  O4B       51.2050   83.5230   38.2940 O.3   501  NAD501     -0.3135
      8  C3B       52.5190   84.3810   40.0740 C.3   501  NAD501      0.2184
      9  O3B       52.3060   84.0690   41.4530 O.3   501  NAD501     -0.2174
     10  C2B       53.2520   83.2390   39.3980 C.3   501  NAD501      0.2570
     11  O2B       53.8720   82.3840   40.3590 O.3   501  NAD501     -0.2130
     12  C1B       52.1430   82.5130   38.6580 C.3   501  NAD501      0.3186
     13  N9A       52.6730   81.7690   37.4850 N.pl3 501  NAD501     -0.1439
     14  C8A       53.5600   82.1940   36.5730 C.3   501  NAD501      0.3377
     15  N7A       53.7760   81.2040   35.6690 N.2   501  NAD501     -0.2095
     16  C5A       53.0100   80.1570   36.0320 C.2   501  NAD501      0.2526
     17  C6A       52.7750   78.7900   35.4910 C.2   501  NAD501      0.4393
     18  N6A       53.4130   78.3600   34.3740 N.pl3 501  NAD501      0.2180
     19  N1A       51.9090   77.9860   36.1380 N.2   501  NAD501      0.0021
     20  C2A       51.2800   78.4160   37.2410 C.3   501  NAD501      0.5254
     21  N3A       51.4770   79.6450   37.7470 N.2   501  NAD501     -0.0055
     22  C4A       52.3180   80.5160   37.1760 C.2   501  NAD501      0.3518
     23  O3        50.8290   89.1410   39.5930 O.3   501  NAD501     -0.2703
     24  PN        49.2910   89.5130   39.2790 P.3   501  NAD501      0.2189
     25  O1N       49.2810   90.8780   38.6280 O.2   501  NAD501     -0.5170
     26  O2N       48.4790   89.2680   40.5270 O.3   501  NAD501     -0.4371
     27  O5D       48.8680   88.4200   38.1750 O.3   501  NAD501     -0.3112
     28  C5D       47.5920   87.7900   38.2610 C.3   501  NAD501      0.1813
     29  C4D       46.8020   88.0000   36.9750 C.3   501  NAD501      0.1799
     30  O4D       46.1980   89.2980   36.9450 O.3   501  NAD501     -0.3327
     31  C3D       47.6860   87.8950   35.7380 C.3   501  NAD501      0.2158
     32  O3D       47.0790   87.0050   34.8010 O.3   501  NAD501     -0.2175
     33  C2D       47.7130   89.2960   35.1630 C.3   501  NAD501      0.2309
     34  O2D       47.7870   89.2690   33.7350 O.3   501  NAD501     -0.2158
     35  C1D       46.4010   89.8760   35.6530 C.3   501  NAD501      0.2263
     36  N1N       46.4460   91.3380   35.6830 N.pl3 501  NAD501     -0.2787
     37  C2N       47.2620   91.9890   36.5260 C.3   501  NAD501      0.1244
     38  C3N       47.3080   93.3820   36.5550 C.2   501  NAD501      0.0544
     39  C7N       48.2300   94.0880   37.5060 C.2   501  NAD501      0.2818
     40  O7N       48.4110   95.2880   37.3680 O.2   501  NAD501     -0.2670
     41  N7N       48.8260   93.3910   38.4700 N.am  501  NAD501     -0.0839
     42  C4N       46.4440   94.2220   35.6400 C.2   501  NAD501      0.0033
     43  C5N       45.6100   93.3900   34.7810 C.2   501  NAD501      0.0157
     44  C6N       45.6470   92.0020   34.8400 C.2   501  NAD501      0.0633
@<TRIPOS>BOND
     1    34    33    1
     2    18    17    1
     3    43    44    2
     4    43    42    1
     5    32    31    1
     6    44    36    1
     7    33    35    1
     8    33    31    1
     9    17    16    1
    10    17    19    2
    11    42    38    2
    12    35    36    1
    13    35    30    1
    14    15    16    2
    15    15    14    1
    16    36    37    1
    17    31    29    1
    18    16    22    1
    19    19    20    1
    20    37    38    1
    21    38    39    1
    22    14    13    1
    23    30    29    1
    24    29    28    1
    25    22    13    1
    26    22    21    2
    27    20    21    1
    28    40    39    2
    29    13    12    1
    30    39    41   am
    31    27    28    1
    32    27    24    1
    33     7    12    1
    34     7     6    1
    35    25    24    2
    36    12    10    1
    37     5     6    1
    38     5     4    1
    39    24    23    1
    40    24    26    1
    41     6     8    1
    42    10     8    1
    43    10    11    1
    44    23     1    1
    45     4     1    1
    46     8     9    1
    47     2     1    2
    48     1     3    1
