@<TRIPOS>MOLECULE
3lt4_FB4_A_1.pdb
 17 18 0 0 0
SMALL
GASTEIGER

@<TRIPOS>ATOM
      1  C1        50.2660   91.9980   34.7950 C.ar  502  FB4502      0.1840
      2  C2        49.4240   92.3800   33.7550 C.ar  502  FB4502      0.2307
      3  C3        49.1220   93.7240   33.5640 C.ar  502  FB4502      0.0566
      4  C4        49.6980   94.6570   34.4180 C.ar  502  FB4502      0.0611
      5  C5        50.5540   94.2820   35.4620 C.ar  502  FB4502      0.0147
      6  C6        50.8460   92.9360   35.6620 C.ar  502  FB4502      0.0417
      7  O7        50.5480   90.6800   34.9700 O.3   502  FB4502     -0.4489
      8  C8        51.5400   90.0840   34.2450 C.ar  502  FB4502      0.1621
      9  C9        51.8860   88.7860   34.5920 C.ar  502  FB4502      0.1243
     10  C10       52.9110   88.1810   33.8770 C.ar  502  FB4502      0.0326
     11  C11       53.5530   88.8680   32.8460 C.ar  502  FB4502      0.0592
     12  C12       53.1990   90.1740   32.4890 C.ar  502  FB4502      0.0146
     13  C13       52.1890   90.7860   33.2080 C.ar  502  FB4502      0.0398
     14 CL14       49.2940   96.3750   34.1530 Cl    502  FB4502     -0.0821
     15 CL15       54.8530   88.0220   31.9550 Cl    502  FB4502     -0.0822
     16  N16       51.2620   88.1260   35.6220 N.pl3 502  FB4502     -0.1248
     17  O17       48.9000   91.4590   32.9060 O.3   502  FB4502     -0.2833
@<TRIPOS>BOND
     1    15    11    1
     2    12    11   ar
     3    12    13   ar
     4    11    10   ar
     5    17     2    1
     6    13     8   ar
     7     3     2   ar
     8     3     4   ar
     9     2     1   ar
    10    10     9   ar
    11    14     4    1
    12     8     9   ar
    13     8     7    1
    14     4     5   ar
    15     9    16    1
    16     1     7    1
    17     1     6   ar
    18     5     6   ar
