@<TRIPOS>MOLECULE
3lt5_BLQ_A_1.pdb
 26 27 0 0 0
SMALL
GASTEIGER

@<TRIPOS>ATOM
      1  CAA      -37.8260  -14.1880   -3.3390 C.ar  215  BLQ215      0.0895
      2  CAB      -37.3250  -14.9880   -2.1040 C.ar  215  BLQ215      0.0213
      3  CAC      -36.3660  -16.0010   -2.2520 C.ar  215  BLQ215      0.0436
      4  CAD      -35.7290  -16.2380   -3.5910 C.ar  215  BLQ215      0.2021
      5  CAE      -36.1310  -15.3680   -4.7790 C.ar  215  BLQ215      0.1199
      6  CAF      -37.0950  -14.3410   -4.6240 C.ar  215  BLQ215      0.0279
      7  CAG      -41.8810  -12.2580   -1.6560 C.ar  215  BLQ215      0.0182
      8  CAH      -35.5070  -15.6050   -6.1060 C.2   215  BLQ215      0.3909
      9  CAI      -44.4010  -13.7230    0.8660 C.2   215  BLQ215      0.2648
     10  CAJ      -45.1930  -14.6170    3.1350 C.3   215  BLQ215      0.1273
     11  CAK      -44.9340  -14.6980    5.7540 C.2   215  BLQ215      0.3667
     12  CAL      -44.3500  -14.3380    4.3860 C.3   215  BLQ215      0.1374
     13  CAM      -40.7030  -13.1500   -1.4580 C.ar  215  BLQ215      0.0891
     14  CAN      -40.7700  -14.2000   -0.5030 C.ar  215  BLQ215      0.0182
     15  CAO      -41.9300  -14.4130    0.2520 C.ar  215  BLQ215      0.0059
     16  CAP      -43.1330  -13.5030    0.0490 C.ar  215  BLQ215      0.0551
     17  CAQ      -43.0750  -12.4760   -0.8780 C.ar  215  BLQ215      0.0059
     18  NAR      -39.4620  -12.9520   -2.2240 N.pl3 215  BLQ215     -0.1281
     19  NAS      -39.1750  -13.6690   -3.3650 N.pl3 215  BLQ215     -0.1281
     20  NAT      -44.4760  -14.8100    1.8500 N.am  215  BLQ215     -0.2011
     21  OAU      -34.7560  -17.2330   -3.7350 O.3   215  BLQ215     -0.2863
     22  OAV      -35.8550  -14.8060   -7.1880 O.co2 215  BLQ215     -0.2404
     23  OAW      -34.5650  -16.5930   -6.2320 O.co2 215  BLQ215     -0.2404
     24  OAX      -44.2640  -14.3260    6.9200 O.co2 215  BLQ215     -0.2456
     25  OAY      -45.4990  -12.8730    0.6630 O.2   215  BLQ215     -0.2684
     26  OAZ      -46.1330  -15.3980    5.8360 O.co2 215  BLQ215     -0.2456
@<TRIPOS>BOND
     1    22     8   ar
     2    23     8   ar
     3     8     5    1
     4     5     6   ar
     5     5     4   ar
     6     6     1   ar
     7    21     4    1
     8     4     3   ar
     9    19     1    1
    10    19    18    1
    11     1     2   ar
    12     3     2   ar
    13    18    13    1
    14     7    13   ar
    15     7    17   ar
    16    13    14   ar
    17    17    16   ar
    18    14    15   ar
    19    16    15   ar
    20    16     9    1
    21    25     9    2
    22     9    20   am
    23    20    10    1
    24    10    12    1
    25    12    11    1
    26    11    26   ar
    27    11    24   ar
