@<TRIPOS>MOLECULE
3lt5_FMN_A_1.pdb
 31 33 0 0 0
SMALL
GASTEIGER

@<TRIPOS>ATOM
      1  N1       -21.8900  -11.8330   20.6420 N.2   213  FMN213     -0.2887
      2  C2       -23.0320  -11.0500   20.6150 C.1   213  FMN213      0.3669
      3  O2       -23.8130  -11.0120   21.5750 O.2   213  FMN213     -0.1744
      4  N3       -23.3070  -10.2930   19.5020 N.2   213  FMN213     -0.2300
      5  C4       -22.4700  -10.3000   18.4050 C.1   213  FMN213      0.2513
      6  O4       -22.7500   -9.6190   17.4110 O.2   213  FMN213     -0.2057
      7  C4A      -21.3110  -11.0750   18.4260 C.2   213  FMN213      0.2706
      8  N5       -20.4530  -11.0760   17.3340 N.2   213  FMN213     -0.3841
      9  C5A      -19.3140  -11.8680   17.3680 C.2   213  FMN213      0.1452
     10  C6       -18.4530  -11.8930   16.2640 C.2   213  FMN213      0.0252
     11  C7       -17.3100  -12.6810   16.2850 C.2   213  FMN213     -0.0375
     12  C7M      -16.4040  -12.6940   15.0790 C.3   213  FMN213      0.0268
     13  C8       -17.0180  -13.4550   17.4150 C.3   213  FMN213      0.0417
     14  C8M      -15.7840  -14.3170   17.4400 C.3   213  FMN213      0.0091
     15  C9       -17.8780  -13.4410   18.5190 C.2   213  FMN213     -0.0049
     16  C9A      -19.0340  -12.6510   18.4900 C.2   213  FMN213      0.0795
     17  N10      -19.8810  -12.6220   19.5840 N.pl3 213  FMN213     -0.2545
     18  C10      -21.0280  -11.8500   19.5560 C.2   213  FMN213      0.2449
     19  C1'      -19.5780  -13.4730   20.7870 C.3   213  FMN213      0.1336
     20  C2'      -20.0880  -14.8820   20.4510 C.3   213  FMN213      0.2048
     21  O2'      -21.4270  -14.8470   20.0010 O.3   213  FMN213     -0.2185
     22  C3'      -19.9970  -15.8430   21.6220 C.3   213  FMN213      0.2165
     23  O3'      -18.6420  -15.9160   22.0340 O.3   213  FMN213     -0.2175
     24  C4'      -20.5220  -17.2210   21.1970 C.3   213  FMN213      0.2147
     25  O4'      -20.6870  -18.0400   22.3300 O.3   213  FMN213     -0.2176
     26  C5'      -19.5860  -17.9530   20.2330 C.3   213  FMN213      0.1892
     27  O5'      -20.2110  -19.1540   19.8180 O.3   213  FMN213     -0.2674
     28  P        -19.5440  -20.5840   20.1470 P.3   213  FMN213      0.5327
     29  O1P      -19.2690  -20.6550   21.6410 O.3   213  FMN213     -0.1145
     30  O2P      -18.2220  -20.7090   19.4020 O.2   213  FMN213     -0.2224
     31  O3P      -20.4830  -21.6950   19.7340 O.3   213  FMN213     -0.1145
@<TRIPOS>BOND
     1    12    11    1
     2    10    11    2
     3    10     9    1
     4    11    13    1
     5     8     9    2
     6     8     7    2
     7     9    16    1
     8     6     5    2
     9    13    14    1
    10    13    15    1
    11     5     7    1
    12     5     4    2
    13     7    18    1
    14    16    15    2
    15    16    17    1
    16    30    28    2
    17     4     2    2
    18    18    17    1
    19    18     1    2
    20    17    19    1
    21    31    28    1
    22    27    28    1
    23    27    26    1
    24    21    20    1
    25    28    29    1
    26    26    24    1
    27    20    19    1
    28    20    22    1
    29     2     1    2
    30     2     3    2
    31    24    22    1
    32    24    25    1
    33    22    23    1
