@<TRIPOS>MOLECULE
3lt8_ADP_A_1.pdb
 27 29 0 0 0
SMALL
GASTEIGER

@<TRIPOS>ATOM
      1  PB        20.8450  -13.8260   17.1270 P.3    81  ADP81       0.5373
      2  O1B       20.5070  -15.3040   17.3840 O.3    81  ADP81      -0.1143
      3  O2B       21.2290  -13.5670   15.6660 O.2    81  ADP81      -0.2221
      4  O3B       19.8700  -12.7830   17.6540 O.3    81  ADP81      -0.1143
      5  PA        23.5600  -14.3420   17.9010 P.3    81  ADP81       0.2231
      6  O1A       24.2580  -13.6270   16.7800 O.2    81  ADP81      -0.5169
      7  O2A       23.2640  -15.8340   17.8220 O.3    81  ADP81      -0.4370
      8  O3A       22.1460  -13.5820   18.1120 O.3    81  ADP81      -0.2261
      9  O5'       24.3620  -14.0430   19.2650 O.3    81  ADP81      -0.3111
     10  C5'       24.3760  -14.9310   20.4010 C.3    81  ADP81       0.1813
     11  C4'       25.0730  -14.2360   21.5930 C.3    81  ADP81       0.1821
     12  O4'       26.3510  -14.8100   21.9090 O.3    81  ADP81      -0.3135
     13  C3'       25.4360  -12.7950   21.2960 C.3    81  ADP81       0.2184
     14  O3'       25.7490  -12.1890   22.5490 O.3    81  ADP81      -0.2174
     15  C2'       26.7590  -12.9320   20.5990 C.3    81  ADP81       0.2570
     16  O2'       27.4760  -11.7010   20.6840 O.3    81  ADP81      -0.2130
     17  C1'       27.4420  -14.0200   21.4170 C.3    81  ADP81       0.3186
     18  N9        28.3560  -14.7870   20.5200 N.pl3  81  ADP81      -0.1439
     19  C8        27.9690  -15.7310   19.6320 C.3    81  ADP81       0.3377
     20  N7        29.0150  -16.2410   18.9410 N.2    81  ADP81      -0.2095
     21  C5        30.1290  -15.5940   19.3870 C.2    81  ADP81       0.2526
     22  C6        31.5830  -15.6430   19.0800 C.2    81  ADP81       0.4393
     23  N6        32.1050  -16.4910   18.1390 N.pl3  81  ADP81       0.2180
     24  N1        32.3880  -14.8290   19.7800 N.2    81  ADP81       0.0021
     25  C2        31.9120  -13.9790   20.7110 C.3    81  ADP81       0.5254
     26  N3        30.6200  -13.8740   21.0350 N.2    81  ADP81      -0.0055
     27  C4        29.6900  -14.6490   20.4230 C.2    81  ADP81       0.3518
@<TRIPOS>BOND
     1     3     1    2
     2     6     5    2
     3     1     2    1
     4     1     4    1
     5     1     8    1
     6     7     5    1
     7     5     8    1
     8     5     9    1
     9    23    22    1
    10    20    21    2
    11    20    19    1
    12    22    21    1
    13    22    24    2
    14     9    10    1
    15    21    27    1
    16    19    18    1
    17    24    25    1
    18    10    11    1
    19    27    18    1
    20    27    26    2
    21    18    17    1
    22    15    16    1
    23    15    13    1
    24    15    17    1
    25    25    26    1
    26    13    11    1
    27    13    14    1
    28    17    12    1
    29    11    12    1
