@<TRIPOS>MOLECULE
3lta_ATP_A_1.pdb
 31 33 0 0 0
SMALL
GASTEIGER

@<TRIPOS>ATOM
      1  PG        20.6170  -14.6910   17.0940 P.3    81  ATP81       0.5373
      2  O1G       22.0810  -14.2860   17.2020 O.3    81  ATP81      -0.1143
      3  O2G       19.7640  -13.6780   16.3650 O.2    81  ATP81      -0.2221
      4  O3G       20.3960  -16.1330   16.6840 O.3    81  ATP81      -0.1143
      5  PB        20.8430  -15.4650   19.8150 P.3    81  ATP81       0.2277
      6  O1B       21.2290  -16.8450   19.3090 O.2    81  ATP81      -0.5168
      7  O2B       20.1250  -15.2900   21.1370 O.3    81  ATP81      -0.4368
      8  O3B       20.0840  -14.6600   18.6270 O.3    81  ATP81      -0.2258
      9  PA        23.4800  -15.1770   19.1880 P.3    81  ATP81       0.2189
     10  O1A       23.8700  -14.2050   18.0890 O.2    81  ATP81      -0.5170
     11  O2A       23.2280  -16.6430   18.9150 O.3    81  ATP81      -0.4371
     12  O3A       22.1750  -14.5810   19.8960 O.3    81  ATP81      -0.2700
     13  O5'       24.4800  -15.1140   20.4480 O.3    81  ATP81      -0.3112
     14  C5'       24.0240  -14.9230   21.7960 C.3    81  ATP81       0.1813
     15  C4'       25.0340  -14.0320   22.5480 C.3    81  ATP81       0.1821
     16  O4'       26.3800  -14.5630   22.5630 O.3    81  ATP81      -0.3135
     17  C3'       25.2030  -12.6750   21.8920 C.3    81  ATP81       0.2184
     18  O3'       25.7470  -11.8090   22.8950 O.3    81  ATP81      -0.2174
     19  C2'       26.3390  -12.9000   20.9390 C.3    81  ATP81       0.2570
     20  O2'       26.9380  -11.6540   20.5870 O.3    81  ATP81      -0.2130
     21  C1'       27.2750  -13.7260   21.8050 C.3    81  ATP81       0.3186
     22  N9        28.1910  -14.5220   20.9420 N.pl3  81  ATP81      -0.1439
     23  C8        27.7760  -15.4840   20.0990 C.3    81  ATP81       0.3377
     24  N7        28.8060  -16.0370   19.4160 N.2    81  ATP81      -0.2095
     25  C5        29.9280  -15.4240   19.8140 C.2    81  ATP81       0.2526
     26  C6        31.3630  -15.5390   19.4850 C.2    81  ATP81       0.4393
     27  N6        31.7990  -16.4420   18.5760 N.pl3  81  ATP81       0.2180
     28  N1        32.2180  -14.7110   20.1270 N.2    81  ATP81       0.0021
     29  C2        31.8030  -13.8110   21.0320 C.3    81  ATP81       0.5254
     30  N3        30.5170  -13.6640   21.3650 N.2    81  ATP81      -0.0055
     31  C4        29.5330  -14.4230   20.8150 C.2    81  ATP81       0.3518
@<TRIPOS>BOND
     1     3     1    2
     2     4     1    1
     3     1     2    1
     4     1     8    1
     5    10     9    2
     6    27    26    1
     7     8     5    1
     8    11     9    1
     9     9    12    1
    10     9    13    1
    11     6     5    2
    12    24    25    2
    13    24    23    1
    14    26    25    1
    15    26    28    2
    16    25    31    1
    17     5    12    1
    18     5     7    1
    19    23    22    1
    20    28    29    1
    21    13    14    1
    22    20    19    1
    23    31    22    1
    24    31    30    2
    25    19    21    1
    26    19    17    1
    27    22    21    1
    28    29    30    1
    29    14    15    1
    30    21    16    1
    31    17    15    1
    32    17    18    1
    33    15    16    1
