@<TRIPOS>MOLECULE
3ltb_ADP_A_1.pdb
 27 29 0 0 0
SMALL
GASTEIGER

@<TRIPOS>ATOM
      1  PB        22.6330  -11.7000  -17.1860 P.3    81  ADP81       0.5373
      2  O1B       21.1320  -11.9620  -17.2710 O.3    81  ADP81      -0.1143
      3  O2B       23.1660  -10.5580  -18.0380 O.2    81  ADP81      -0.2221
      4  O3B       23.1390  -11.7070  -15.7460 O.3    81  ADP81      -0.1143
      5  PA        24.6540  -13.6560  -17.4040 P.3    81  ADP81       0.2231
      6  O1A       24.2930  -14.7150  -16.4030 O.3    81  ADP81      -0.4370
      7  O2A       25.6450  -12.5740  -16.9990 O.2    81  ADP81      -0.5169
      8  O3A       23.3230  -12.9520  -17.9710 O.3    81  ADP81      -0.2261
      9  O5'       25.0970  -14.4850  -18.7270 O.3    81  ADP81      -0.3111
     10  C5'       25.3920  -13.8960  -20.0080 C.3    81  ADP81       0.1813
     11  C4'       25.4140  -14.9500  -21.1370 C.3    81  ADP81       0.1821
     12  O4'       26.6640  -15.6730  -21.2110 O.3    81  ADP81      -0.3135
     13  C3'       24.3980  -16.0620  -20.9100 C.3    81  ADP81       0.2184
     14  O3'       24.1060  -16.6280  -22.1940 O.3    81  ADP81      -0.2174
     15  C2'       25.1810  -17.0740  -20.1170 C.3    81  ADP81       0.2570
     16  O2'       24.6160  -18.3640  -20.2470 O.3    81  ADP81      -0.2130
     17  C1'       26.5000  -17.0530  -20.8450 C.3    81  ADP81       0.3186
     18  N9        27.5780  -17.5130  -19.9310 N.pl3  81  ADP81      -0.1439
     19  C8        28.1960  -16.7460  -19.0020 C.3    81  ADP81       0.3377
     20  N7        29.1330  -17.4610  -18.3320 N.2    81  ADP81      -0.2095
     21  C5        29.1100  -18.7220  -18.8220 C.2    81  ADP81       0.2526
     22  C6        29.8520  -19.9620  -18.5650 C.2    81  ADP81       0.4393
     23  N6        30.8140  -20.0270  -17.6060 N.pl3  81  ADP81       0.2180
     24  N1        29.5420  -21.0330  -19.3250 N.2    81  ADP81       0.0021
     25  C2        28.5910  -21.0170  -20.2770 C.3    81  ADP81       0.5254
     26  N3        27.8910  -19.9230  -20.5530 N.2    81  ADP81      -0.0055
     27  C4        28.0980  -18.7640  -19.8730 C.2    81  ADP81       0.3518
@<TRIPOS>BOND
     1    14    13    1
     2    12    11    1
     3    12    17    1
     4    11    13    1
     5    11    10    1
     6    13    15    1
     7    17    15    1
     8    17    18    1
     9    26    25    1
    10    26    27    2
    11    25    24    1
    12    16    15    1
    13    10     9    1
    14    18    27    1
    15    18    19    1
    16    27    21    1
    17    24    22    2
    18    19    20    1
    19    21    22    1
    20    21    20    2
    21     9     5    1
    22    22    23    1
    23     3     1    2
    24     8     5    1
    25     8     1    1
    26     5     7    2
    27     5     6    1
    28     2     1    1
    29     1     4    1
