@<TRIPOS>MOLECULE
3ltc_ATP_A_1.pdb
 31 33 0 0 0
SMALL
GASTEIGER

@<TRIPOS>ATOM
      1  PG        25.2550  -13.1710    8.7900 P.3    81  ATP81       0.5373
      2  O1G       25.0850  -11.8500    9.5200 O.3    81  ATP81      -0.1143
      3  O2G       25.4680  -14.3780    9.6880 O.3    81  ATP81      -0.1143
      4  O3G       24.2080  -13.3570    7.7070 O.2    81  ATP81      -0.2221
      5  PB        26.9460  -11.8300    6.9040 P.3    81  ATP81       0.2277
      6  O1B       27.4670  -10.6310    7.6590 O.3    81  ATP81      -0.4368
      7  O2B       25.7090  -11.7090    6.0410 O.2    81  ATP81      -0.5168
      8  O3B       26.6640  -12.9890    8.0010 O.3    81  ATP81      -0.2258
      9  PA        29.5430  -13.0540    6.3950 P.3    81  ATP81       0.2189
     10  O1A       29.7510  -13.0490    7.8880 O.3    81  ATP81      -0.4371
     11  O2A       30.6600  -12.6190    5.4840 O.2    81  ATP81      -0.5170
     12  O3A       28.1530  -12.3320    5.9440 O.3    81  ATP81      -0.2700
     13  O5'       29.2120  -14.6000    6.0160 O.3    81  ATP81      -0.3112
     14  C5'       28.7500  -15.0160    4.7320 C.3    81  ATP81       0.1813
     15  C4'       27.7590  -16.1490    4.9890 C.3    81  ATP81       0.1821
     16  O4'       28.4520  -17.2200    5.6480 O.3    81  ATP81      -0.3135
     17  C3'       26.6440  -15.7310    5.9420 C.3    81  ATP81       0.2184
     18  O3'       25.4830  -16.4080    5.4980 O.3    81  ATP81      -0.2174
     19  C2'       27.0680  -16.3400    7.2710 C.3    81  ATP81       0.2570
     20  O2'       25.9510  -16.7220    8.0430 O.3    81  ATP81      -0.2130
     21  C1'       27.7640  -17.6040    6.8350 C.3    81  ATP81       0.3186
     22  N9        28.7370  -18.0570    7.8490 N.pl3  81  ATP81      -0.1439
     23  C8        29.3710  -17.3000    8.7740 C.3    81  ATP81       0.3377
     24  N7        30.2190  -18.0550    9.5210 N.2    81  ATP81      -0.2095
     25  C5        30.0980  -19.3270    9.0320 C.2    81  ATP81       0.2526
     26  C6        30.7010  -20.6190    9.3230 C.2    81  ATP81       0.4393
     27  N6        31.5820  -20.7030   10.3500 N.pl3  81  ATP81       0.2180
     28  N1        30.3030  -21.6990    8.5910 N.2    81  ATP81       0.0021
     29  C2        29.4120  -21.6160    7.5820 C.3    81  ATP81       0.5254
     30  N3        28.8400  -20.4460    7.2450 N.2    81  ATP81      -0.0055
     31  C4        29.1390  -19.3160    7.9310 C.2    81  ATP81       0.3518
@<TRIPOS>BOND
     1    14    15    1
     2    14    13    1
     3    15    16    1
     4    15    17    1
     5    11     9    2
     6    18    17    1
     7    16    21    1
     8    17    19    1
     9    12     9    1
    10    12     5    1
    11    13     9    1
    12     7     5    2
    13     9    10    1
    14    21    19    1
    15    21    22    1
    16     5     6    1
    17     5     8    1
    18    30    29    1
    19    30    31    2
    20    19    20    1
    21    29    28    1
    22     4     1    2
    23    22    31    1
    24    22    23    1
    25    31    25    1
    26     8     1    1
    27    28    26    2
    28    23    24    1
    29     1     2    1
    30     1     3    1
    31    25    26    1
    32    25    24    2
    33    26    27    1
