@<TRIPOS>MOLECULE
3ltd_ADP_A_1.pdb
 27 29 0 0 0
SMALL
GASTEIGER

@<TRIPOS>ATOM
      1  PB       -22.0690   13.9780   17.3060 P.3    82  ADP82       0.5373
      2  O1B      -21.4850   12.5590   17.4100 O.3    82  ADP82      -0.1143
      3  O2B      -21.6120   14.9460   18.4210 O.3    82  ADP82      -0.1143
      4  O3B      -21.9950   14.5530   15.8760 O.2    82  ADP82      -0.2221
      5  PA       -24.8650   14.7270   17.2840 P.3    82  ADP82       0.2231
      6  O1A      -25.7080   13.9720   16.2670 O.2    82  ADP82      -0.5169
      7  O2A      -24.3430   16.1520   17.0200 O.3    82  ADP82      -0.4370
      8  O3A      -23.6450   13.7470   17.6990 O.3    82  ADP82      -0.2261
      9  O5'      -25.7780   14.7310   18.6180 O.3    82  ADP82      -0.3111
     10  C5'      -25.2680   14.8530   19.9460 C.3    82  ADP82       0.1813
     11  C4'      -26.3790   14.4710   20.9140 C.3    82  ADP82       0.1821
     12  O4'      -27.4670   15.3650   20.6880 O.3    82  ADP82      -0.3135
     13  C3'      -26.9420   13.0700   20.6780 C.3    82  ADP82       0.2184
     14  O3'      -27.3290   12.5220   21.9460 O.3    82  ADP82      -0.2174
     15  C2'      -28.1970   13.3210   19.8860 C.3    82  ADP82       0.2570
     16  O2'      -29.2070   12.3280   20.0630 O.3    82  ADP82      -0.2130
     17  C1'      -28.6580   14.6040   20.5300 C.3    82  ADP82       0.3186
     18  N9       -29.6030   15.3090   19.6500 N.pl3  82  ADP82      -0.1439
     19  C8       -29.2660   16.2300   18.7210 C.3    82  ADP82       0.3377
     20  N7       -30.3750   16.6800   18.0800 N.2    82  ADP82      -0.2095
     21  C5       -31.4310   16.0270   18.5990 C.2    82  ADP82       0.2526
     22  C6       -32.8680   16.0500   18.3690 C.2    82  ADP82       0.4393
     23  N6       -33.3790   16.8730   17.4320 N.pl3  82  ADP82       0.2180
     24  N1       -33.6260   15.2350   19.1290 N.2    82  ADP82       0.0021
     25  C2       -33.1040   14.4230   20.0760 C.3    82  ADP82       0.5254
     26  N3       -31.7920   14.3440   20.3270 N.2    82  ADP82      -0.0055
     27  C4       -30.9270   15.1170   19.6330 C.2    82  ADP82       0.3518
@<TRIPOS>BOND
     1     4     1    2
     2     6     5    2
     3     7     5    1
     4     5     8    1
     5     5     9    1
     6     1     2    1
     7     1     8    1
     8     1     3    1
     9    23    22    1
    10    20    21    2
    11    20    19    1
    12    22    21    1
    13    22    24    2
    14    21    27    1
    15     9    10    1
    16    19    18    1
    17    24    25    1
    18    27    18    1
    19    27    26    2
    20    18    17    1
    21    15    16    1
    22    15    17    1
    23    15    13    1
    24    10    11    1
    25    25    26    1
    26    17    12    1
    27    13    11    1
    28    13    14    1
    29    12    11    1
