@<TRIPOS>MOLECULE
3ltf_MAN_A_1.pdb
 11 11 0 0 0
SMALL
GASTEIGER

@<TRIPOS>ATOM
      1  C1       -14.9630   33.0140   52.6080 C.3   4703  MAN4703     0.1777
      2  C2       -15.4550   32.1080   53.7220 C.3   4703  MAN4703     0.2141
      3  C3       -14.3280   31.1110   54.0260 C.3   4703  MAN4703     0.2173
      4  C4       -13.0580   31.1720   53.1220 C.3   4703  MAN4703     0.2142
      5  C5       -13.2160   31.9070   51.7860 C.3   4703  MAN4703     0.1810
      6  C6       -12.5300   31.2530   50.5850 C.3   4703  MAN4703     0.2141
      7  O2       -16.5860   31.3760   53.2970 O.3   4703  MAN4703    -0.2176
      8  O3       -14.8910   29.8020   53.9270 O.3   4703  MAN4703    -0.2175
      9  O4       -11.9220   31.8180   53.6750 O.3   4703  MAN4703    -0.2176
     10  O5       -14.5750   32.1680   51.5510 O.3   4703  MAN4703    -0.3481
     11  O6       -12.0880   29.9430   50.8830 O.3   4703  MAN4703    -0.2176
@<TRIPOS>BOND
     1     6    11    1
     2     6     5    1
     3    10     5    1
     4    10     1    1
     5     5     4    1
     6     1     2    1
     7     4     9    1
     8     4     3    1
     9     7     2    1
    10     2     3    1
    11     8     3    1
