@<TRIPOS>MOLECULE
3lth_UD1_A_1.pdb
 39 41 0 0 0
SMALL
GASTEIGER

@<TRIPOS>ATOM
      1  C1'       53.6960   55.9230   72.7980 C.3   450  UD1450      0.2633
      2  C2'       53.4040   57.0180   71.7590 C.3   450  UD1450      0.1845
      3  C3'       54.6410   57.8850   71.5770 C.3   450  UD1450      0.2094
      4  C4'       54.9930   58.5100   72.9530 C.3   450  UD1450      0.2136
      5  C5'       55.2640   57.3830   73.9750 C.3   450  UD1450      0.1834
      6  C6'       55.6090   57.9190   75.3750 C.3   450  UD1450      0.2142
      7  C7'       51.8850   55.8420   70.1700 C.2   450  UD1450      0.2420
      8  C8'       51.7820   55.2210   68.7610 C.3   450  UD1450      0.0964
      9  N2'       53.0810   56.3920   70.4650 N.am  450  UD1450     -0.1992
     10  O1'       54.7400   55.0590   72.2920 O.3   450  UD1450     -0.2864
     11  O3'       54.3280   58.9610   70.6160 O.3   450  UD1450     -0.2183
     12  O4'       56.2170   59.3290   73.0200 O.3   450  UD1450     -0.2176
     13  O5'       54.0470   56.5450   74.0460 O.3   450  UD1450     -0.3260
     14  O6'       54.5620   58.7880   75.9680 O.3   450  UD1450     -0.2176
     15  O7'       50.9950   55.8540   70.9830 O.2   450  UD1450     -0.2733
     16  N1        59.6310   50.1890   76.4610 N.am  450  UD1450     -0.1766
     17  C2        60.2720   48.9770   76.6910 C.1   450  UD1450      0.2845
     18  N3        59.6450   47.8280   76.3470 N.2   450  UD1450     -0.2452
     19  C4        58.4080   47.7350   75.7820 C.1   450  UD1450      0.2182
     20  C5        57.7500   49.0050   75.5430 C.2   450  UD1450      0.1242
     21  C6        58.3650   50.1870   75.8780 C.2   450  UD1450      0.0929
     22  O2        61.4270   48.9380   77.2070 O.2   450  UD1450     -0.1918
     23  O4        57.9050   46.6550   75.5060 O.2   450  UD1450     -0.2085
     24  C1B       60.3130   51.4900   76.8200 C.3   450  UD1450      0.2401
     25  C2B       60.5680   52.4390   75.6810 C.3   450  UD1450      0.2319
     26  O2'       61.5160   51.9920   74.6120 O.3   450  UD1450     -0.2157
     27  C3B       60.7000   53.7940   76.4230 C.3   450  UD1450      0.2158
     28  C4B       59.5780   53.5920   77.5100 C.3   450  UD1450      0.1799
     29  O4B       59.4240   52.1820   77.6890 O.3   450  UD1450     -0.3320
     30  O3B       62.1190   53.8710   76.8640 O.3   450  UD1450     -0.2175
     31  C5B       58.1680   54.1110   77.1330 C.3   450  UD1450      0.1813
     32  O5B       57.6610   53.4860   75.9310 O.3   450  UD1450     -0.3112
     33  PA        56.1480   53.3750   75.6460 P.3   450  UD1450      0.2189
     34  O1A       55.4500   54.0310   76.7380 O.3   450  UD1450     -0.4371
     35  O2A       55.7530   51.9710   75.5320 O.2   450  UD1450     -0.5170
     36  O3A       55.7170   54.2290   74.4770 O.3   450  UD1450     -0.2703
     37  PB        55.1710   53.7590   73.0750 P.3   450  UD1450      0.2208
     38  O1B       53.9300   53.0780   73.2830 O.3   450  UD1450     -0.4371
     39  O2B       56.1480   53.0250   72.3080 O.2   450  UD1450     -0.5170
@<TRIPOS>BOND
     1     8     7    1
     2     7     9   am
     3     7    15    2
     4     9     2    1
     5    11     3    1
     6     3     2    1
     7     3     4    1
     8     2     1    1
     9    10     1    1
    10    10    37    1
    11    39    37    2
    12     1    13    1
    13     4    12    1
    14     4     5    1
    15    37    38    1
    16    37    36    1
    17     5    13    1
    18     5     6    1
    19    36    33    1
    20    26    25    1
    21     6    14    1
    22    23    19    2
    23    35    33    2
    24    20    19    1
    25    20    21    2
    26    33    32    1
    27    33    34    1
    28    25    27    1
    29    25    24    1
    30    19    18    2
    31    21    16    1
    32    32    31    1
    33    18    17    2
    34    27    30    1
    35    27    28    1
    36    16    17   am
    37    16    24    1
    38    17    22    2
    39    24    29    1
    40    31    28    1
    41    28    29    1
