@<TRIPOS>MOLECULE
3ltn_PDQ_F_1.pdb
 50 53 0 0 0
SMALL
GASTEIGER

@<TRIPOS>ATOM
      1  C1       -23.8070   49.0120  -35.6920 C.ar    0  PDQ0        0.2811
      2  O2       -24.3280   47.9580  -35.7850 O.2     0  PDQ0       -0.2652
      3  C3       -23.2760   49.7420  -37.0090 C.ar    0  PDQ0        0.0678
      4  C4       -23.5010   49.0270  -38.4260 C.ar    0  PDQ0       -0.0102
      5  C6       -23.0460   49.6500  -39.6070 C.ar    0  PDQ0        0.1454
      6  F7       -23.2260   49.0600  -40.8280 F       0  PDQ0       -0.2035
      7  C8       -22.3300   51.0210  -39.5350 C.ar    0  PDQ0        0.0703
      8  C10      -22.1140   51.6690  -38.2790 C.ar    0  PDQ0       -0.0023
      9  C12      -22.6490   50.9500  -36.9150 C.ar    0  PDQ0        0.0638
     10  N13      -22.4740   51.5870  -35.4410 N.ar    0  PDQ0       -0.2886
     11  C15      -22.9670   50.8990  -34.2410 C.ar    0  PDQ0        0.3496
     12  O16      -22.8470   51.3970  -33.1760 O.2     0  PDQ0       -0.2446
     13  N17      -23.6200   49.6380  -34.3810 N.ar    0  PDQ0       -0.1811
     14  C18      -21.6770   52.7980  -35.4080 C.3     0  PDQ0        0.0395
     15  C20      -20.1640   52.5270  -35.3440 C.3     0  PDQ0       -0.0301
     16  C23      -20.8790   53.0870  -34.1210 C.3     0  PDQ0       -0.0301
     17  N26      -24.0800   48.9560  -33.2160 N.pl3   0  PDQ0       -0.2914
     18  C29      -21.4200   53.0260  -38.2700 C.3     0  PDQ0       -0.0359
     19  N33      -21.8070   51.6010  -40.7920 N.pl3   0  PDQ0       -0.3271
     20  C34      -20.4930   51.2190  -41.3860 C.3     0  PDQ0        0.0165
     21  C37      -20.3660   52.0210  -42.5630 C.3     0  PDQ0       -0.0089
     22  C39      -21.6480   52.4940  -42.9410 C.3     0  PDQ0       -0.0316
     23  C42      -22.4620   52.5740  -41.6770 C.3     0  PDQ0        0.0126
     24  C45      -19.4170   53.0760  -42.3300 C.3     0  PDQ0        0.0063
     25  C47      -19.1640   53.8570  -43.6070 C.3     0  PDQ0       -0.0496
     26  N51      -18.1730   52.5000  -41.8830 N.3     0  PDQ0       -0.3272
     27  H4       -24.0100   48.0690  -38.4760 H       0  PDQ0        0.0655
     28  H18      -21.9780   53.6660  -35.9830 H       0  PDQ0        0.0529
     29  H20      -19.8750   51.4830  -35.2800 H       0  PDQ0        0.0286
     30 H20A      -19.5350   53.2280  -35.8820 H       0  PDQ0        0.0286
     31  H23      -20.6890   54.1330  -33.9070 H       0  PDQ0        0.0286
     32 H23A      -21.0320   52.3880  -33.3050 H       0  PDQ0        0.0286
     33 HN26      -25.0480   48.7110  -33.2640 H       0  PDQ0        0.1629
     34 HN2A      -23.8280   49.4190  -32.3670 H       0  PDQ0        0.1629
     35  H29      -21.1170   53.2830  -39.2770 H       0  PDQ0        0.0279
     36 H29A      -22.1050   53.7780  -37.8930 H       0  PDQ0        0.0279
     37 H29B      -20.5420   52.9820  -37.6280 H       0  PDQ0        0.0279
     38  H34      -19.6870   51.4370  -40.6940 H       0  PDQ0        0.0467
     39 H34A      -20.4910   50.1700  -41.6470 H       0  PDQ0        0.0467
     40  H37      -19.9870   51.3930  -43.3650 H       0  PDQ0        0.0331
     41  H39      -21.5620   53.4780  -43.3910 H       0  PDQ0        0.0284
     42 H39A      -22.1110   51.8010  -43.6420 H       0  PDQ0        0.0284
     43  H42      -22.4140   53.5700  -41.2530 H       0  PDQ0        0.0464
     44 H42A      -23.4890   52.2870  -41.8670 H       0  PDQ0        0.0464
     45  H45      -19.8000   53.7490  -41.5660 H       0  PDQ0        0.0459
     46  H47      -19.9180   54.6300  -43.7110 H       0  PDQ0        0.0245
     47 H47A      -18.1760   54.3150  -43.5600 H       0  PDQ0        0.0245
     48 H47B      -19.2120   53.1860  -44.4590 H       0  PDQ0        0.0245
     49 HN51      -17.6900   53.1620  -41.2980 H       0  PDQ0        0.1185
     50 HN5A      -17.6010   52.2810  -42.6810 H       0  PDQ0        0.1185
@<TRIPOS>BOND
     1    48    25    1
     2    46    25    1
     3    42    22    1
     4    25    47    1
     5    25    24    1
     6    41    22    1
     7    40    21    1
     8    22    21    1
     9    22    23    1
    10    50    26    1
    11    21    24    1
    12    21    20    1
    13    24    26    1
    14    24    45    1
    15    26    49    1
    16    44    23    1
    17    23    43    1
    18    23    19    1
    19    39    20    1
    20    20    19    1
    21    20    38    1
    22     6     5    1
    23    19     7    1
    24     5     7   ar
    25     5     4   ar
    26     7     8   ar
    27    35    18    1
    28    27     4    1
    29     4     3   ar
    30     8    18    1
    31     8     9   ar
    32    18    36    1
    33    18    37    1
    34     3     9   ar
    35     3     1   ar
    36     9    10   ar
    37    28    14    1
    38    30    15    1
    39     2     1    2
    40     1    13   ar
    41    10    14    1
    42    10    11   ar
    43    14    15    1
    44    14    16    1
    45    15    29    1
    46    15    16    1
    47    13    11   ar
    48    13    17    1
    49    11    12    2
    50    16    31    1
    51    16    32    1
    52    33    17    1
    53    17    34    1
