@<TRIPOS>MOLECULE
3ltp_BMP_A_1.pdb
 22 23 0 0 0
SMALL
GASTEIGER

@<TRIPOS>ATOM
      1  P         25.0410   -2.4320    8.4250 P.3   229  BMP229      0.5327
      2  OP1       24.3170   -3.2520    7.4000 O.2   229  BMP229     -0.2224
      3  OP2       25.7800   -3.3070    9.3710 O.3   229  BMP229     -0.1145
      4  OP3       26.0940   -1.4010    7.7950 O.3   229  BMP229     -0.1145
      5  O5'       24.0580   -1.5730    9.3360 O.3   229  BMP229     -0.2675
      6  C5'       22.9130   -0.9170    8.8030 C.3   229  BMP229      0.1859
      7  C4'       22.2270   -0.2100    9.9530 C.3   229  BMP229      0.1801
      8  O4'       21.1630    0.5900    9.4170 O.3   229  BMP229     -0.3319
      9  C3'       21.5640   -1.0640   11.0250 C.3   229  BMP229      0.2158
     10  O3'       21.6250   -0.4490   12.3250 O.3   229  BMP229     -0.2175
     11  C2'       20.1400   -1.1940   10.5360 C.3   229  BMP229      0.2320
     12  O2'       19.2080   -1.5100   11.5800 O.3   229  BMP229     -0.2157
     13  C1'       19.9140    0.1510    9.8630 C.3   229  BMP229      0.2425
     14  N1        18.9660    0.2170    8.7190 N.am  229  BMP229     -0.1473
     15  C2        19.1300   -0.6500    7.5860 C.1   229  BMP229      0.2863
     16  O2        20.0540   -1.4400    7.5070 O.2   229  BMP229     -0.1918
     17  N3        18.1730   -0.5100    6.6150 N.2   229  BMP229     -0.2489
     18  C4        17.1020    0.4030    6.6040 C.1   229  BMP229      0.2018
     19  O4        16.3970    0.4220    5.6220 O.2   229  BMP229     -0.2129
     20  C5        16.9790    1.2270    7.7900 C.3   229  BMP229      0.2213
     21  C6        17.9140    1.1810    8.7610 C.2   229  BMP229      0.2591
     22  O1        17.9140    1.9840    9.7320 O.2   229  BMP229     -0.2725
@<TRIPOS>BOND
     1    19    18    2
     2    18    17    2
     3    18    20    1
     4    17    15    2
     5     2     1    2
     6    16    15    2
     7    15    14   am
     8    20    21    1
     9     4     1    1
    10     1     5    1
    11     1     3    1
    12    14    21   am
    13    14    13    1
    14    21    22    2
    15     6     5    1
    16     6     7    1
    17     8    13    1
    18     8     7    1
    19    13    11    1
    20     7     9    1
    21    11     9    1
    22    11    12    1
    23     9    10    1
