@<TRIPOS>MOLECULE
3lts_BMP_A_1.pdb
 22 23 0 0 0
SMALL
GASTEIGER

@<TRIPOS>ATOM
      1  P         21.2600    1.9870   10.4340 P.3   229  BMP229      0.5327
      2  OP1       20.5390    0.7540    9.8190 O.3   229  BMP229     -0.1145
      3  OP2       22.0820    2.8070    9.3930 O.2   229  BMP229     -0.2224
      4  OP3       20.2640    2.8760   11.1390 O.3   229  BMP229     -0.1145
      5  O5'       22.3300    1.4920   11.4870 O.3   229  BMP229     -0.2675
      6  C5'       22.0860    0.3650   12.2250 C.3   229  BMP229      0.1859
      7  C4'       23.2050    0.0350   13.1870 C.3   229  BMP229      0.1801
      8  O4'       22.9130   -0.8850   14.2950 O.3   229  BMP229     -0.3319
      9  C3'       24.5690   -0.3890   12.6930 C.3   229  BMP229      0.2158
     10  O3'       25.6710    0.2110   13.2570 O.3   229  BMP229     -0.2175
     11  C2'       24.5200   -1.8510   12.7780 C.3   229  BMP229      0.2320
     12  O2'       25.6690   -2.5840   12.6000 O.3   229  BMP229     -0.2157
     13  C1'       23.6540   -2.1420   13.9900 C.3   229  BMP229      0.2425
     14  N1        22.8920   -3.3420   14.1770 N.am  229  BMP229     -0.1473
     15  C2        21.8470   -3.5670   13.1520 C.1   229  BMP229      0.2863
     16  O2        21.5460   -2.5800   12.2600 O.2   229  BMP229     -0.1918
     17  N3        20.8710   -4.7190   13.3980 N.2   229  BMP229     -0.2489
     18  C4        21.2340   -5.7250   14.5010 C.1   229  BMP229      0.2018
     19  O4        20.3180   -6.6970   14.7640 O.2   229  BMP229     -0.2129
     20  C5        22.2440   -5.3040   15.5290 C.3   229  BMP229      0.2213
     21  C6        23.0690   -4.1150   15.3150 C.2   229  BMP229      0.2591
     22  O1        23.8270   -3.5790   16.3210 O.2   229  BMP229     -0.2725
@<TRIPOS>BOND
     1     3     1    2
     2     2     1    1
     3     1     4    1
     4     1     5    1
     5     5     6    1
     6     6     7    1
     7    16    15    2
     8    12    11    1
     9     9    11    1
    10     9     7    1
    11     9    10    1
    12    11    13    1
    13    15    17    2
    14    15    14   am
    15     7     8    1
    16    17    18    2
    17    13    14    1
    18    13     8    1
    19    14    21   am
    20    18    19    2
    21    18    20    1
    22    21    20    1
    23    21    22    2
