@<TRIPOS>MOLECULE
3ltw_HLZ_A_1.pdb
 12 13 0 0 0
SMALL
GASTEIGER

@<TRIPOS>ATOM
      1  C1       -18.6110   -8.1310  -11.0600 C.ar  300  HLZ300      0.1886
      2  N2       -17.7260   -9.0930  -10.7110 N.ar  300  HLZ300     -0.1298
      3  N3       -17.0140   -9.8260  -11.6820 N.ar  300  HLZ300     -0.1451
      4  C4       -17.1620   -9.6250  -13.0050 C.ar  300  HLZ300      0.1222
      5  C5       -18.0470   -8.6610  -13.4810 C.ar  300  HLZ300      0.0238
      6  C6       -18.8280   -7.8560  -12.5060 C.ar  300  HLZ300      0.0379
      7  C7       -19.7160   -6.8860  -12.9690 C.ar  300  HLZ300      0.0030
      8  C8       -19.8560   -6.6930  -14.3440 C.ar  300  HLZ300      0.0001
      9  C9       -19.1230   -7.4520  -15.2640 C.ar  300  HLZ300      0.0001
     10  C10      -18.2210   -8.4320  -14.8430 C.ar  300  HLZ300      0.0017
     11  N11      -19.2770   -7.4400  -10.1140 N.pl3 300  HLZ300     -0.1083
     12  N12      -18.9420   -6.1040   -9.8550 N.3   300  HLZ300      0.0059
@<TRIPOS>BOND
     1     9    10   ar
     2     9     8   ar
     3    10     5   ar
     4     8     7   ar
     5     5     4   ar
     6     5     6   ar
     7     4     3   ar
     8     7     6   ar
     9     6     1   ar
    10     3     2   ar
    11     1     2   ar
    12     1    11    1
    13    11    12    1
