@<TRIPOS>MOLECULE
3lty_BMP_A_1.pdb
 22 23 0 0 0
SMALL
GASTEIGER

@<TRIPOS>ATOM
      1  P         21.2600    1.9880   10.1930 P.3   229  BMP229      0.5327
      2  OP1       20.5680    0.7830    9.5040 O.3   229  BMP229     -0.1145
      3  OP2       22.1630    2.7870    9.2140 O.2   229  BMP229     -0.2224
      4  OP3       20.2440    2.8950   10.8750 O.3   229  BMP229     -0.1145
      5  O5'       22.2660    1.4570   11.2710 O.3   229  BMP229     -0.2675
      6  C5'       22.0800    0.2970   11.9520 C.3   229  BMP229      0.1859
      7  C4'       23.2150    0.0310   12.9160 C.3   229  BMP229      0.1801
      8  O4'       22.9400   -0.9270   14.0050 O.3   229  BMP229     -0.3319
      9  C3'       24.5770   -0.3580   12.3880 C.3   229  BMP229      0.2158
     10  O3'       25.7210    0.1060   12.9990 O.3   229  BMP229     -0.2175
     11  C2'       24.5290   -1.8290   12.3980 C.3   229  BMP229      0.2320
     12  O2'       25.7020   -2.5520   12.3400 O.3   229  BMP229     -0.2157
     13  C1'       23.6110   -2.1510   13.5550 C.3   229  BMP229      0.2425
     14  N1        22.8170   -3.2640   13.9670 N.am  229  BMP229     -0.1473
     15  C2        21.8480   -3.5570   12.8900 C.1   229  BMP229      0.2863
     16  O2        21.5230   -2.6530   11.9530 O.2   229  BMP229     -0.1918
     17  N3        20.9250   -4.7340   13.1140 N.2   229  BMP229     -0.2489
     18  C4        21.2380   -5.6520   14.2990 C.1   229  BMP229      0.2018
     19  O4        20.2960   -6.5950   14.5210 O.2   229  BMP229     -0.2129
     20  C5        22.2230   -5.2240   15.3600 C.3   229  BMP229      0.2213
     21  C6        23.0160   -4.0090   15.1490 C.2   229  BMP229      0.2591
     22  O1        23.9660   -3.6250   16.0700 O.2   229  BMP229     -0.2725
@<TRIPOS>BOND
     1     3     1    2
     2     2     1    1
     3     1     4    1
     4     1     5    1
     5     5     6    1
     6     6     7    1
     7    16    15    2
     8    12    11    1
     9     9    11    1
    10     9     7    1
    11     9    10    1
    12    11    13    1
    13    15    17    2
    14    15    14   am
    15     7     8    1
    16    17    18    2
    17    13    14    1
    18    13     8    1
    19    14    21   am
    20    18    19    2
    21    18    20    1
    22    21    20    1
    23    21    22    2
