@<TRIPOS>MOLECULE
3lu1_NAD_A_1.pdb
 44 48 0 0 0
SMALL
GASTEIGER

@<TRIPOS>ATOM
      1  PA       -32.5360   -4.2850  -12.7380 P.3   343  NAD343      0.2189
      2  O1A      -32.8130   -4.6570  -14.1410 O.2   343  NAD343     -0.5170
      3  O2A      -32.8930   -2.9410  -12.2390 O.3   343  NAD343     -0.4371
      4  O5B      -33.1860   -5.3980  -11.8150 O.3   343  NAD343     -0.3112
      5  C5B      -33.7060   -5.0610  -10.5390 C.3   343  NAD343      0.1813
      6  C4B      -35.0780   -5.7050  -10.3770 C.3   343  NAD343      0.1821
      7  O4B      -35.4360   -5.7110   -8.9760 O.3   343  NAD343     -0.3135
      8  C3B      -36.1200   -4.8600  -11.1100 C.3   343  NAD343      0.2184
      9  O3B      -37.0420   -5.7340  -11.7780 O.3   343  NAD343     -0.2174
     10  C2B      -36.8290   -4.1290   -9.9910 C.3   343  NAD343      0.2570
     11  O2B      -38.1930   -3.8840  -10.3360 O.3   343  NAD343     -0.2130
     12  C1B      -36.7590   -5.1590   -8.8700 C.3   343  NAD343      0.3186
     13  N9A      -36.9600   -4.4600   -7.5630 N.pl3 343  NAD343     -0.1439
     14  C8A      -36.2600   -3.4270   -7.0770 C.3   343  NAD343      0.3377
     15  N7A      -36.7500   -3.0980   -5.8860 N.2   343  NAD343     -0.2095
     16  C5A      -37.7490   -3.9290   -5.6090 C.2   343  NAD343      0.2526
     17  C6A      -38.6280   -4.0660   -4.5470 C.2   343  NAD343      0.4393
     18  N6A      -38.5490   -3.2540   -3.5040 N.pl3 343  NAD343      0.2180
     19  N1A      -39.5640   -5.0250   -4.5790 N.2   343  NAD343      0.0021
     20  C2A      -39.6610   -5.8490   -5.6160 C.3   343  NAD343      0.5254
     21  N3A      -38.8390   -5.7380   -6.6520 N.2   343  NAD343     -0.0055
     22  C4A      -37.8820   -4.7950   -6.6710 C.2   343  NAD343      0.3518
     23  O3       -30.9720   -4.4750  -12.4150 O.3   343  NAD343     -0.2703
     24  PN       -30.1540   -5.8600  -12.5620 P.3   343  NAD343      0.2189
     25  O1N      -31.0480   -6.9700  -12.9700 O.3   343  NAD343     -0.4371
     26  O2N      -28.9600   -5.5220  -13.3710 O.2   343  NAD343     -0.5170
     27  O5D      -29.6630   -6.0960  -11.0780 O.3   343  NAD343     -0.3112
     28  C5D      -30.1690   -7.1770  -10.2960 C.3   343  NAD343      0.1813
     29  C4D      -29.3780   -7.3130   -8.9740 C.3   343  NAD343      0.1799
     30  O4D      -27.9760   -7.4190   -9.2880 O.3   343  NAD343     -0.3327
     31  C3D      -29.4940   -6.1080   -8.0250 C.3   343  NAD343      0.2158
     32  O3D      -29.3950   -6.6000   -6.6770 O.3   343  NAD343     -0.2175
     33  C2D      -28.2630   -5.2950   -8.4000 C.3   343  NAD343      0.2309
     34  O2D      -27.8900   -4.3550   -7.3850 O.3   343  NAD343     -0.2158
     35  C1D      -27.2830   -6.4460   -8.4490 C.3   343  NAD343      0.2263
     36  N1N      -26.0270   -6.1540   -9.1340 N.pl3 343  NAD343     -0.2787
     37  C2N      -26.0600   -5.8360  -10.4990 C.3   343  NAD343      0.1244
     38  C3N      -24.8740   -5.5770  -11.1720 C.2   343  NAD343      0.0544
     39  C7N      -24.9340   -5.2200  -12.6590 C.2   343  NAD343      0.2818
     40  O7N      -23.9010   -5.1240  -13.3260 O.2   343  NAD343     -0.2670
     41  N7N      -26.1730   -5.0310  -13.1400 N.am  343  NAD343     -0.0839
     42  C4N      -23.6590   -5.6510  -10.4810 C.2   343  NAD343      0.0033
     43  C5N      -23.6160   -5.9670   -9.1170 C.2   343  NAD343      0.0157
     44  C6N      -24.8070   -6.2240   -8.4410 C.2   343  NAD343      0.0633
@<TRIPOS>BOND
     1     2     1    2
     2    26    24    2
     3    40    39    2
     4    41    39   am
     5    25    24    1
     6     1    23    1
     7     1     3    1
     8     1     4    1
     9    39    38    1
    10    24    23    1
    11    24    27    1
    12     4     5    1
    13     9     8    1
    14    38    37    1
    15    38    42    2
    16     8     6    1
    17     8    10    1
    18    27    28    1
    19     5     6    1
    20    37    36    1
    21    42    43    1
    22     6     7    1
    23    11    10    1
    24    28    29    1
    25    10    12    1
    26    30    29    1
    27    30    35    1
    28    36    35    1
    29    36    44    1
    30    43    44    2
    31     7    12    1
    32    29    31    1
    33    12    13    1
    34    35    33    1
    35    33    31    1
    36    33    34    1
    37    31    32    1
    38    13    14    1
    39    13    22    1
    40    14    15    1
    41    22    21    2
    42    22    16    1
    43    21    20    1
    44    15    16    2
    45    20    19    1
    46    16    17    1
    47    19    17    2
    48    17    18    1
