@<TRIPOS>MOLECULE
3lu1_UD2_A_1.pdb
 39 41 0 0 0
SMALL
GASTEIGER

@<TRIPOS>ATOM
      1  C1'      -21.1080   -0.5440  -10.2440 C.3   344  UD2344      0.2633
      2  C2'      -20.4620   -1.8790   -9.8730 C.3   344  UD2344      0.1845
      3  C3'      -21.2980   -3.0510  -10.3910 C.3   344  UD2344      0.2094
      4  C4'      -22.7970   -2.8660  -10.0860 C.3   344  UD2344      0.2136
      5  C5'      -23.2980   -1.4540  -10.3730 C.3   344  UD2344      0.1834
      6  C6'      -24.7390   -1.2740   -9.8850 C.3   344  UD2344      0.2142
      7  C7'      -18.0330   -1.5350   -9.7510 C.2   344  UD2344      0.2420
      8  C8'      -16.6940   -1.7610  -10.4480 C.3   344  UD2344      0.0964
      9  N2'      -19.0970   -1.9810  -10.4140 N.am  344  UD2344     -0.1992
     10  O1'      -21.1930   -0.4170  -11.6760 O.3   344  UD2344     -0.2864
     11  O3'      -20.8200   -4.2620   -9.7910 O.3   344  UD2344     -0.2183
     12  O4'      -23.0460   -3.1820   -8.7150 O.3   344  UD2344     -0.2176
     13  O5'      -22.4380   -0.5410   -9.6840 O.3   344  UD2344     -0.3260
     14  O6'      -25.4040   -0.3220  -10.7160 O.3   344  UD2344     -0.2176
     15  O7'      -18.0860   -0.9620   -8.6640 O.2   344  UD2344     -0.2733
     16  N1       -19.6620    5.9040  -17.7730 N.am  344  UD2344     -0.1766
     17  C2       -19.2820    6.8400  -18.7520 C.1   344  UD2344      0.2845
     18  N3       -20.2490    7.3760  -19.6140 N.2   344  UD2344     -0.2452
     19  C4       -21.5870    6.9820  -19.5010 C.1   344  UD2344      0.2182
     20  C5       -21.9740    6.0540  -18.5350 C.2   344  UD2344      0.1242
     21  C6       -21.0180    5.5120  -17.6780 C.2   344  UD2344      0.0929
     22  O2       -18.1110    7.1950  -18.8650 O.2   344  UD2344     -0.1918
     23  O4       -22.4190    7.4610  -20.2660 O.2   344  UD2344     -0.2085
     24  C1B      -18.6380    5.3230  -16.8580 C.3   344  UD2344      0.2401
     25  C2B      -18.9830    5.3930  -15.3710 C.3   344  UD2344      0.2319
     26  O2'      -18.5300    6.6250  -14.8010 O.3   344  UD2344     -0.2157
     27  C3B      -18.1880    4.2130  -14.8140 C.3   344  UD2344      0.2158
     28  C4B      -18.1570    3.2090  -15.9700 C.3   344  UD2344      0.1799
     29  O4B      -18.6090    3.9070  -17.1510 O.3   344  UD2344     -0.3320
     30  O3B      -16.8430    4.5880  -14.4980 O.3   344  UD2344     -0.2175
     31  C5B      -19.1390    2.0740  -15.7060 C.3   344  UD2344      0.1813
     32  O5B      -20.2500    2.5600  -14.9740 O.3   344  UD2344     -0.3112
     33  PA       -21.6160    1.7340  -14.8900 P.3   344  UD2344      0.2189
     34  O1A      -22.6460    2.6160  -14.3170 O.3   344  UD2344     -0.4371
     35  O2A      -21.8640    1.0450  -16.1770 O.2   344  UD2344     -0.5170
     36  O3A      -21.2520    0.5790  -13.8490 O.3   344  UD2344     -0.2703
     37  PB       -20.4860    0.7820  -12.4650 P.3   344  UD2344      0.2208
     38  O1B      -19.0550    0.4530  -12.6400 O.2   344  UD2344     -0.5170
     39  O2B      -20.8850    2.0700  -11.8490 O.3   344  UD2344     -0.4371
@<TRIPOS>BOND
     1    23    19    2
     2    18    19    2
     3    18    17    2
     4    19    20    1
     5    22    17    2
     6    17    16   am
     7    20    21    2
     8    16    21    1
     9    16    24    1
    10    29    24    1
    11    29    28    1
    12    24    25    1
    13    35    33    2
    14    28    31    1
    15    28    27    1
    16    31    32    1
    17    25    27    1
    18    25    26    1
    19    32    33    1
    20    33    34    1
    21    33    36    1
    22    27    30    1
    23    36    37    1
    24    38    37    2
    25    37    39    1
    26    37    10    1
    27    10     1    1
    28    14     6    1
    29     8     7    1
    30     9     2    1
    31     9     7   am
    32     3     4    1
    33     3     2    1
    34     3    11    1
    35     5     4    1
    36     5     6    1
    37     5    13    1
    38     1     2    1
    39     1    13    1
    40     4    12    1
    41     7    15    2
