@<TRIPOS>MOLECULE
3lu6_IMX_A_1.pdb
 26 29 0 0 0
SMALL
GASTEIGER

@<TRIPOS>ATOM
      1  C1        15.2390    5.8010   23.2970 C.3   586  IMX586      0.1045
      2  C2        12.4750   10.3970   20.5910 C.ar  586  IMX586      0.0345
      3  C3        13.1740    9.6940   19.6370 C.ar  586  IMX586      0.1318
      4  C4        11.6320   11.4350   20.2940 C.ar  586  IMX586      0.0323
      5  C5        13.0540   10.0180   18.2960 C.ar  586  IMX586      0.0344
      6  C6        11.5120   11.7580   18.9540 C.ar  586  IMX586      0.1403
      7  C7        12.2070   11.0700   17.9470 C.ar  586  IMX586      0.0323
      8  N8        13.9060    8.7430   20.2480 N.2   586  IMX586     -0.3972
      9  C9        13.6980    8.8380   21.5730 C.2   586  IMX586      0.1862
     10  C10       12.8010    9.8470   21.7850 C.2   586  IMX586      0.0394
     11  F11       10.7210   12.7550   18.6230 F     586  IMX586     -0.2042
     12  C12       14.2350    7.9930   22.6200 C.2   586  IMX586      0.2945
     13  O13       14.1730    8.4030   23.7550 O.2   586  IMX586     -0.2656
     14  N14       14.7290    6.7400   22.3010 N.am  586  IMX586     -0.2006
     15  C15       16.5340    6.2510   23.9920 C.3   586  IMX586      0.0480
     16  C16       17.2290    4.9570   24.2190 C.ar  586  IMX586     -0.0243
     17  C17       16.6890    3.9380   23.4800 C.ar  586  IMX586     -0.0242
     18  C18       15.5270    4.4180   22.6590 C.3   586  IMX586      0.0536
     19  C19       18.3110    4.7290   25.0450 C.ar  586  IMX586     -0.0045
     20  C20       18.8430    3.4460   25.1270 C.ar  586  IMX586     -0.0003
     21  C21       18.2930    2.4120   24.3850 C.ar  586  IMX586     -0.0003
     22  C22       17.2060    2.6550   23.5530 C.ar  586  IMX586     -0.0045
     23  C23       14.2930    3.5080   22.7810 C.3   586  IMX586      0.1201
     24  C24       13.2770    3.6910   21.6930 C.2   586  IMX586      0.3652
     25  O26       12.2620    3.0410   21.7390 O.co2 586  IMX586     -0.2456
     26  O25       13.4920    4.5480   20.6650 O.co2 586  IMX586     -0.2456
@<TRIPOS>BOND
     1     7     5   ar
     2     7     6   ar
     3     5     3   ar
     4    11     6    1
     5     6     4   ar
     6     3     8    2
     7     3     2   ar
     8     8     9    2
     9     4     2   ar
    10     2    10    2
    11    26    24   ar
    12     9    10    1
    13     9    12    1
    14    24    25   ar
    15    24    23    1
    16    14    12   am
    17    14     1    1
    18    12    13    2
    19    18    23    1
    20    18     1    1
    21    18    17    1
    22     1    15    1
    23    17    22   ar
    24    17    16   ar
    25    22    21   ar
    26    15    16    1
    27    16    19   ar
    28    21    20   ar
    29    19    20   ar
