@<TRIPOS>MOLECULE
3lu7_IPX_A_1.pdb
 28 31 0 0 0
SMALL
GASTEIGER

@<TRIPOS>ATOM
      1  C1        11.6810   -4.5690    0.7580 C.3   586  IPX586      0.1040
      2  C2        10.0620   -1.2870   -4.0030 C.2   586  IPX586      0.0130
      3  C3         9.5600   -0.7100   -2.8640 C.2   586  IPX586      0.1101
      4  C4         9.6850   -0.8750   -5.2590 C.3   586  IPX586      0.0848
      5  C5         8.6440    0.3220   -2.9340 C.3   586  IPX586      0.0866
      6  C6         8.7670    0.1670   -5.3480 C.2   586  IPX586      0.1183
      7  C7         8.2520    0.7650   -4.1960 C.2   586  IPX586      0.0068
      8  N8        10.1020   -1.3140   -1.7940 N.2   586  IPX586     -0.4015
      9  C9        10.9520   -2.2680   -2.2220 C.2   586  IPX586      0.1854
     10  C10       10.9170   -2.2630   -3.5920 C.2   586  IPX586      0.0351
     11  F11        8.3780    0.5920   -6.5400 F     586  IPX586     -0.2088
     12  C12       11.7040   -3.1870   -1.3820 C.2   586  IPX586      0.2944
     13  O13       12.7840   -3.5800   -1.7290 O.2   586  IPX586     -0.2656
     14  N14       11.1130   -3.6170   -0.2070 N.am  586  IPX586     -0.2006
     15  C15       13.1660   -4.3520    1.1470 C.3   586  IPX586      0.0480
     16  C16       13.6770   -5.7510    1.2390 C.ar  586  IPX586     -0.0244
     17  C17       12.8090   -6.6580    0.6910 C.ar  586  IPX586     -0.0247
     18  C18       11.5780   -5.9910    0.1420 C.3   586  IPX586      0.0424
     19  C19       14.8770   -6.1730    1.7840 C.ar  586  IPX586     -0.0045
     20  C20       15.1880   -7.5320    1.7820 C.ar  586  IPX586     -0.0003
     21  C21       14.3090   -8.4540    1.2250 C.ar  586  IPX586     -0.0003
     22  C22       13.1120   -8.0160    0.6710 C.ar  586  IPX586     -0.0045
     23  C23       10.2210   -6.6050    0.5420 C.3   586  IPX586      0.0066
     24  C24        9.2860   -6.8510   -0.6380 C.3   586  IPX586      0.0122
     25  C25        8.3050   -7.9700   -0.3190 C.3   586  IPX586      0.1141
     26  C26        8.8690   -9.3030   -0.7230 C.2   586  IPX586      0.3649
     27  O27        8.9760   -9.5540   -1.9000 O.co2 586  IPX586     -0.2457
     28  O28        9.2520  -10.2140    0.2180 O.co2 586  IPX586     -0.2457
@<TRIPOS>BOND
     1    11     6    1
     2     6     4    1
     3     6     7    2
     4     4     2    1
     5     7     5    1
     6     2    10    2
     7     2     3    1
     8    10     9    1
     9     5     3    1
    10     3     8    2
    11     9     8    2
    12     9    12    1
    13    27    26   ar
    14    13    12    2
    15    12    14   am
    16    26    25    1
    17    26    28   ar
    18    24    25    1
    19    24    23    1
    20    14     1    1
    21    18    23    1
    22    18    17    1
    23    18     1    1
    24    22    17   ar
    25    22    21   ar
    26    17    16   ar
    27     1    15    1
    28    15    16    1
    29    21    20   ar
    30    16    19   ar
    31    20    19   ar
