@<TRIPOS>MOLECULE
3lu8_IQX_A_1.pdb
 28 30 0 0 0
SMALL
GASTEIGER

@<TRIPOS>ATOM
      1  N1       -12.7040  -13.2070   10.8430 N.ar  586  IQX586     -0.2156
      2  C2       -11.9700  -12.1440   11.3190 C.ar  586  IQX586      0.2390
      3  C3       -13.6260  -13.0260    9.8390 C.ar  586  IQX586      0.0983
      4  C4       -12.1590  -10.8810   10.7970 C.ar  586  IQX586      0.1362
      5  C5       -13.8270  -11.7750    9.2870 C.ar  586  IQX586      0.0149
      6  C6       -13.0930  -10.7000    9.7720 C.ar  586  IQX586      0.0204
      7  C7       -14.8510  -11.6650    8.2120 C.3   586  IQX586      0.1271
      8  C8       -14.9510  -12.4320    7.0630 C.2   586  IQX586      0.1036
      9  N9       -16.0120  -12.0910    6.2980 N.2   586  IQX586     -0.3864
     10  C10      -16.7340  -11.0880    6.8280 C.2   586  IQX586      0.2328
     11  S11      -16.0750  -10.6260    8.2030 S.3   586  IQX586     -0.0547
     12  C12      -13.9950  -13.5320    6.6690 C.3   586  IQX586      0.0628
     13  N13      -17.8900  -10.5590    6.2060 N.am  586  IQX586     -0.1437
     14  C14      -19.2020  -10.8760    6.5140 C.2   586  IQX586      0.2486
     15  C15      -20.3660  -10.2630    5.7720 C.3   586  IQX586      0.0969
     16  O16      -19.4260  -11.6670    7.4040 O.2   586  IQX586     -0.2729
     17  N17      -11.3470   -9.8560   11.3440 N.pl3 586  IQX586     -0.0956
     18  S18      -11.2570   -8.3050   10.8490 S.O2  586  IQX586      0.0878
     19  O19      -10.9440   -7.4560   11.9560 O.2   586  IQX586     -0.1517
     20  O20      -12.5280   -7.9050   10.3030 O.2   586  IQX586     -0.1517
     21  C21       -9.9900   -8.2250    9.6300 C.3   586  IQX586      0.2513
     22  C22       -9.9050   -7.4130    8.5000 C.2   586  IQX586      0.1216
     23  S23       -8.6770   -9.1410    9.6460 S.3   586  IQX586     -0.0552
     24  C24       -8.0030   -8.5630    8.3080 C.2   586  IQX586      0.1359
     25  N25       -8.7870   -7.6160    7.7710 N.2   586  IQX586     -0.4060
     26  C26      -10.9010   -6.3860    8.0510 C.3   586  IQX586      0.0643
     27  C27       -6.6860   -9.0010    7.7170 C.3   586  IQX586      0.0736
     28  F28      -11.0860  -12.3400   12.2900 F     586  IQX586     -0.1817
@<TRIPOS>BOND
     1    15    14    1
     2    13    14   am
     3    13    10    1
     4     9    10    2
     5     9     8    2
     6    14    16    2
     7    12     8    1
     8    10    11    1
     9     8     7    1
    10    27    24    1
    11    25    24    2
    12    25    22    2
    13    26    22    1
    14    11     7    1
    15     7     5    1
    16    24    23    1
    17    22    21    1
    18     5     6   ar
    19     5     3   ar
    20    21    23    1
    21    21    18    1
    22     6     4   ar
    23     3     1   ar
    24    20    18    2
    25     4     2   ar
    26     4    17    1
    27     1     2   ar
    28    18    17    1
    29    18    19    2
    30     2    28    1
