@<TRIPOS>MOLECULE
3lud_AMP_A_1.pdb
 23 25 0 0 0
SMALL
GASTEIGER

@<TRIPOS>ATOM
      1  P         18.8600    6.1980  -20.8050 P.3   600  AMP600      0.5327
      2  O1P       17.6290    6.7160  -21.5410 O.2   600  AMP600     -0.2224
      3  O2P       20.1530    6.6950  -21.4100 O.3   600  AMP600     -0.1145
      4  O3P       18.7920    4.7210  -20.4670 O.3   600  AMP600     -0.1145
      5  O5'       18.8160    6.8980  -19.3540 O.3   600  AMP600     -0.2675
      6  C5'       18.3690    8.2240  -19.1400 C.3   600  AMP600      0.1860
      7  C4'       18.3270    8.4860  -17.6460 C.3   600  AMP600      0.1823
      8  O4'       19.6260    8.3380  -17.0600 O.3   600  AMP600     -0.3135
      9  C3'       17.8620    9.9130  -17.3790 C.3   600  AMP600      0.2184
     10  O3'       16.6050    9.8270  -16.7150 O.3   600  AMP600     -0.2174
     11  C2'       18.8740   10.4970  -16.4210 C.3   600  AMP600      0.2570
     12  O2'       18.1820   10.9010  -15.2460 O.3   600  AMP600     -0.2130
     13  C1'       19.8300    9.3580  -16.0830 C.3   600  AMP600      0.3186
     14  N9        21.2570    9.7530  -16.1220 N.pl3 600  AMP600     -0.1439
     15  C8        21.9700   10.1710  -17.1930 C.3   600  AMP600      0.3377
     16  N7        23.2600   10.4170  -16.8480 N.2   600  AMP600     -0.2095
     17  C5        23.3990   10.1490  -15.5370 C.2   600  AMP600      0.2526
     18  C6        24.4840   10.1900  -14.5390 C.2   600  AMP600      0.4393
     19  N6        25.7370   10.5880  -14.8730 N.pl3 600  AMP600      0.2180
     20  N1        24.1910    9.8170  -13.2640 N.2   600  AMP600      0.0021
     21  C2        22.9580    9.4230  -12.9020 C.3   600  AMP600      0.5254
     22  N3        21.9270    9.3690  -13.7610 N.2   600  AMP600     -0.0055
     23  C4        22.0790    9.7130  -15.0660 C.2   600  AMP600      0.3518
@<TRIPOS>BOND
     1     2     1    2
     2     3     1    1
     3     1     4    1
     4     1     5    1
     5     5     6    1
     6     6     7    1
     7     7     9    1
     8     7     8    1
     9     9    10    1
    10     9    11    1
    11    15    16    1
    12    15    14    1
    13     8    13    1
    14    16    17    2
    15    11    13    1
    16    11    12    1
    17    14    13    1
    18    14    23    1
    19    17    23    1
    20    17    18    1
    21    23    22    2
    22    19    18    1
    23    18    20    2
    24    22    21    1
    25    20    21    1
