@<TRIPOS>MOLECULE
3luj_U5P_A_1.pdb
 21 22 0 0 0
SMALL
GASTEIGER

@<TRIPOS>ATOM
      1  N1        20.6300    9.3070  -15.0730 N.am    1  U5P1       -0.1766
      2  C2        20.8470    9.3180  -13.6280 C.1     1  U5P1        0.2845
      3  N3        22.2100    9.5200  -13.0990 N.2     1  U5P1       -0.2452
      4  C4        23.3370    9.6290  -13.9850 C.1     1  U5P1        0.2182
      5  C5        23.1080    9.6000  -15.4660 C.2     1  U5P1        0.1242
      6  C6        21.7160    9.5730  -15.9930 C.2     1  U5P1        0.0929
      7  O2        19.9440    9.0800  -12.8360 O.2     1  U5P1       -0.1918
      8  O4        24.4570    9.7710  -13.5020 O.2     1  U5P1       -0.2085
      9  C1'       19.3970    9.1550  -15.7630 C.3     1  U5P1        0.2401
     10  C2'       18.8140   10.3680  -16.3190 C.3     1  U5P1        0.2319
     11  O2'       18.4280   11.3450  -15.4190 O.3     1  U5P1       -0.2157
     12  C3'       17.7850    9.8270  -17.2150 C.3     1  U5P1        0.2158
     13  C4'       18.3760    8.5570  -17.7230 C.3     1  U5P1        0.1801
     14  O3'       16.3630   10.0490  -17.0710 O.3     1  U5P1       -0.2175
     15  O4'       19.4520    8.2460  -16.8660 O.3     1  U5P1       -0.3320
     16  C5'       18.4030    8.1650  -19.1610 C.3     1  U5P1        0.1859
     17  O5'       18.9000    6.8990  -19.3170 O.3     1  U5P1       -0.2675
     18  P         18.9630    6.2710  -20.7240 P.3     1  U5P1        0.5327
     19  O1P       17.7620    6.7100  -21.5390 O.2     1  U5P1       -0.2224
     20  O2P       20.2810    6.7100  -21.4300 O.3     1  U5P1       -0.1145
     21  O3P       18.9070    4.7300  -20.5230 O.3     1  U5P1       -0.1145
@<TRIPOS>BOND
     1    19    18    2
     2    20    18    1
     3    18    21    1
     4    18    17    1
     5    17    16    1
     6    16    13    1
     7    13    12    1
     8    13    15    1
     9    12    14    1
    10    12    10    1
    11    15     9    1
    12    10     9    1
    13    10    11    1
    14     6     5    2
    15     6     1    1
    16     9     1    1
    17     5     4    1
    18     1     2   am
    19     4     8    2
    20     4     3    2
    21     2     3    2
    22     2     7    2
