@<TRIPOS>MOLECULE
3lum_ARG_A_1.pdb
 11 10 0 0 0
SMALL
GASTEIGER

@<TRIPOS>ATOM
      1  N         30.2670  112.9690  103.1050 N.3   501  ARG501     -0.1245
      2  CA        30.7480  114.2000  103.7990 C.3   501  ARG501      0.1563
      3  C         31.8860  114.8030  102.9970 C.2   501  ARG501      0.2260
      4  O         32.8680  114.1260  102.6890 O.2   501  ARG501     -0.2867
      5  CB        31.2150  113.8770  105.2250 C.3   501  ARG501      0.0307
      6  CG        31.4590  115.0990  106.1110 C.3   501  ARG501      0.0489
      7  CD        32.1750  114.6800  107.3980 C.3   501  ARG501      0.2205
      8  NE        32.5260  115.7960  108.2750 N.pl3 501  ARG501     -0.0865
      9  CZ        33.1180  115.6450  109.4580 C.cat 501  ARG501      0.5346
     10  NH1       33.4260  114.4360  109.8990 N.pl3 501  ARG501      0.1354
     11  NH2       33.3960  116.6900  110.2130 N.pl3 501  ARG501      0.1354
@<TRIPOS>BOND
     1     4     3    2
     2     3     2    1
     3     1     2    1
     4     2     5    1
     5     5     6    1
     6     6     7    1
     7     7     8    1
     8     8     9    2
     9     9    10    1
    10     9    11    1
