@<TRIPOS>MOLECULE
3lun_ARG_B_1.pdb
 11 10 0 0 0
SMALL
GASTEIGER

@<TRIPOS>ATOM
      1  N          3.4710   16.6700  -24.5040 N.3   501  ARG501     -0.1245
      2  CA         3.9000   17.1470  -25.8640 C.3   501  ARG501      0.1563
      3  C          3.1510   18.3810  -26.3980 C.2   501  ARG501      0.2260
      4  O          2.4150   19.0390  -25.6760 O.2   501  ARG501     -0.2867
      5  CB         3.7290   16.0220  -26.8990 C.3   501  ARG501      0.0307
      6  CG         3.8670   14.6490  -26.3680 C.3   501  ARG501      0.0489
      7  CD         2.5180   14.1460  -26.0460 C.3   501  ARG501      0.2205
      8  NE         2.0680   13.2710  -27.1020 N.pl3 501  ARG501     -0.0865
      9  CZ         1.2030   12.2870  -26.8860 C.cat 501  ARG501      0.5346
     10  NH1        0.7250   12.0930  -25.6760 N.pl3 501  ARG501      0.1354
     11  NH2        0.8380   11.4840  -27.8660 N.pl3 501  ARG501      0.1354
@<TRIPOS>BOND
     1    11     9    1
     2     8     9    2
     3     8     7    1
     4     5     6    1
     5     5     2    1
     6     9    10    1
     7     3     2    1
     8     3     4    2
     9     6     7    1
    10     2     1    1
