@<TRIPOS>MOLECULE
3lup_ELA_A_1.pdb
 20 19 0 0 0
SMALL
GASTEIGER

@<TRIPOS>ATOM
      1  CA        -0.2780   50.6900   29.9730 C.3   301  ELA301      0.1141
      2  C         -0.4540   52.1650   30.3490 C.2   301  ELA301      0.3649
      3  O          0.2840   52.7540   31.1930 O.co2 301  ELA301     -0.2457
      4  C3         1.0640   50.3730   29.3180 C.3   301  ELA301      0.0118
      5  C4         1.0590   48.9810   28.6950 C.3   301  ELA301      0.0006
      6  C5         2.1870   48.0810   29.2380 C.3   301  ELA301      0.0000
      7  C6         1.7760   47.3870   30.5440 C.3   301  ELA301      0.0000
      8  C7         2.8870   46.7680   31.3840 C.3   301  ELA301      0.0000
      9  C8         2.3010   46.1810   32.6740 C.3   301  ELA301      0.0000
     10  C9         3.0220   44.9060   33.0900 C.3   301  ELA301      0.0000
     11  C10        2.8280   44.2950   34.4270 C.3   301  ELA301      0.0000
     12  C11        3.9130   43.4120   35.0100 C.3   301  ELA301      0.0000
     13  C12        3.3730   42.0940   35.5500 C.3   301  ELA301      0.0000
     14  C13        3.7960   40.8870   34.7300 C.3   301  ELA301      0.0000
     15  C14        3.9410   39.6190   35.5600 C.3   301  ELA301      0.0000
     16  C15        4.4630   38.4730   34.6810 C.3   301  ELA301      0.0000
     17  C16        4.3410   37.0910   35.3260 C.3   301  ELA301      0.0000
     18  C17        3.4120   36.1880   34.5220 C.3   301  ELA301      0.0000
     19  C18        3.8880   34.7410   34.4900 C.3   301  ELA301      0.0000
     20  OXT       -1.3820   52.8150   29.8140 O.co2 301  ELA301     -0.2457
@<TRIPOS>BOND
     1     5     6    1
     2     5     4    1
     3     6     7    1
     4     4     1    1
     5    20     2   ar
     6     1     2    1
     7     2     3   ar
     8     7     8    1
     9     8     9    1
    10     9    10    1
    11    10    11    1
    12    11    12    1
    13    19    18    1
    14    18    17    1
    15    16    17    1
    16    16    15    1
    17    14    13    1
    18    14    15    1
    19    12    13    1
