@<TRIPOS>MOLECULE
3lus_MCO_B_1.pdb
 14 14 0 0 0
SMALL
GASTEIGER

@<TRIPOS>ATOM
      1  O2        -7.0540   -0.0590   13.7950 O.co2 1001  MCO1001    -0.2438
      2  C9        -6.6630    0.8310   14.5340 C.2   1001  MCO1001     0.3825
      3  O3        -5.4090    1.2920   14.2960 O.co2 1001  MCO1001    -0.2438
      4  C8        -7.5840    1.3250   15.6520 C.3   1001  MCO1001     0.1790
      5  C7        -7.0280    2.5680   16.3030 C.3   1001  MCO1001     0.0332
      6  C6        -7.4900    3.7050   15.3830 C.3   1001  MCO1001     0.0238
      7  C5        -8.5660    3.1120   14.4620 C.3   1001  MCO1001     0.0939
      8  N         -8.8690    1.9230   15.2400 N.am  1001  MCO1001    -0.2713
      9  C4       -10.1080    1.5530   15.5880 C.2   1001  MCO1001     0.2264
     10  O1       -11.0750    2.1850   15.2380 O.2   1001  MCO1001    -0.2748
     11  C2       -10.3900    0.3390   16.3910 C.3   1001  MCO1001     0.0883
     12  C3       -11.8130    0.3540   16.9500 C.3   1001  MCO1001     0.0105
     13  C1       -10.1810   -0.8340   15.4400 C.3   1001  MCO1001     0.0777
     14  S         -9.2460   -2.0030   16.3990 S.3   1001  MCO1001    -0.0816
@<TRIPOS>BOND
     1     1     2   ar
     2     3     2   ar
     3     7     8    1
     4     7     6    1
     5     2     4    1
     6    10     9    2
     7     8     9   am
     8     8     4    1
     9     6     5    1
    10    13    11    1
    11    13    14    1
    12     9    11    1
    13     4     5    1
    14    11    12    1
