@<TRIPOS>MOLECULE
3lut_NAP_A_1.pdb
 48 52 0 0 0
SMALL
GASTEIGER

@<TRIPOS>ATOM
      1  PA        74.5730  105.3360    9.3160 P.3   368  NAP368      0.2189
      2  O1A       74.1300  106.0540    8.0960 O.2   368  NAP368     -0.5170
      3  O2A       74.7060  103.8830    9.0600 O.3   368  NAP368     -0.4371
      4  O5B       73.5930  105.6420   10.5470 O.3   368  NAP368     -0.3112
      5  C5B       73.9620  105.2940   11.8610 C.3   368  NAP368      0.1813
      6  C4B       72.9140  105.8800   12.7990 C.3   368  NAP368      0.1820
      7  O4B       71.6150  105.3540   12.5180 O.3   368  NAP368     -0.3136
      8  C3B       73.2650  105.5400   14.2330 C.3   368  NAP368      0.2157
      9  O3B       73.6990  106.6820   14.9360 O.3   368  NAP368     -0.2175
     10  C2B       71.9800  104.9570   14.8080 C.3   368  NAP368      0.2314
     11  O2B       71.4920  105.7620   15.8890 O.3   368  NAP368     -0.2630
     12  C1B       71.0700  104.6470   13.6150 C.3   368  NAP368      0.3158
     13  N9A       71.1600  103.1670   13.4390 N.pl3 368  NAP368     -0.1439
     14  C8A       72.3230  102.4440   13.3060 C.3   368  NAP368      0.3377
     15  N7A       72.0480  101.1240   13.2020 N.2   368  NAP368     -0.2095
     16  C5A       70.7140  100.9650   13.2760 C.2   368  NAP368      0.2526
     17  C6A       69.9100   99.8270   13.2270 C.2   368  NAP368      0.4393
     18  N6A       70.4480   98.6170   13.0770 N.pl3 368  NAP368      0.2180
     19  N1A       68.5380   99.9600   13.3330 N.2   368  NAP368      0.0021
     20  C2A       67.9790  101.2150   13.4960 C.3   368  NAP368      0.5254
     21  N3A       68.7850  102.3370   13.5390 N.2   368  NAP368     -0.0055
     22  C4A       70.1380  102.2310   13.4280 C.2   368  NAP368      0.3518
     23  O3        75.9710  105.8780    9.9050 O.3   368  NAP368     -0.2703
     24  PN        76.6850  107.3200    9.9780 P.3   368  NAP368      0.2189
     25  O1N       76.2300  108.1140   11.1380 O.3   368  NAP368     -0.4371
     26  O2N       76.6990  107.9110    8.6270 O.2   368  NAP368     -0.5170
     27  O5D       78.1480  106.8140   10.3560 O.3   368  NAP368     -0.3112
     28  C5D       79.0480  106.4830    9.3420 C.3   368  NAP368      0.1813
     29  C4D       80.4460  106.8190    9.8280 C.3   368  NAP368      0.1799
     30  O4D       81.0950  107.3290    8.6890 O.3   368  NAP368     -0.3327
     31  C3D       80.5280  107.9200   10.8840 C.3   368  NAP368      0.2158
     32  O3D       80.6080  107.4320   12.2060 O.3   368  NAP368     -0.2175
     33  C2D       81.7690  108.6940   10.4870 C.3   368  NAP368      0.2309
     34  O2D       82.9330  108.1630   11.0720 O.3   368  NAP368     -0.2158
     35  C1D       81.8960  108.4440    8.9960 C.3   368  NAP368      0.2263
     36  N1N       81.4550  109.6270    8.2340 N.pl3 368  NAP368     -0.2787
     37  C2N       82.3400  110.2000    7.3660 C.3   368  NAP368      0.1244
     38  C3N       81.9770  111.3300    6.6370 C.2   368  NAP368      0.0544
     39  C7N       82.9580  111.9540    5.6860 C.2   368  NAP368      0.2818
     40  O7N       82.7700  113.3010    5.3060 O.2   368  NAP368     -0.2670
     41  N7N       83.9800  111.2220    5.2240 N.am  368  NAP368     -0.0839
     42  C4N       80.7080  111.8870    6.7980 C.2   368  NAP368      0.0033
     43  C5N       79.8080  111.3010    7.6900 C.2   368  NAP368      0.0157
     44  C6N       80.1970  110.1620    8.4000 C.2   368  NAP368      0.0633
     45  P2B       70.1830  106.7000   16.0710 P.3   368  NAP368      0.5328
     46  O1X       69.4710  106.9090   14.7500 O.2   368  NAP368     -0.2224
     47  O2X       69.2910  105.9970   17.0640 O.3   368  NAP368     -0.1145
     48  O3X       70.5860  108.0250   16.6910 O.3   368  NAP368     -0.1145
@<TRIPOS>BOND
     1    41    39   am
     2    40    39    2
     3    39    38    1
     4    38    42    2
     5    38    37    1
     6    42    43    1
     7    37    36    1
     8    43    44    2
     9     2     1    2
    10    36    44    1
    11    36    35    1
    12    26    24    2
    13    30    35    1
    14    30    29    1
    15    35    33    1
    16     3     1    1
    17     1    23    1
    18     1     4    1
    19    28    29    1
    20    28    27    1
    21    29    31    1
    22    23    24    1
    23    24    27    1
    24    24    25    1
    25    33    31    1
    26    33    34    1
    27     4     5    1
    28    31    32    1
    29     5     6    1
    30     7     6    1
    31     7    12    1
    32     6     8    1
    33    18    17    1
    34    15    16    2
    35    15    14    1
    36    17    16    1
    37    17    19    2
    38    16    22    1
    39    14    13    1
    40    19    20    1
    41    22    13    1
    42    22    21    2
    43    13    12    1
    44    20    21    1
    45    12    10    1
    46     8    10    1
    47     8     9    1
    48    46    45    2
    49    10    11    1
    50    11    45    1
    51    45    48    1
    52    45    47    1
