@<TRIPOS>MOLECULE
3luy_PPY_A_1.pdb
 12 12 0 0 0
SMALL
GASTEIGER

@<TRIPOS>ATOM
      1  C1       107.4070    4.1460   23.0950 C.2   501  PPY501      0.4222
      2  O1       106.3620    4.1400   23.7980 O.co2 501  PPY501     -0.2373
      3  O2       108.1400    3.1090   23.0260 O.co2 501  PPY501     -0.2373
      4  C2       107.6600    5.2020   22.1010 C.2   501  PPY501      0.2564
      5  O3       108.7780    5.4310   21.5740 O.2   501  PPY501     -0.2839
      6  C3       106.4200    5.7130   21.4090 C.3   501  PPY501      0.1025
      7  C1'      106.1680    4.8250   20.2220 C.ar  501  PPY501     -0.0142
      8  C2'      106.5070    5.2180   18.9420 C.ar  501  PPY501     -0.0038
      9  C3'      106.2810    4.4070   17.8070 C.ar  501  PPY501     -0.0003
     10  C4'      105.6960    3.1540   18.0190 C.ar  501  PPY501     -0.0000
     11  C5'      105.3470    2.7710   19.3100 C.ar  501  PPY501     -0.0003
     12  C6'      105.5770    3.5900   20.3820 C.ar  501  PPY501     -0.0038
@<TRIPOS>BOND
     1     9    10   ar
     2     9     8   ar
     3    10    11   ar
     4     8     7   ar
     5    11    12   ar
     6     7    12   ar
     7     7     6    1
     8     6     4    1
     9     5     4    2
    10     4     1    1
    11     3     1   ar
    12     1     2   ar
