@<TRIPOS>MOLECULE
3lv1_NAP_B_1.pdb
 48 52 0 0 0
SMALL
GASTEIGER

@<TRIPOS>ATOM
      1  PA        46.9960  -15.2540  -72.1740 P.3   501  NAP501      0.2189
      2  O1A       46.8910  -13.8410  -71.7760 O.3   501  NAP501     -0.4371
      3  O2A       47.1580  -15.7040  -73.5530 O.2   501  NAP501     -0.5170
      4  O5B       45.7730  -16.0510  -71.4410 O.3   501  NAP501     -0.3112
      5  C5B       45.6400  -16.1200  -69.9060 C.3   501  NAP501      0.1813
      6  C4B       44.5790  -17.0900  -69.8550 C.3   501  NAP501      0.1820
      7  O4B       43.4270  -16.2820  -70.6470 O.3   501  NAP501     -0.3136
      8  C3B       44.2740  -18.2250  -70.3560 C.3   501  NAP501      0.2157
      9  O3B       43.3990  -18.3300  -69.2740 O.3   501  NAP501     -0.2175
     10  C2B       43.6720  -18.3850  -71.7080 C.3   501  NAP501      0.2314
     11  O2B       43.0130  -19.4700  -71.8920 O.3   501  NAP501     -0.2630
     12  C1B       42.8550  -17.1770  -71.6630 C.3   501  NAP501      0.3158
     13  N9A       43.1400  -16.3660  -72.9220 N.pl3 501  NAP501     -0.1439
     14  C8A       44.3020  -16.1050  -73.6800 C.3   501  NAP501      0.3377
     15  N7A       44.0990  -15.3250  -74.7120 N.2   501  NAP501     -0.2095
     16  C5A       42.7410  -15.0330  -74.6800 C.2   501  NAP501      0.2526
     17  C6A       41.8970  -14.2310  -75.5300 C.2   501  NAP501      0.4393
     18  N6A       42.3450  -13.5740  -76.5990 N.pl3 501  NAP501      0.2180
     19  N1A       40.5620  -14.1480  -75.2090 N.2   501  NAP501      0.0021
     20  C2A       40.0970  -14.8110  -74.1240 C.3   501  NAP501      0.5254
     21  N3A       40.8270  -15.5790  -73.2830 N.2   501  NAP501     -0.0055
     22  C4A       42.1410  -15.6560  -73.6050 C.2   501  NAP501      0.3518
     23  O3        48.2200  -15.6590  -71.2030 O.3   501  NAP501     -0.2703
     24  PN        49.2260  -16.9590  -71.0940 P.3   501  NAP501      0.2189
     25  O1N       48.8240  -17.6750  -69.8450 O.3   501  NAP501     -0.4371
     26  O2N       49.0590  -17.6810  -72.4020 O.2   501  NAP501     -0.5170
     27  O5D       50.7310  -16.3750  -71.0120 O.3   501  NAP501     -0.3112
     28  C5D       51.3550  -15.9400  -69.7600 C.3   501  NAP501      0.1813
     29  C4D       51.3550  -14.3940  -69.7010 C.3   501  NAP501      0.1799
     30  O4D       50.8680  -13.9000  -68.4270 O.3   501  NAP501     -0.3327
     31  C3D       52.7130  -13.6590  -69.8720 C.3   501  NAP501      0.2158
     32  O3D       52.5600  -12.3660  -70.5210 O.3   501  NAP501     -0.2175
     33  C2D       53.2430  -13.5510  -68.4600 C.3   501  NAP501      0.2309
     34  O2D       54.2120  -12.5680  -68.1480 O.3   501  NAP501     -0.2158
     35  C1D       51.9260  -13.2800  -67.6930 C.3   501  NAP501      0.2263
     36  N1N       51.9850  -13.7230  -66.3050 N.pl3 501  NAP501     -0.2787
     37  C2N       51.5940  -12.8320  -65.2800 C.3   501  NAP501      0.1244
     38  C3N       51.6710  -13.3650  -63.9430 C.2   501  NAP501      0.0544
     39  C7N       51.3220  -12.5930  -62.7730 C.2   501  NAP501      0.2818
     40  O7N       50.9650  -13.1980  -61.7470 O.2   501  NAP501     -0.2670
     41  N7N       51.4160  -11.2370  -62.8040 N.am  501  NAP501     -0.0839
     42  C4N       52.0890  -14.7070  -63.7680 C.2   501  NAP501      0.0033
     43  C5N       52.4520  -15.5220  -64.7800 C.2   501  NAP501      0.0157
     44  C6N       52.4000  -15.0370  -66.0560 C.2   501  NAP501      0.0633
     45  P2B       43.6940  -20.4230  -72.9910 P.3   501  NAP501      0.5328
     46  O1X       45.1230  -20.6190  -72.5390 O.3   501  NAP501     -0.1145
     47  O2X       42.7850  -21.5630  -72.9170 O.3   501  NAP501     -0.1145
     48  O3X       43.5630  -19.6770  -74.2490 O.2   501  NAP501     -0.2224
@<TRIPOS>BOND
     1    18    17    1
     2    17    19    2
     3    17    16    1
     4    19    20    1
     5    15    16    2
     6    15    14    1
     7    16    22    1
     8    48    45    2
     9    20    21    1
    10    14    13    1
    11    22    21    2
    12    22    13    1
    13     3     1    2
    14    45    47    1
    15    45    46    1
    16    45    11    1
    17    13    12    1
    18    26    24    2
    19     1     2    1
    20     1     4    1
    21     1    23    1
    22    11    10    1
    23    10    12    1
    24    10     8    1
    25    12     7    1
    26     4     5    1
    27    23    24    1
    28    24    27    1
    29    24    25    1
    30    27    28    1
    31     7     6    1
    32    32    31    1
    33     8     6    1
    34     8     9    1
    35     5     6    1
    36    31    29    1
    37    31    33    1
    38    28    29    1
    39    29    30    1
    40    33    34    1
    41    33    35    1
    42    30    35    1
    43    35    36    1
    44    36    44    1
    45    36    37    1
    46    44    43    2
    47    37    38    1
    48    43    42    1
    49    38    42    2
    50    38    39    1
    51    41    39   am
    52    39    40    2
