@<TRIPOS>MOLECULE
3lv2_PLP_A_1.pdb
 15 15 0 0 0
SMALL
GASTEIGER

@<TRIPOS>ATOM
      1  N1       -20.1760   -3.3170   14.3410 N.2   501  PLP501     -0.2505
      2  C2       -19.5460   -2.6960   13.2950 C.2   501  PLP501      0.0675
      3  C2A      -18.9020   -3.5120   12.2220 C.3   501  PLP501      0.0499
      4  C3       -19.5220   -1.3080   13.2410 C.3   501  PLP501      0.1913
      5  O3       -18.8930   -0.6700   12.2050 O.3   501  PLP501     -0.2167
      6  C4       -20.1400   -0.5530   14.2430 C.3   501  PLP501      0.0581
      7  C4A      -20.5280    0.8510   13.9290 C.3   501  PLP501      0.0075
      8  C5       -20.7750   -1.1870   15.2970 C.2   501  PLP501      0.0073
      9  C6       -20.7720   -2.5700   15.3400 C.2   501  PLP501      0.0921
     10  C5A      -21.4140   -0.3950   16.4180 C.3   501  PLP501      0.1776
     11  O4P      -22.5390    0.3870   16.0440 O.3   501  PLP501     -0.2656
     12  P        -23.0940    1.5120   17.0740 P.3   501  PLP501      0.5329
     13  O1P      -22.1260    2.6560   17.1190 O.3   501  PLP501     -0.1145
     14  O2P      -23.2270    0.8950   18.4450 O.3   501  PLP501     -0.1145
     15  O3P      -24.4310    2.0300   16.5910 O.2   501  PLP501     -0.2224
@<TRIPOS>BOND
     1     5     4    1
     2     3     2    1
     3     4     2    1
     4     4     6    1
     5     2     1    2
     6     7     6    1
     7     6     8    1
     8     1     9    1
     9     8     9    2
    10     8    10    1
    11    11    10    1
    12    11    12    1
    13    15    12    2
    14    12    13    1
    15    12    14    1
