@<TRIPOS>MOLECULE
3lv2_SFG_A_1.pdb
 27 29 0 0 0
SMALL
GASTEIGER

@<TRIPOS>ATOM
      1  N        -17.4300    5.1440   13.0680 N.3   600  SFG600     -0.1208
      2  CA       -16.8640    4.0890   13.8910 C.3   600  SFG600      0.1944
      3  C        -17.5200    4.1320   15.2260 C.2   600  SFG600      0.3819
      4  O        -17.9470    3.0300   15.6460 O.co2 600  SFG600     -0.2441
      5  OXT      -17.6220    5.2340   15.8320 O.co2 600  SFG600     -0.2441
      6  CB       -15.3330    4.1450   13.9930 C.3   600  SFG600      0.0321
      7  CG       -14.7710    5.0580   15.0900 C.3   600  SFG600      0.0212
      8  CD       -13.4990    5.7310   14.5720 C.3   600  SFG600      0.0944
      9  NE       -12.8880    4.8910   13.5500 N.3   600  SFG600     -0.1328
     10  C5'      -12.5030    6.0360   15.6980 C.3   600  SFG600      0.0514
     11  C4'      -12.3720    7.5530   15.7650 C.3   600  SFG600      0.1537
     12  O4'      -11.1090    8.0570   16.2280 O.3   600  SFG600     -0.3161
     13  C3'      -12.5060    8.1070   14.3640 C.3   600  SFG600      0.2159
     14  O3'      -13.8870    8.3050   14.0670 O.3   600  SFG600     -0.2175
     15  C2'      -11.7610    9.4330   14.4160 C.3   600  SFG600      0.2569
     16  O2'      -12.7140   10.5270   14.4870 O.3   600  SFG600     -0.2130
     17  C1'      -10.9490    9.3920   15.7070 C.3   600  SFG600      0.3185
     18  N9        -9.5890    9.7020   15.2950 N.pl3 600  SFG600     -0.1439
     19  C8        -9.4910   10.5190   14.9730 C.3   600  SFG600      0.3377
     20  N7        -8.2530   11.0730   15.0870 N.2   600  SFG600     -0.2095
     21  C5        -7.4660   10.1940   15.7630 C.2   600  SFG600      0.2526
     22  C6        -6.0500   10.1350   16.2290 C.2   600  SFG600      0.4393
     23  N6        -5.2030   11.1650   15.9870 N.pl3 600  SFG600      0.2180
     24  N1        -5.6310    9.0280   16.9020 N.2   600  SFG600      0.0021
     25  C2        -6.4680    7.9970   17.1530 C.3   600  SFG600      0.5254
     26  N3        -7.7620    7.9790   16.7610 N.2   600  SFG600     -0.0055
     27  C4        -8.3070    9.0260   16.0760 C.2   600  SFG600      0.3518
@<TRIPOS>BOND
     1     1     2    1
     2     9     8    1
     3     2     6    1
     4     2     3    1
     5     6     7    1
     6    14    13    1
     7    13    15    1
     8    13    11    1
     9    15    16    1
    10    15    17    1
    11     8     7    1
    12     8    10    1
    13    19    20    1
    14    19    18    1
    15    20    21    2
    16     3     4   ar
    17     3     5   ar
    18    18    17    1
    19    18    27    1
    20    10    11    1
    21    17    12    1
    22    21    27    1
    23    21    22    1
    24    11    12    1
    25    23    22    1
    26    27    26    2
    27    22    24    2
    28    26    25    1
    29    24    25    1
