@<TRIPOS>MOLECULE
3lv5_BMP_A_1.pdb
 22 23 0 0 0
SMALL
GASTEIGER

@<TRIPOS>ATOM
      1  P         25.0810   -2.5140    8.3010 P.3   229  BMP229      0.5327
      2  OP1       24.3210   -3.3050    7.2350 O.2   229  BMP229     -0.2224
      3  OP2       25.7910   -3.4400    9.3120 O.3   229  BMP229     -0.1145
      4  OP3       26.0620   -1.5580    7.6540 O.3   229  BMP229     -0.1145
      5  O5'       24.1030   -1.6650    9.2010 O.3   229  BMP229     -0.2675
      6  C5'       22.9130   -1.1490    8.6950 C.3   229  BMP229      0.1859
      7  C4'       22.2250   -0.3810    9.7790 C.3   229  BMP229      0.1801
      8  O4'       21.2070    0.5570    9.3010 O.3   229  BMP229     -0.3319
      9  C3'       21.5730   -1.0990   10.9510 C.3   229  BMP229      0.2158
     10  O3'       21.6490   -0.4960   12.1700 O.3   229  BMP229     -0.2175
     11  C2'       20.1950   -1.2900   10.5030 C.3   229  BMP229      0.2320
     12  O2'       19.2610   -1.6130   11.4660 O.3   229  BMP229     -0.2157
     13  C1'       19.9240   -0.0660    9.6860 C.3   229  BMP229      0.2425
     14  N1        18.9740    0.1840    8.6480 N.am  229  BMP229     -0.1473
     15  C2        19.1300   -0.7700    7.5670 C.1   229  BMP229      0.2863
     16  O2        20.1990   -1.5360    7.4120 O.2   229  BMP229     -0.1918
     17  N3        18.2570   -0.6080    6.3740 N.2   229  BMP229     -0.2489
     18  C4        17.0820    0.3130    6.4940 C.1   229  BMP229      0.2018
     19  O4        16.3110    0.3690    5.4090 O.2   229  BMP229     -0.2129
     20  C5        16.9860    1.2460    7.6420 C.3   229  BMP229      0.2213
     21  C6        17.9610    1.1440    8.7020 C.2   229  BMP229      0.2591
     22  O1        17.9690    1.9640    9.7300 O.2   229  BMP229     -0.2725
@<TRIPOS>BOND
     1    19    18    2
     2    17    18    2
     3    17    15    2
     4    18    20    1
     5     2     1    2
     6    16    15    2
     7    15    14   am
     8    20    21    1
     9     4     1    1
    10     1     5    1
    11     1     3    1
    12    14    21   am
    13    14    13    1
    14     6     5    1
    15     6     7    1
    16    21    22    2
    17     8    13    1
    18     8     7    1
    19    13    11    1
    20     7     9    1
    21    11     9    1
    22    11    12    1
    23     9    10    1
