@<TRIPOS>MOLECULE
3lv6_BMP_A_1.pdb
 22 23 0 0 0
SMALL
GASTEIGER

@<TRIPOS>ATOM
      1  P         25.2380   -2.6160    8.1490 P.3   229  BMP229      0.5327
      2  OP1       24.4920   -3.4300    7.0840 O.2   229  BMP229     -0.2224
      3  OP2       25.9720   -3.5630    9.1310 O.3   229  BMP229     -0.1145
      4  OP3       26.2010   -1.6250    7.5240 O.3   229  BMP229     -0.1145
      5  O5'       24.2530   -1.8020    9.0630 O.3   229  BMP229     -0.2675
      6  C5'       23.0780   -1.2670    8.5450 C.3   229  BMP229      0.1859
      7  C4'       22.3820   -0.4830    9.6210 C.3   229  BMP229      0.1801
      8  O4'       21.3550    0.4520    9.1540 O.3   229  BMP229     -0.3319
      9  C3'       21.7300   -1.1940   10.7900 C.3   229  BMP229      0.2158
     10  O3'       21.7960   -0.5830   12.0020 O.3   229  BMP229     -0.2175
     11  C2'       20.3570   -1.4020   10.3540 C.3   229  BMP229      0.2320
     12  O2'       19.4010   -1.7320   11.2930 O.3   229  BMP229     -0.2157
     13  C1'       20.0810   -0.1780    9.5300 C.3   229  BMP229      0.2425
     14  N1        19.1450    0.0840    8.4750 N.am  229  BMP229     -0.1473
     15  C2        19.2770   -0.8840    7.3990 C.1   229  BMP229      0.2863
     16  O2        20.3260   -1.6650    7.2510 O.2   229  BMP229     -0.1918
     17  N3        18.3980   -0.7240    6.2030 N.2   229  BMP229     -0.2489
     18  C4        17.2410    0.2150    6.3230 C.1   229  BMP229      0.2018
     19  O4        16.5060    0.2700    5.2180 O.2   229  BMP229     -0.2129
     20  C5        17.1330    1.1270    7.4910 C.3   229  BMP229      0.2213
     21  C6        18.0990    1.0020    8.5550 C.2   229  BMP229      0.2591
     22  O1        18.1200    1.8850    9.5370 O.2   229  BMP229     -0.2725
@<TRIPOS>BOND
     1    19    18    2
     2    17    18    2
     3    17    15    2
     4    18    20    1
     5     2     1    2
     6    16    15    2
     7    15    14   am
     8    20    21    1
     9     4     1    1
    10     1     5    1
    11     1     3    1
    12    14    21   am
    13    14    13    1
    14     6     5    1
    15     6     7    1
    16    21    22    2
    17     8    13    1
    18     8     7    1
    19    13    11    1
    20     7     9    1
    21    11     9    1
    22    11    12    1
    23     9    10    1
