@<TRIPOS>MOLECULE
3lv8_TYD_A_1.pdb
 25 26 0 0 0
SMALL
GASTEIGER

@<TRIPOS>ATOM
      1  PA        56.0150   76.4300   32.6970 P.3   215  TYD215      0.2231
      2  O1A       55.9620   77.5540   31.7050 O.2   215  TYD215     -0.5169
      3  O2A       56.8420   76.5870   33.9650 O.3   215  TYD215     -0.4370
      4  O3A       56.4830   75.1290   31.9000 O.3   215  TYD215     -0.2261
      5  PB        56.8930   75.1770   30.3540 P.3   215  TYD215      0.5373
      6  O1B       55.6830   75.8020   29.6820 O.2   215  TYD215     -0.2221
      7  O2B       58.1710   75.9650   30.3180 O.3   215  TYD215     -0.1143
      8  O3B       57.0920   73.7260   30.0140 O.3   215  TYD215     -0.1143
      9  O5'       54.5120   75.9700   33.0920 O.3   215  TYD215     -0.3111
     10  C5'       53.9340   76.4130   34.3160 C.3   215  TYD215      0.1812
     11  C4'       52.8630   77.4620   34.0450 C.3   215  TYD215      0.1773
     12  O4'       52.0340   77.5720   35.2040 O.3   215  TYD215     -0.3339
     13  C3'       53.4590   78.8410   33.7940 C.3   215  TYD215      0.1857
     14  O3'       52.7040   79.5470   32.8120 O.3   215  TYD215     -0.2203
     15  C2'       53.3090   79.5470   35.1210 C.3   215  TYD215      0.0874
     16  C1'       52.0230   78.9250   35.6480 C.3   215  TYD215      0.2090
     17  N1        51.9390   78.9180   37.0930 N.am  215  TYD215     -0.1794
     18  C2        50.9610   79.6050   37.6930 C.1   215  TYD215      0.2844
     19  O2        50.1480   80.2610   36.9730 O.2   215  TYD215     -0.1918
     20  N3        50.8500   79.6000   39.0270 N.2   215  TYD215     -0.2455
     21  C4        51.7190   78.9080   39.7880 C.1   215  TYD215      0.2134
     22  O4        51.6250   78.8890   41.0320 O.2   215  TYD215     -0.2088
     23  C5        52.7930   78.1450   39.1330 C.2   215  TYD215      0.0891
     24  C5M       53.7890   77.3350   39.9340 C.3   215  TYD215      0.0462
     25  C6        52.8460   78.1910   37.7620 C.2   215  TYD215      0.0877
@<TRIPOS>BOND
     1     6     5    2
     2     8     5    1
     3     7     5    1
     4     5     4    1
     5     2     1    2
     6     4     1    1
     7     1     9    1
     8     1     3    1
     9    14    13    1
    10     9    10    1
    11    13    11    1
    12    13    15    1
    13    11    10    1
    14    11    12    1
    15    15    16    1
    16    12    16    1
    17    16    17    1
    18    19    18    2
    19    17    18   am
    20    17    25    1
    21    18    20    2
    22    25    23    2
    23    20    21    2
    24    23    21    1
    25    23    24    1
    26    21    22    2
