@<TRIPOS>MOLECULE
3lv8_TMP_A_1.pdb
 21 22 0 0 0
SMALL
GASTEIGER

@<TRIPOS>ATOM
      1  P         55.7670   76.3620   33.0520 P.3   214  TMP214      0.5327
      2  O1P       55.6380   77.5830   32.1770 O.2   214  TMP214     -0.2224
      3  O2P       55.6580   74.9970   32.4130 O.3   214  TMP214     -0.1145
      4  O3P       57.0670   76.4800   33.7670 O.3   214  TMP214     -0.1145
      5  O5'       54.5670   76.4550   34.1280 O.3   214  TMP214     -0.2675
      6  C5'       53.2480   76.0020   33.8130 C.3   214  TMP214      0.1858
      7  C4'       52.2350   77.1480   33.8150 C.3   214  TMP214      0.1774
      8  O4'       51.6890   77.3240   35.1230 O.3   214  TMP214     -0.3339
      9  C3'       52.8230   78.5000   33.4350 C.3   214  TMP214      0.1857
     10  O3'       51.9200   79.1250   32.5190 O.3   214  TMP214     -0.2203
     11  C2'       52.8970   79.3100   34.7130 C.3   214  TMP214      0.0874
     12  C1'       51.7390   78.7070   35.4870 C.3   214  TMP214      0.2090
     13  N1        51.8550   78.7840   36.9290 N.am  214  TMP214     -0.1794
     14  C2        50.9530   79.6010   37.6360 C.1   214  TMP214      0.2844
     15  O2        50.0970   80.2670   36.9840 O.2   214  TMP214     -0.1918
     16  N3        51.0200   79.6710   38.9680 N.2   214  TMP214     -0.2455
     17  C4        51.9420   78.9640   39.6490 C.1   214  TMP214      0.2134
     18  O4        51.9980   79.0250   40.8940 O.2   214  TMP214     -0.2088
     19  C5        52.8830   78.0940   38.9170 C.2   214  TMP214      0.0891
     20  C5M       53.9250   77.2720   39.6410 C.3   214  TMP214      0.0462
     21  C6        52.7840   78.0450   37.5450 C.2   214  TMP214      0.0877
@<TRIPOS>BOND
     1     2     1    2
     2     3     1    1
     3    10     9    1
     4     1     4    1
     5     1     5    1
     6     9     7    1
     7     9    11    1
     8     6     7    1
     9     6     5    1
    10     7     8    1
    11    11    12    1
    12     8    12    1
    13    12    13    1
    14    13    21    1
    15    13    14   am
    16    15    14    2
    17    21    19    2
    18    14    16    2
    19    19    20    1
    20    19    17    1
    21    16    17    2
    22    17    18    2
