@<TRIPOS>MOLECULE
3lv8_ADP_A_1.pdb
 27 29 0 0 0
SMALL
GASTEIGER

@<TRIPOS>ATOM
      1  PB        61.6060   78.8970   30.4570 P.3   213  ADP213      0.5373
      2  O1B       62.0400   80.0520   31.3590 O.3   213  ADP213     -0.1143
      3  O2B       61.8410   77.5520   31.0970 O.3   213  ADP213     -0.1143
      4  O3B       60.2390   79.0320   29.8400 O.2   213  ADP213     -0.2221
      5  PA        63.5450   77.8280   28.6320 P.3   213  ADP213      0.2231
      6  O1A       62.6830   76.6350   28.3270 O.2   213  ADP213     -0.5169
      7  O2A       64.8390   77.7660   29.3910 O.3   213  ADP213     -0.4370
      8  O3A       62.6110   79.0180   29.2180 O.3   213  ADP213     -0.2261
      9  O5'       63.9650   78.5760   27.2550 O.3   213  ADP213     -0.3111
     10  C5'       63.0050   78.6920   26.2070 C.3   213  ADP213      0.1813
     11  C4'       63.7170   78.9680   24.8840 C.3   213  ADP213      0.1821
     12  O4'       64.4420   80.2070   24.9270 O.3   213  ADP213     -0.3135
     13  C3'       64.7170   77.8720   24.5850 C.3   213  ADP213      0.2184
     14  O3'       64.6680   77.5530   23.1910 O.3   213  ADP213     -0.2174
     15  C2'       66.0460   78.4790   24.9550 C.3   213  ADP213      0.2570
     16  O2'       67.0690   77.9510   24.1260 O.3   213  ADP213     -0.2130
     17  C1'       65.8380   79.9750   24.7330 C.3   213  ADP213      0.3186
     18  N9        66.6350   80.8290   25.6400 N.pl3 213  ADP213     -0.1439
     19  C8        66.7790   80.6810   26.9710 C.3   213  ADP213      0.3377
     20  N7        67.5950   81.6360   27.4810 N.2   213  ADP213     -0.2095
     21  C5        67.9750   82.4270   26.4620 C.2   213  ADP213      0.2526
     22  C6        68.8210   83.6240   26.2970 C.2   213  ADP213      0.4393
     23  N6        69.4510   84.2170   27.3390 N.pl3 213  ADP213      0.2180
     24  N1        68.9580   84.1190   25.0440 N.2   213  ADP213      0.0021
     25  C2        68.3470   83.5750   23.9780 C.3   213  ADP213      0.5254
     26  N3        67.5660   82.4890   24.0520 N.2   213  ADP213     -0.0055
     27  C4        67.3430   81.8810   25.2500 C.2   213  ADP213      0.3518
@<TRIPOS>BOND
     1    14    13    1
     2    25    26    1
     3    25    24    1
     4    26    27    2
     5    16    15    1
     6    13    11    1
     7    13    15    1
     8    17    12    1
     9    17    15    1
    10    17    18    1
    11    11    12    1
    12    11    10    1
    13    24    22    2
    14    27    18    1
    15    27    21    1
    16    18    19    1
    17    10     9    1
    18    22    21    1
    19    22    23    1
    20    21    20    2
    21    19    20    1
    22     9     5    1
    23     6     5    2
    24     5     8    1
    25     5     7    1
    26     8     1    1
    27     4     1    2
    28     1     3    1
    29     1     2    1
