@<TRIPOS>MOLECULE
3lvf_NAD_O_1.pdb
 44 48 0 0 0
SMALL
GASTEIGER

@<TRIPOS>ATOM
      1  PA        21.9940   20.8110   19.2160 P.3   337  NAD337      0.2189
      2  O1A       20.9050   21.7080   19.6610 O.2   337  NAD337     -0.5170
      3  O2A       21.9220   19.4700   19.8370 O.3   337  NAD337     -0.4371
      4  O5B       23.4190   21.4940   19.5160 O.3   337  NAD337     -0.3112
      5  C5B       23.5750   22.8940   19.4950 C.3   337  NAD337      0.1813
      6  C4B       24.3150   23.3010   20.7640 C.3   337  NAD337      0.1821
      7  O4B       24.8390   24.6050   20.6210 O.3   337  NAD337     -0.3135
      8  C3B       23.4140   23.3080   21.9900 C.3   337  NAD337      0.2184
      9  O3B       24.0470   22.5310   22.9780 O.3   337  NAD337     -0.2174
     10  C2B       23.3290   24.7670   22.4060 C.3   337  NAD337      0.2570
     11  O2B       23.3200   24.9090   23.8090 O.3   337  NAD337     -0.2130
     12  C1B       24.5890   25.3590   21.7900 C.3   337  NAD337      0.3186
     13  N9A       24.4970   26.7710   21.3840 N.pl3 337  NAD337     -0.1439
     14  C8A       23.4480   27.4150   20.7760 C.3   337  NAD337      0.3377
     15  N7A       23.8060   28.7030   20.5620 N.2   337  NAD337     -0.2095
     16  C5A       25.0670   28.8830   21.0130 C.2   337  NAD337      0.2526
     17  C6A       25.9150   29.9850   21.0430 C.2   337  NAD337      0.4393
     18  N6A       25.5160   31.1500   20.5440 N.pl3 337  NAD337      0.2180
     19  N1A       27.1850   29.8560   21.5780 N.2   337  NAD337      0.0021
     20  C2A       27.6140   28.6490   22.0900 C.3   337  NAD337      0.5254
     21  N3A       26.7660   27.5580   22.0580 N.2   337  NAD337     -0.0055
     22  C4A       25.5160   27.6720   21.5300 C.2   337  NAD337      0.3518
     23  O3        21.9200   20.7310   17.6150 O.3   337  NAD337     -0.2703
     24  PN        22.6450   19.6080   16.7210 P.3   337  NAD337      0.2189
     25  O1N       21.6250   18.6140   16.3200 O.2   337  NAD337     -0.5170
     26  O2N       23.9050   19.1630   17.3630 O.3   337  NAD337     -0.4371
     27  O5D       23.0130   20.4750   15.4150 O.3   337  NAD337     -0.3112
     28  C5D       24.0260   21.4600   15.4410 C.3   337  NAD337      0.1813
     29  C4D       24.3900   21.8590   14.0110 C.3   337  NAD337      0.1799
     30  O4D       24.7680   20.7060   13.2730 O.3   337  NAD337     -0.3327
     31  C3D       23.2020   22.4660   13.2810 C.3   337  NAD337      0.2158
     32  O3D       23.6690   23.4690   12.4040 O.3   337  NAD337     -0.2175
     33  C2D       22.6370   21.3130   12.4770 C.3   337  NAD337      0.2309
     34  O2D       21.9780   21.7580   11.3160 O.3   337  NAD337     -0.2158
     35  C1D       23.9000   20.5180   12.1680 C.3   337  NAD337      0.2263
     36  N1N       23.6680   19.0840   11.8940 N.pl3 337  NAD337     -0.2787
     37  C2N       22.8430   18.3020   12.6710 C.3   337  NAD337      0.1244
     38  C3N       22.6690   16.9540   12.3480 C.2   337  NAD337      0.0544
     39  C7N       21.8430   16.0430   13.2110 C.2   337  NAD337      0.2818
     40  O7N       21.6020   16.3700   14.5570 O.2   337  NAD337     -0.2670
     41  N7N       21.3570   14.9290   12.6740 N.am  337  NAD337     -0.0839
     42  C4N       23.3330   16.4120   11.2470 C.2   337  NAD337      0.0033
     43  C5N       24.1650   17.2120   10.4740 C.2   337  NAD337      0.0157
     44  C6N       24.3190   18.5490   10.8140 C.2   337  NAD337      0.0633
@<TRIPOS>BOND
     1    43    44    2
     2    43    42    1
     3    44    36    1
     4    42    38    2
     5    34    33    1
     6    36    35    1
     7    36    37    1
     8    35    33    1
     9    35    30    1
    10    38    37    1
    11    38    39    1
    12    32    31    1
    13    33    31    1
    14    41    39   am
    15    39    40    2
    16    30    29    1
    17    31    29    1
    18    29    28    1
    19    27    28    1
    20    27    24    1
    21    25    24    2
    22    24    26    1
    23    24    23    1
    24    23     1    1
    25     1     4    1
    26     1     2    2
    27     1     3    1
    28     5     4    1
    29     5     6    1
    30    18    17    1
    31    15    14    1
    32    15    16    2
    33     7     6    1
    34     7    12    1
    35     6     8    1
    36    14    13    1
    37    16    17    1
    38    16    22    1
    39    17    19    2
    40    13    22    1
    41    13    12    1
    42    22    21    2
    43    19    20    1
    44    12    10    1
    45     8    10    1
    46     8     9    1
    47    21    20    1
    48    10    11    1
