@<TRIPOS>MOLECULE
3lvj_PLP_A_1.pdb
 15 15 0 0 0
SMALL
GASTEIGER

@<TRIPOS>ATOM
      1  N1       -10.7970   -4.0410   -8.0680 N.ar  764  PLP764     -0.2452
      2  C2       -11.6950   -4.5390   -8.9490 C.ar  764  PLP764      0.0978
      3  C2A      -13.1560   -4.4700   -8.6580 C.3   764  PLP764      0.0555
      4  C3       -11.2500   -5.1150  -10.1330 C.ar  764  PLP764      0.2049
      5  O3       -12.1730   -5.6330  -11.0550 O.3   764  PLP764     -0.2857
      6  C4        -9.8970   -5.1840  -10.4190 C.ar  764  PLP764      0.0182
      7  C4A       -9.4460   -5.8180  -11.7330 C.3   764  PLP764      0.0342
      8  C5        -8.9870   -4.6700   -9.4970 C.ar  764  PLP764      0.0261
      9  C6        -9.4780   -4.0950   -8.3160 C.ar  764  PLP764      0.0965
     10  C5A       -7.4950   -4.7280   -9.7850 C.3   764  PLP764      0.1815
     11  O4P       -6.9890   -3.7990  -10.8380 O.3   764  PLP764     -0.2653
     12  P         -5.5360   -3.9340  -11.3650 P.3   764  PLP764      0.5329
     13  O1P       -5.1390   -2.6780  -12.0660 O.3   764  PLP764     -0.1145
     14  O2P       -5.4520   -5.0870  -12.3130 O.2   764  PLP764     -0.2224
     15  O3P       -4.5740   -4.1930  -10.1690 O.3   764  PLP764     -0.1145
@<TRIPOS>BOND
     1    14    12    2
     2    13    12    1
     3     7     6    1
     4    12    11    1
     5    12    15    1
     6     5     4    1
     7    11    10    1
     8     6     4   ar
     9     6     8   ar
    10     4     2   ar
    11    10     8    1
    12     8     9   ar
    13     2     3    1
    14     2     1   ar
    15     9     1   ar
