@<TRIPOS>MOLECULE
3lvk_PLP_A_1.pdb
 15 15 0 0 0
SMALL
GASTEIGER

@<TRIPOS>ATOM
      1  N1        13.8030  -24.2670   30.5920 N.ar  764  PLP764     -0.2452
      2  C2        14.7750  -23.5060   31.1090 C.ar  764  PLP764      0.0978
      3  C2A       16.1930  -23.9210   30.9390 C.3   764  PLP764      0.0555
      4  C3        14.4920  -22.3420   31.8060 C.ar  764  PLP764      0.2049
      5  O3        15.5150  -21.5840   32.3280 O.3   764  PLP764     -0.2857
      6  C4        13.1570  -21.9610   31.9710 C.ar  764  PLP764      0.0182
      7  C4A       12.8020  -20.7170   32.7180 C.3   764  PLP764      0.0342
      8  C5        12.1550  -22.7610   31.4240 C.ar  764  PLP764      0.0261
      9  C6        12.5180  -23.9140   30.7420 C.ar  764  PLP764      0.0965
     10  C5A       10.7130  -22.3840   31.5840 C.3   764  PLP764      0.1815
     11  O4P       10.0990  -21.6500   30.5820 O.3   764  PLP764     -0.2653
     12  P          8.6630  -21.0650   30.7800 P.3   764  PLP764      0.5329
     13  O1P        8.3730  -20.1030   29.6500 O.2   764  PLP764     -0.2224
     14  O2P        8.6170  -20.3460   32.1050 O.3   764  PLP764     -0.1145
     15  O3P        7.6310  -22.1710   30.7810 O.3   764  PLP764     -0.1145
@<TRIPOS>BOND
     1    13    12    2
     2    11    12    1
     3    11    10    1
     4     1     9   ar
     5     1     2   ar
     6     9     8   ar
     7    12    15    1
     8    12    14    1
     9     3     2    1
    10     2     4   ar
    11     8    10    1
    12     8     6   ar
    13     4     6   ar
    14     4     5    1
    15     6     7    1
