@<TRIPOS>MOLECULE
3lvl_PLP_B_1.pdb
 15 15 0 0 0
SMALL
GASTEIGER

@<TRIPOS>ATOM
      1  N1       -33.0970   13.6180   -4.8100 N.ar  764  PLP764     -0.2452
      2  C2       -33.9500   14.6690   -4.8890 C.ar  764  PLP764      0.0978
      3  C2A      -33.6150   15.7370   -5.8770 C.3   764  PLP764      0.0555
      4  C3       -35.0900   14.7600   -4.0770 C.ar  764  PLP764      0.2049
      5  O3       -35.9050   15.8550   -4.2150 O.3   764  PLP764     -0.2857
      6  C4       -35.3740   13.7480   -3.1550 C.ar  764  PLP764      0.0182
      7  C4A      -36.5630   13.7970   -2.2780 C.3   764  PLP764      0.0342
      8  C5       -34.5010   12.6620   -3.0710 C.ar  764  PLP764      0.0261
      9  C6       -33.3880   12.6600   -3.9190 C.ar  764  PLP764      0.0965
     10  C5A      -34.7040   11.4800   -2.1070 C.3   764  PLP764      0.1815
     11  O4P      -35.2040   10.4230   -2.7750 O.3   764  PLP764     -0.2653
     12  P        -36.4190    9.3360   -1.8920 P.3   764  PLP764      0.5329
     13  O1P      -37.0430    8.5350   -2.9930 O.2   764  PLP764     -0.2224
     14  O2P      -37.2590   10.3680   -1.1990 O.3   764  PLP764     -0.1145
     15  O3P      -35.4470    8.5900   -0.9790 O.3   764  PLP764     -0.1145
@<TRIPOS>BOND
     1     3     2    1
     2     2     1   ar
     3     2     4   ar
     4     1     9   ar
     5     5     4    1
     6     4     6   ar
     7     9     8   ar
     8     6     8   ar
     9     6     7    1
    10     8    10    1
    11    13    12    2
    12    11    10    1
    13    11    12    1
    14    12    14    1
    15    12    15    1
