@<TRIPOS>MOLECULE
3lvm_PLP_A_1.pdb
 15 15 0 0 0
SMALL
GASTEIGER

@<TRIPOS>ATOM
      1  N1        20.4680   -2.2590   -7.9070 N.ar  764  PLP764     -0.2452
      2  C2        19.4450   -2.6080   -8.7920 C.ar  764  PLP764      0.0978
      3  C2A       18.0090   -2.3000   -8.4620 C.3   764  PLP764      0.0555
      4  C3        19.7610   -3.2520  -10.0040 C.ar  764  PLP764      0.2049
      5  O3        18.7570   -3.7350  -10.8020 O.3   764  PLP764     -0.2857
      6  C4        21.0950   -3.5530  -10.3360 C.ar  764  PLP764      0.0182
      7  C4A       21.3630   -4.3030  -11.6310 C.3   764  PLP764      0.0342
      8  C5        22.1150   -3.1900   -9.4240 C.ar  764  PLP764      0.0261
      9  C6        21.7970   -2.5510   -8.2140 C.ar  764  PLP764      0.0965
     10  C5A       23.5580   -3.5710   -9.6790 C.3   764  PLP764      0.1815
     11  O4P       24.1140   -2.6110  -10.5570 O.3   764  PLP764     -0.2653
     12  P         25.5270   -2.8370  -11.3200 P.3   764  PLP764      0.5329
     13  O1P       25.8380   -1.5810  -12.1390 O.3   764  PLP764     -0.1145
     14  O2P       25.3570   -3.9970  -12.2440 O.2   764  PLP764     -0.2224
     15  O3P       26.5660   -3.1660  -10.2820 O.3   764  PLP764     -0.1145
@<TRIPOS>BOND
     1    14    12    2
     2    13    12    1
     3     7     6    1
     4    12    11    1
     5    12    15    1
     6     5     4    1
     7    11    10    1
     8     6     4   ar
     9     6     8   ar
    10     4     2   ar
    11    10     8    1
    12     8     9   ar
    13     2     3    1
    14     2     1   ar
    15     9     1   ar
