@<TRIPOS>MOLECULE
3lvp_PDR_A_1.pdb
 24 27 0 0 0
SMALL
GASTEIGER

@<TRIPOS>ATOM
      1 CL          1.4650   57.3500   16.7910 Cl      1  PDR1       -0.1045
      2  C1         2.6170   52.6810   12.7820 C.ar    1  PDR1        0.1539
      3  C2         2.8760   51.6660   11.8810 C.ar    1  PDR1        0.0887
      4  C3         2.8050   50.3280   12.3290 C.2     1  PDR1        0.0333
      5  C4         2.4670   50.0280   13.6850 C.3     1  PDR1        0.2275
      6  C5         2.2110   51.1220   14.5690 C.2     1  PDR1        0.2850
      7  N6         2.2810   52.4260   14.1310 N.2     1  PDR1       -0.3675
      8  C7         2.7360   53.9290   12.1410 C.ar    1  PDR1        0.0787
      9  C8         3.0870   53.5760   10.8140 C.ar    1  PDR1        0.0812
     10  N9         3.1740   52.1930   10.6550 N.ar    1  PDR1       -0.3221
     11  C10        2.1370   56.9050   14.1150 C.2     1  PDR1        0.0733
     12  C11        2.4390   57.4250   12.8440 C.1     1  PDR1        0.0848
     13  N12        2.6990   56.4140   11.9500 N.2     1  PDR1       -0.3505
     14  C13        2.5380   55.2900   12.7450 C.2     1  PDR1        0.1471
     15  C14        2.1840   55.5020   14.1150 C.2     1  PDR1        0.0413
     16  C15        1.8730   59.2820   14.8710 C.2     1  PDR1        0.0163
     17  C16        2.1940   59.6820   13.5320 C.2     1  PDR1        0.1075
     18  N17        2.4680   58.7870   12.5480 N.2     1  PDR1       -0.1828
     19  C18        1.8460   57.8830   15.1640 C.3     1  PDR1        0.1359
     20  C20        3.5150   51.4620    9.4160 C.3     1  PDR1        0.1305
     21  O21        1.8810   50.8380   15.9130 O.2     1  PDR1       -0.4488
     22  C22        1.3220   51.9500   16.6210 C.3     1  PDR1        0.2551
     23  O23        2.3800   48.7270   14.1920 O.3     1  PDR1       -0.3391
     24  C24        1.5400   47.7920   13.4990 C.3     1  PDR1        0.1752
@<TRIPOS>BOND
     1    20    10    1
     2    10     9   ar
     3    10     3   ar
     4     9     8   ar
     5     3     4    2
     6     3     2   ar
     7    13    14    2
     8    13    12    2
     9     8    14    1
    10     8     2   ar
    11     4     5    1
    12    18    12    2
    13    18    17    1
    14    14    15    1
    15     2     7    2
    16    12    11    1
    17    24    23    1
    18    17    16    2
    19     5    23    1
    20     5     6    1
    21    11    15    2
    22    11    19    1
    23     7     6    2
    24     6    21    1
    25    16    19    1
    26    19     1    1
    27    21    22    1
