@<TRIPOS>MOLECULE
3lvq_GDP_E_1.pdb
 28 30 0 0 0
SMALL
GASTEIGER

@<TRIPOS>ATOM
      1  PB       -28.4100   53.9480   -1.4220 P.3   682  GDP682      0.5373
      2  O1B      -28.2040   53.4280   -2.8400 O.2   682  GDP682     -0.2221
      3  O2B      -27.8650   55.2980   -1.3340 O.3   682  GDP682     -0.1143
      4  O3B      -29.8940   54.0850   -1.2740 O.3   682  GDP682     -0.1143
      5  O3A      -27.7630   53.0370   -0.2830 O.3   682  GDP682     -0.2261
      6  PA       -27.7060   53.7080    1.1900 P.3   682  GDP682      0.2231
      7  O1A      -26.7480   54.8980    1.1470 O.2   682  GDP682     -0.5169
      8  O2A      -29.0960   54.1480    1.6090 O.3   682  GDP682     -0.4370
      9  O5'      -27.2930   52.3780    2.1220 O.3   682  GDP682     -0.3111
     10  C5'      -28.1380   51.1370    1.9670 C.3   682  GDP682      0.1813
     11  C4'      -27.8990   50.2900    3.1830 C.3   682  GDP682      0.1799
     12  O4'      -26.5720   49.7000    2.9240 O.3   682  GDP682     -0.3326
     13  C3'      -27.6860   51.3020    4.3390 C.3   682  GDP682      0.2158
     14  O3'      -28.4860   50.9260    5.4810 O.3   682  GDP682     -0.2175
     15  C2'      -26.2100   51.2610    4.7090 C.3   682  GDP682      0.2310
     16  O2'      -26.0530   51.2100    6.1430 O.3   682  GDP682     -0.2158
     17  C1'      -25.7210   49.9640    4.0490 C.3   682  GDP682      0.2293
     18  N9       -24.3210   50.0760    3.5720 N.pl3 682  GDP682     -0.2354
     19  C8       -23.8280   51.0320    2.7580 C.3   682  GDP682      0.2246
     20  N7       -22.5090   50.8140    2.5310 N.2   682  GDP682     -0.2322
     21  C5       -22.1590   49.7080    3.2080 C.2   682  GDP682      0.2182
     22  C6       -20.9160   48.9290    3.3980 C.1   682  GDP682      0.2372
     23  O6       -19.8580   49.2910    2.8400 O.2   682  GDP682     -0.2069
     24  N1       -20.9640   47.8240    4.1710 N.2   682  GDP682     -0.2485
     25  C2       -22.1030   47.4090    4.7820 C.1   682  GDP682      0.2531
     26  N2       -22.0420   46.2830    5.5460 N.pl3 682  GDP682     -0.0226
     27  N3       -23.2880   48.0860    4.6510 N.2   682  GDP682     -0.3074
     28  C4       -23.3600   49.2140    3.8950 C.2   682  GDP682      0.2300
@<TRIPOS>BOND
     1     2     1    2
     2     1     3    1
     3     1     4    1
     4     1     5    1
     5     5     6    1
     6     7     6    2
     7     6     8    1
     8     6     9    1
     9    10     9    1
    10    10    11    1
    11    20    19    1
    12    20    21    2
    13    19    18    1
    14    23    22    2
    15    12    11    1
    16    12    17    1
    17    11    13    1
    18    21    22    1
    19    21    28    1
    20    22    24    2
    21    18    28    1
    22    18    17    1
    23    28    27    2
    24    17    15    1
    25    24    25    2
    26    13    15    1
    27    13    14    1
    28    27    25    2
    29    15    16    1
    30    25    26    1
