@<TRIPOS>MOLECULE
3lvr_GDP_E_1.pdb
 28 30 0 0 0
SMALL
GASTEIGER

@<TRIPOS>ATOM
      1  PB        28.6380   54.2150   -1.2140 P.3   737  GDP737      0.5373
      2  O1B       27.8560   53.8580    0.0190 O.3   737  GDP737     -0.1143
      3  O2B       28.4600   55.6770   -1.5260 O.2   737  GDP737     -0.2221
      4  O3B       30.0960   53.9400   -0.9670 O.3   737  GDP737     -0.1143
      5  O3A       28.1270   53.2990   -2.4310 O.3   737  GDP737     -0.2261
      6  PA        27.9240   53.8730   -3.9180 P.3   737  GDP737      0.2231
      7  O1A       26.9280   54.9940   -3.8650 O.3   737  GDP737     -0.4370
      8  O2A       29.2230   54.3660   -4.5070 O.2   737  GDP737     -0.5169
      9  O5'       27.3690   52.6080   -4.7370 O.3   737  GDP737     -0.3111
     10  C5'       28.1990   51.4550   -4.7550 C.3   737  GDP737      0.1813
     11  C4'       27.9090   50.5940   -5.9650 C.3   737  GDP737      0.1799
     12  O4'       26.7100   49.8740   -5.7140 O.3   737  GDP737     -0.3326
     13  C3'       27.7080   51.4120   -7.2350 C.3   737  GDP737      0.2158
     14  O3'       28.6210   50.9740   -8.2440 O.3   737  GDP737     -0.2175
     15  C2'       26.2960   51.1300   -7.6980 C.3   737  GDP737      0.2310
     16  O2'       26.2860   50.7870   -9.0880 O.3   737  GDP737     -0.2158
     17  C1'       25.8330   49.9610   -6.8400 C.3   737  GDP737      0.2293
     18  N9        24.4290   50.1530   -6.3880 N.pl3 737  GDP737     -0.2354
     19  C8        23.9740   51.1420   -5.5940 C.3   737  GDP737      0.2246
     20  N7        22.6420   51.0100   -5.3770 N.2   737  GDP737     -0.2322
     21  C5        22.2290   49.9180   -6.0440 C.2   737  GDP737      0.2182
     22  C6        20.9460   49.2030   -6.2450 C.1   737  GDP737      0.2372
     23  O6        19.8970   49.6140   -5.7130 O.2   737  GDP737     -0.2069
     24  N1        20.9370   48.0960   -7.0030 N.2   737  GDP737     -0.2485
     25  C2        22.0510   47.6200   -7.5880 C.1   737  GDP737      0.2531
     26  N2        21.9540   46.4960   -8.3390 N.pl3 737  GDP737     -0.0226
     27  N3        23.2620   48.2250   -7.4470 N.2   737  GDP737     -0.3074
     28  C4        23.4080   49.3540   -6.7070 C.2   737  GDP737      0.2300
@<TRIPOS>BOND
     1    16    15    1
     2    26    25    1
     3    14    13    1
     4    15    13    1
     5    15    17    1
     6    25    27    2
     7    25    24    2
     8    27    28    2
     9    13    11    1
    10    24    22    2
    11    17    18    1
    12    17    12    1
    13    28    18    1
    14    28    21    1
    15    18    19    1
    16    22    21    1
    17    22    23    2
    18    21    20    2
    19    11    12    1
    20    11    10    1
    21    19    20    1
    22    10     9    1
    23     9     6    1
    24     8     6    2
    25     6     7    1
    26     6     5    1
    27     5     1    1
    28     3     1    2
    29     1     4    1
    30     1     2    1
