@<TRIPOS>MOLECULE
3lvv_ADP_A_1.pdb
 27 29 0 0 0
SMALL
GASTEIGER

@<TRIPOS>ATOM
      1  PB        31.9590   -8.1930   17.2390 P.3   694  ADP694      0.5373
      2  O1B       30.5650   -8.5860   17.6490 O.3   694  ADP694     -0.1143
      3  O2B       32.9050   -8.3480   18.3910 O.3   694  ADP694     -0.1143
      4  O3B       32.0300   -6.8360   16.5940 O.2   694  ADP694     -0.2221
      5  PA        33.5700   -9.4600   15.1330 P.3   694  ADP694      0.2231
      6  O1A       32.8300  -10.1300   14.0100 O.2   694  ADP694     -0.5169
      7  O2A       34.4400   -8.2810   14.8450 O.3   694  ADP694     -0.4370
      8  O3A       32.4020   -9.3730   16.2630 O.3   694  ADP694     -0.2261
      9  O5'       34.7690  -10.3510   15.6870 O.3   694  ADP694     -0.3111
     10  C5'       34.5320  -11.5850   16.3430 C.3   694  ADP694      0.1813
     11  C4'       35.8490  -11.8660   17.0580 C.3   694  ADP694      0.1821
     12  O4'       35.6610  -13.1790   17.6140 O.3   694  ADP694     -0.3135
     13  C3'       37.0460  -11.9230   16.1110 C.3   694  ADP694      0.2184
     14  O3'       38.2900  -11.5550   16.7750 O.3   694  ADP694     -0.2174
     15  C2'       37.0770  -13.4180   15.7910 C.3   694  ADP694      0.2570
     16  O2'       38.3170  -13.9200   15.3660 O.3   694  ADP694     -0.2130
     17  C1'       36.7430  -14.0120   17.1510 C.3   694  ADP694      0.3186
     18  N9        36.1520  -15.3290   17.0430 N.pl3 694  ADP694     -0.1439
     19  C8        35.5800  -15.9050   15.9420 C.3   694  ADP694      0.3377
     20  N7        35.1110  -17.1480   16.2810 N.2   694  ADP694     -0.2095
     21  C5        35.3910  -17.3380   17.5990 C.2   694  ADP694      0.2526
     22  C6        35.1900  -18.4090   18.5870 C.2   694  ADP694      0.4393
     23  N6        34.5560  -19.5600   18.2310 N.pl3 694  ADP694      0.2180
     24  N1        35.6600  -18.1890   19.8540 N.2   694  ADP694      0.0021
     25  C2        36.2550  -17.0350   20.2090 C.3   694  ADP694      0.5254
     26  N3        36.4680  -16.0220   19.3560 N.2   694  ADP694     -0.0055
     27  C4        36.0700  -16.1310   18.0800 C.2   694  ADP694      0.3518
@<TRIPOS>BOND
     1     6     5    2
     2     7     5    1
     3     5     9    1
     4     5     8    1
     5    16    15    1
     6     9    10    1
     7    15    13    1
     8    15    17    1
     9    19    20    1
    10    19    18    1
    11    13    14    1
    12    13    11    1
    13     8     1    1
    14    20    21    2
    15    10    11    1
    16     4     1    2
    17    18    17    1
    18    18    27    1
    19    11    12    1
    20    17    12    1
    21     1     2    1
    22     1     3    1
    23    21    27    1
    24    21    22    1
    25    27    26    2
    26    23    22    1
    27    22    24    2
    28    26    25    1
    29    24    25    1
