@<TRIPOS>MOLECULE
3lvv_LBP_A_1.pdb
 18 17 0 0 0
SMALL
GASTEIGER

@<TRIPOS>ATOM
      1  N         35.4990    1.7060   18.5250 N.3   693  LBP693     -0.1208
      2  P         32.7030   -4.2190   17.7420 P.3   693  LBP693      0.4896
      3  S         32.3430   -1.5410   18.4230 S.3   693  LBP693      0.0012
      4  C1        35.8950    1.3070   20.9080 C.2   693  LBP693      0.3819
      5  O1        35.5830    0.8140   22.0460 O.co2 693  LBP693     -0.2441
      6  CA        34.8980    1.2360   19.7710 C.3   693  LBP693      0.1953
      7  CB        34.3390   -0.2000   19.5580 C.3   693  LBP693      0.0443
      8  CD        31.0940   -1.2720   17.3180 C.3   693  LBP693      0.0838
      9  CE        30.4190    0.1240   17.4180 C.3   693  LBP693      0.0137
     10  CF        29.3760    0.3090   16.3090 C.3   693  LBP693      0.0010
     11  CG        33.1810   -0.0990   18.5730 C.3   693  LBP693      0.0858
     12  NS        33.3310   -2.6740   17.9970 N.3   693  LBP693     -0.0523
     13  OS        31.6230   -1.6320   19.8170 O.3   693  LBP693     -0.1552
     14  C18       28.6820    1.6610   16.3510 C.3   693  LBP693      0.0000
     15  O1T       36.9840    1.9110   20.7150 O.co2 693  LBP693     -0.2441
     16  OP1       31.2470   -4.0430   17.6400 O.3   693  LBP693     -0.1237
     17  OP2       33.0680   -5.0090   18.9650 O.3   693  LBP693     -0.1237
     18  OP3       33.4830   -4.5770   16.4770 O.2   693  LBP693     -0.2328
@<TRIPOS>BOND
     1    10    14    1
     2    10     9    1
     3    18     2    2
     4     8     9    1
     5     8     3    1
     6    16     2    1
     7     2    12    1
     8     2    17    1
     9    12     3    1
    10     3    11    1
    11     3    13    1
    12     1     6    1
    13    11     7    1
    14     7     6    1
    15     6     4    1
    16    15     4   ar
    17     4     5   ar
