@<TRIPOS>MOLECULE
3lvw_GSH_A_1.pdb
 20 19 0 0 0
SMALL
GASTEIGER

@<TRIPOS>ATOM
      1  N1         1.5710   35.5950  -18.6260 N.3   693  GSH693     -0.1208
      2  CA1        0.9400   34.9980  -19.8150 C.3   693  GSH693      0.1948
      3  C1         1.0610   35.8670  -21.0700 C.2   693  GSH693      0.3819
      4  O11        0.6150   35.3250  -22.1390 O.co2 693  GSH693     -0.2441
      5  O12        1.5960   37.0510  -21.0330 O.co2 693  GSH693     -0.2441
      6  CB1       -0.5580   34.7450  -19.6180 C.3   693  GSH693      0.0402
      7  CG1       -0.9570   33.9430  -18.3810 C.3   693  GSH693      0.0889
      8  CD1       -0.6500   32.4680  -18.6060 C.2   693  GSH693      0.2418
      9  OE1       -0.6650   31.9560  -19.7230 O.2   693  GSH693     -0.2733
     10  N2        -0.3790   31.8080  -17.4910 N.am  693  GSH693     -0.1968
     11  CA2       -0.0930   30.3970  -17.4670 C.3   693  GSH693      0.1843
     12  C2        -1.3610   29.6390  -17.2150 C.2   693  GSH693      0.2627
     13  O2        -1.5520   28.6450  -17.8730 O.2   693  GSH693     -0.2714
     14  CB2        0.9660   30.1780  -16.3730 C.3   693  GSH693      0.0997
     15  SG2        1.6530   28.4950  -16.2930 S.3   693  GSH693     -0.0797
     16  N3        -2.2380   30.0930  -16.3200 N.am  693  GSH693     -0.1917
     17  CA3       -3.4970   29.4650  -15.9260 C.3   693  GSH693      0.2285
     18  C3        -3.1200   28.3820  -14.9020 C.2   693  GSH693      0.3865
     19  O31       -1.9530   28.3860  -14.4020 O.co2 693  GSH693     -0.2437
     20  O32       -3.9610   27.4980  -14.5620 O.co2 693  GSH693     -0.2437
@<TRIPOS>BOND
     1     4     3   ar
     2     3     5   ar
     3     3     2    1
     4     2     6    1
     5     2     1    1
     6     9     8    2
     7     6     7    1
     8     8     7    1
     9     8    10   am
    10    13    12    2
    11    10    11    1
    12    11    12    1
    13    11    14    1
    14    12    16   am
    15    14    15    1
    16    16    17    1
    17    17    18    1
    18    18    20   ar
    19    18    19   ar
