@<TRIPOS>MOLECULE
3lw0_CCX_A_1.pdb
 35 39 0 0 0
SMALL
GASTEIGER

@<TRIPOS>ATOM
      1  C1        -1.7020  -22.5570  -56.0160 C.2     1  CCX1        0.0122
      2  C2        -0.5290  -22.6360  -56.7460 C.2     1  CCX1        0.0805
      3  C3        -2.4910  -21.4040  -56.0170 C.2     1  CCX1       -0.0058
      4  C4        -0.0740  -21.5530  -57.5000 C.2     1  CCX1        0.0159
      5  C5        -2.0470  -20.3140  -56.7880 C.3     1  CCX1        0.1353
      6  C6        -0.8480  -20.3940  -57.5210 C.2     1  CCX1       -0.0055
      7  C7        -1.8670  -23.7750  -55.3800 C.2     1  CCX1       -0.0019
      8  C8        -0.7720  -24.5640  -55.7380 C.2     1  CCX1        0.0946
      9  N9         0.0190  -23.8580  -56.5610 N.2     1  CCX1       -0.2442
     10  C10       -3.0190  -24.1540  -54.4620 C.3     1  CCX1        0.0280
     11  C11       -2.8280  -19.1130  -56.8110 C.1     1  CCX1        0.0810
     12  N12       -3.4780  -18.1500  -56.8000 N.1     1  CCX1       -0.1952
     13  C13       -2.5680  -24.1880  -53.0010 C.3     1  CCX1        0.0062
     14  C14       -3.6820  -24.5270  -52.0160 C.3     1  CCX1        0.0177
     15  C15       -4.4390  -23.2640  -51.5930 C.3     1  CCX1        0.0721
     16  C16       -6.8630  -24.4190  -48.8430 C.3     1  CCX1        0.0390
     17  C17       -7.2920  -22.9860  -48.5370 C.3     1  CCX1        0.0984
     18  C18       -5.5740  -24.3320  -49.6840 C.3     1  CCX1        0.0739
     19  C19       -7.6570  -22.3370  -49.8680 C.3     1  CCX1        0.0390
     20  N20       -5.7470  -23.5410  -50.9450 N.3     1  CCX1       -0.2726
     21  C21       -6.3960  -22.2250  -50.7270 C.3     1  CCX1        0.0739
     22  N22       -8.4220  -22.9300  -47.5980 N.am    1  CCX1       -0.2033
     23  C23       -8.6310  -21.7860  -46.7580 C.2     1  CCX1        0.2659
     24  C24       -9.7980  -21.7450  -45.8590 C.2     1  CCX1        0.0687
     25  C25      -12.0510  -21.6110  -44.1710 C.2     1  CCX1       -0.0192
     26  C26      -11.1960  -22.6980  -44.1560 C.2     1  CCX1        0.0250
     27  C27      -11.7710  -20.5710  -45.0510 C.3     1  CCX1        0.0523
     28  C28      -10.0950  -22.7730  -44.9750 C.2     1  CCX1        0.0858
     29  C29      -10.6520  -20.6400  -45.8900 C.2     1  CCX1       -0.0153
     30  C30      -11.2350  -23.8400  -43.3980 C.2     1  CCX1        0.0886
     31  C31      -10.1430  -24.6000  -43.7770 C.2     1  CCX1        0.1091
     32  N32       -9.4650  -23.9330  -44.7360 N.2     1  CCX1       -0.2430
     33  C33      -12.2270  -24.1630  -42.4200 C.1     1  CCX1        0.1020
     34  N34      -13.0930  -24.3560  -41.6660 N.1     1  CCX1       -0.1908
     35  O35       -7.8690  -20.8450  -46.7670 O.2     1  CCX1       -0.2683
@<TRIPOS>BOND
     1     6     4    2
     2     6     5    1
     3     4     2    1
     4    11    12    3
     5    11     5    1
     6     5     3    1
     7     2     9    2
     8     2     1    1
     9     9     8    1
    10     3     1    2
    11     1     7    1
    12     8     7    2
    13     7    10    1
    14    10    13    1
    15    13    14    1
    16    14    15    1
    17    15    20    1
    18    20    21    1
    19    20    18    1
    20    21    19    1
    21    19    17    1
    22    18    16    1
    23    16    17    1
    24    17    22    1
    25    22    23   am
    26    35    23    2
    27    23    24    1
    28    29    24    2
    29    29    27    1
    30    24    28    1
    31    27    25    1
    32    28    32    2
    33    28    26    1
    34    32    31    1
    35    25    26    2
    36    26    30    1
    37    31    30    2
    38    30    33    1
    39    33    34    3
