@<TRIPOS>MOLECULE
3lw5_PQN_A_1.pdb
 33 34 0 0 0
SMALL
GASTEIGER

@<TRIPOS>ATOM
      1  C1        15.4220   -5.4720   66.4410 C.2   5001  PQN5001     0.1915
      2  O1        14.3760   -5.1630   65.8040 O.2   5001  PQN5001    -0.2869
      3  C2        16.7590   -4.8560   66.1430 C.2   5001  PQN5001     0.0165
      4  C2M       16.9010   -3.8250   65.0660 C.3   5001  PQN5001     0.0342
      5  C3        17.9610   -5.2570   66.9220 C.2   5001  PQN5001     0.0202
      6  C4        17.8550   -6.2660   68.0000 C.2   5001  PQN5001     0.1918
      7  O4        18.8870   -6.5880   68.6290 O.2   5001  PQN5001    -0.2869
      8  C5        16.5340   -6.8800   68.2990 C.ar  5001  PQN5001     0.0417
      9  C6        16.3960   -7.8190   69.2940 C.ar  5001  PQN5001     0.0033
     10  C7        15.1400   -8.3590   69.5570 C.ar  5001  PQN5001     0.0001
     11  C8        13.9970   -7.9990   68.8500 C.ar  5001  PQN5001     0.0001
     12  C9        14.0900   -7.0600   67.8340 C.ar  5001  PQN5001     0.0033
     13  C10       15.3210   -6.4850   67.5350 C.ar  5001  PQN5001     0.0417
     14  C11       19.3160   -4.6530   66.6440 C.3   5001  PQN5001     0.0547
     15  C12       19.4610   -3.4340   67.5350 C.2   5001  PQN5001    -0.0298
     16  C13       20.6050   -3.0690   68.1520 C.2   5001  PQN5001    -0.0478
     17  C14       21.8600   -3.9020   68.0040 C.3   5001  PQN5001     0.0260
     18  C15       20.5670   -1.8020   68.9930 C.3   5001  PQN5001     0.0217
     19  C16       21.7800   -1.6380   69.9000 C.3   5001  PQN5001     0.0043
     20  C17       22.6440   -0.5200   69.3420 C.3   5001  PQN5001     0.0003
     21  C18       23.4400    0.1490   70.4400 C.3   5001  PQN5001     0.0000
     22  C19       22.4940    1.0180   71.2670 C.3   5001  PQN5001     0.0000
     23  C20       24.5810    0.9810   69.8590 C.3   5001  PQN5001     0.0000
     24  C21       25.4990    1.3450   71.0130 C.3   5001  PQN5001     0.0000
     25  C22       26.8450    1.8480   70.5150 C.3   5001  PQN5001     0.0000
     26  C23       27.2610    3.2100   71.0870 C.3   5001  PQN5001     0.0000
     27  C24       26.5030    3.5630   72.3930 C.3   5001  PQN5001     0.0000
     28  C25       28.7830    3.1360   71.3200 C.3   5001  PQN5001     0.0000
     29  C26       29.5320    4.4320   71.0270 C.3   5001  PQN5001     0.0000
     30  C27       29.1450    5.4860   72.0550 C.3   5001  PQN5001     0.0000
     31  C28       28.8330    6.7920   71.3180 C.3   5001  PQN5001     0.0000
     32  C29       28.1910    6.7910   69.9250 C.3   5001  PQN5001     0.0000
     33  C30       29.6510    8.0100   71.8310 C.3   5001  PQN5001     0.0000
@<TRIPOS>BOND
     1     4     3    1
     2     2     1    2
     3     3     1    1
     4     3     5    2
     5     1    13    1
     6    14     5    1
     7    14    15    1
     8     5     6    1
     9    15    16    2
    10    13    12   ar
    11    13     8   ar
    12    12    11   ar
    13     6     8    1
    14     6     7    2
    15    17    16    1
    16    16    18    1
    17     8     9   ar
    18    11    10   ar
    19    18    19    1
    20     9    10   ar
    21    20    19    1
    22    20    21    1
    23    23    21    1
    24    23    24    1
    25    32    31    1
    26    21    22    1
    27    25    24    1
    28    25    26    1
    29    29    28    1
    30    29    30    1
    31    26    28    1
    32    26    27    1
    33    31    33    1
    34    31    30    1
