@<TRIPOS>MOLECULE
3lw5_CLA_1_1.pdb
 46 52 0 0 0
SMALL
GASTEIGER

@<TRIPOS>ATOM
      1 MG         69.0720  -18.6240    8.0700 Mg    1001  CLA1001     0.0000
      2  CHA       71.4160  -17.1970   10.0970 C.2   1001  CLA1001     0.0000
      3  CHB       69.0330  -16.0160    6.0130 C.2   1001  CLA1001     0.0000
      4  CHC       66.6320  -20.2900    6.0460 C.2   1001  CLA1001     0.0000
      5  CHD       69.1110  -21.5450   10.2910 C.2   1001  CLA1001     0.0000
      6  NA        70.0500  -16.8880    8.0420 N.ar  1001  CLA1001     0.0000
      7  C1A       70.9390  -16.4510    8.8900 C.ar  1001  CLA1001     0.0000
      8  C2A       71.4340  -15.0710    8.5360 C.ar  1001  CLA1001     0.0000
      9  C3A       70.7000  -14.7910    7.2310 C.ar  1001  CLA1001     0.0000
     10  C4A       69.8380  -15.9850    7.0710 C.ar  1001  CLA1001     0.0000
     11  CMA       70.0480  -13.4060    6.9530 C.3   1001  CLA1001     0.0000
     12  CAA       72.9070  -14.9230    8.2050 C.3   1001  CLA1001     0.0000
     13  CBA       72.9940  -14.0140    6.9580 C.3   1001  CLA1001     0.0000
     14  CGA       74.4090  -13.6330    6.6180 C.2   1001  CLA1001     0.0000
     15  O1A       75.2710  -14.4810    6.3890 O.2   1001  CLA1001     0.0000
     16  O2A       74.7300  -12.2160    6.5420 O.3   1001  CLA1001     0.0000
     17  NB        68.0590  -18.1910    6.3670 N.2   1001  CLA1001     0.0000
     18  C1B       68.1350  -17.0990    5.6340 C.2   1001  CLA1001     0.0000
     19  C2B       67.2970  -17.0990    4.5360 C.2   1001  CLA1001     0.0000
     20  C3B       66.6920  -18.3370    4.6180 C.2   1001  CLA1001     0.0000
     21  C4B       67.1600  -18.9560    5.7450 C.1   1001  CLA1001     0.0000
     22  CMB       67.1110  -16.0430    3.4680 C.3   1001  CLA1001     0.0000
     23  CAB       65.3460  -18.4080    4.5050 C.1   1001  CLA1001     0.0000
     24  CBB       64.0970  -18.6250    4.4460 C.1   1001  CLA1001     0.0000
     25  NC        68.1070  -20.4460    8.1420 N.2   1001  CLA1001     0.0000
     26  C1C       67.1980  -20.9040    7.2620 C.1   1001  CLA1001     0.0000
     27  C2C       66.7570  -22.1600    7.5990 C.2   1001  CLA1001     0.0000
     28  C3C       67.4140  -22.4880    8.7310 C.2   1001  CLA1001     0.0000
     29  C4C       68.2480  -21.4370    9.0650 C.1   1001  CLA1001     0.0000
     30  CMC       65.7540  -23.0310    6.8740 C.3   1001  CLA1001     0.0000
     31  CAC       67.2210  -23.8130    9.4100 C.3   1001  CLA1001     0.0000
     32  CBC       67.3470  -24.8640    8.2630 C.3   1001  CLA1001     0.0000
     33  ND        70.0110  -19.2380    9.7540 N.2   1001  CLA1001     0.0000
     34  C1D       69.9610  -20.3470   10.5140 C.2   1001  CLA1001     0.0000
     35  C2D       70.8510  -20.1840   11.5690 C.2   1001  CLA1001     0.0000
     36  C3D       71.4230  -18.9680   11.4110 C.2   1001  CLA1001     0.0000
     37  C4D       70.9170  -18.4180   10.3320 C.2   1001  CLA1001     0.0000
     38  CMD       71.2960  -20.9850   12.7390 C.3   1001  CLA1001     0.0000
     39  CAD       72.3500  -18.2110   12.0900 C.3   1001  CLA1001     0.0000
     40  OBD       71.8350  -18.0440   13.2780 O.3   1001  CLA1001     0.0000
     41  CBD       72.3960  -16.9470   11.2340 C.3   1001  CLA1001     0.0000
     42  CGD       72.1130  -15.8200   12.2460 C.2   1001  CLA1001     0.0000
     43  O1D       73.0340  -15.4790   13.0470 O.2   1001  CLA1001     0.0000
     44  O2D       70.7680  -15.2090   12.3330 O.3   1001  CLA1001     0.0000
     45  CED       69.7300  -15.6200   13.4240 C.3   1001  CLA1001     0.0000
     46  C1        75.1840  -11.4960    7.6930 C.3   1001  CLA1001     0.0000
@<TRIPOS>BOND
     1    22    19    1
     2    24    23    3
     3    23    20    1
     4    19    20    2
     5    19    18    1
     6    20    21    1
     7    18     3    1
     8    18    17    2
     9    21     4    2
    10    21    17    2
    11     3    10    2
    12     4    26    1
    13    15    14    2
    14    16    14    1
    15    16    46    1
    16    14    13    1
    17    30    27    1
    18    11     9    1
    19    13    12    1
    20    10     9   ar
    21    10     6   ar
    22     9     8   ar
    23    26    27    2
    24    26    25    2
    25    27    28    1
    26     6     1    1
    27     6     7   ar
    28     1    33    1
    29    25    29    2
    30    12     8    1
    31    32    31    1
    32     8     7   ar
    33    28    29    2
    34    28    31    1
    35     7     2    2
    36    29     5    1
    37    33    37    2
    38    33    34    1
    39     2    37    1
    40     2    41    1
    41     5    34    2
    42    37    36    1
    43    34    35    1
    44    41    39    1
    45    41    42    1
    46    36    35    2
    47    36    39    1
    48    35    38    1
    49    39    40    1
    50    42    44    1
    51    42    43    2
    52    44    45    1
