@<TRIPOS>MOLECULE
3lw6_UDP_A_1.pdb
 25 26 0 0 0
SMALL
GASTEIGER

@<TRIPOS>ATOM
      1  N1        20.4270   25.3800    9.4420 N.am  312  UDP312     -0.1766
      2  C2        20.2100   24.9970    8.1380 C.1   312  UDP312      0.2845
      3  N3        20.7960   25.7160    7.0950 N.2   312  UDP312     -0.2452
      4  C4        21.6010   26.8010    7.4090 C.1   312  UDP312      0.2182
      5  C5        21.8300   27.1970    8.7560 C.2   312  UDP312      0.1242
      6  C6        21.3210   26.3770    9.8180 C.2   312  UDP312      0.0929
      7  O2        19.4910   24.0500    7.8320 O.2   312  UDP312     -0.1918
      8  O4        22.0730   27.4410    6.4050 O.2   312  UDP312     -0.2085
      9  C1'       19.6660   24.6190   10.5380 C.3   312  UDP312      0.2401
     10  C2'       20.1380   23.1930   10.7200 C.3   312  UDP312      0.2319
     11  O2'       19.0380   22.4060   11.2090 O.3   312  UDP312     -0.2157
     12  C3'       21.2470   23.4210   11.7360 C.3   312  UDP312      0.2158
     13  C4'       20.5190   24.4370   12.6540 C.3   312  UDP312      0.1799
     14  O4'       19.8710   25.3500   11.7290 O.3   312  UDP312     -0.3320
     15  O3'       21.6100   22.1800   12.3690 O.3   312  UDP312     -0.2175
     16  C5'       21.3950   25.2320   13.6070 C.3   312  UDP312      0.1813
     17  O5'       22.4250   25.8580   12.8120 O.3   312  UDP312     -0.3111
     18  PA        24.0040   25.4870   13.0470 P.3   312  UDP312      0.2231
     19  O1A       24.1940   24.0760   12.7890 O.3   312  UDP312     -0.4370
     20  O2A       24.8390   26.3730   12.1560 O.2   312  UDP312     -0.5169
     21  O3A       24.2160   25.8760   14.5980 O.3   312  UDP312     -0.2261
     22  PB        25.3580   25.3870   15.6480 P.3   312  UDP312      0.5373
     23  O1B       25.9960   24.1320   15.0310 O.2   312  UDP312     -0.2221
     24  O2B       26.2020   26.5510   15.9040 O.3   312  UDP312     -0.1143
     25  O3B       24.5170   25.0100   16.7910 O.3   312  UDP312     -0.1143
@<TRIPOS>BOND
     1     8     4    2
     2     3     4    2
     3     3     2    2
     4     4     5    1
     5     7     2    2
     6     2     1   am
     7     5     6    2
     8     1     6    1
     9     1     9    1
    10     9    10    1
    11     9    14    1
    12    10    11    1
    13    10    12    1
    14    14    13    1
    15    12    15    1
    16    12    13    1
    17    20    18    2
    18    13    16    1
    19    19    18    1
    20    17    18    1
    21    17    16    1
    22    18    21    1
    23    21    22    1
    24    23    22    2
    25    22    24    1
    26    22    25    1
