@<TRIPOS>MOLECULE
3lw7_AMP_B_1.pdb
 23 25 0 0 0
SMALL
GASTEIGER

@<TRIPOS>ATOM
      1  P         -8.4010  -29.2050  -24.9600 P.3   189  AMP189      0.5327
      2  O1P       -9.5380  -29.2900  -25.9520 O.2   189  AMP189     -0.2224
      3  O2P       -7.0790  -28.6930  -25.5510 O.3   189  AMP189     -0.1145
      4  O3P       -8.5830  -28.6300  -23.5920 O.3   189  AMP189     -0.1145
      5  O5'       -8.1610  -30.7870  -24.6600 O.3   189  AMP189     -0.2675
      6  C5'       -9.1760  -31.5180  -23.9320 C.3   189  AMP189      0.1860
      7  C4'       -8.6660  -32.9010  -23.4880 C.3   189  AMP189      0.1823
      8  O4'       -8.0740  -33.6460  -24.5850 O.3   189  AMP189     -0.3135
      9  C3'       -7.4900  -32.8500  -22.5350 C.3   189  AMP189      0.2184
     10  O3'       -7.7960  -32.4990  -21.1700 O.3   189  AMP189     -0.2174
     11  C2'       -6.9910  -34.2710  -22.6200 C.3   189  AMP189      0.2570
     12  O2'       -7.7540  -35.0840  -21.7560 O.3   189  AMP189     -0.2130
     13  C1'       -7.2750  -34.7270  -24.0500 C.3   189  AMP189      0.3186
     14  N9        -5.8730  -34.8290  -24.5680 N.pl3 189  AMP189     -0.1439
     15  C8        -4.9750  -35.8530  -24.4380 C.3   189  AMP189      0.3377
     16  N7        -3.7950  -35.5010  -25.0270 N.2   189  AMP189     -0.2095
     17  C5        -3.9160  -34.2500  -25.5250 C.2   189  AMP189      0.2526
     18  C6        -3.1130  -33.2410  -26.2460 C.2   189  AMP189      0.4393
     19  N6        -1.8370  -33.3430  -26.6570 N.pl3 189  AMP189      0.2180
     20  N1        -3.7240  -32.0810  -26.5180 N.2   189  AMP189      0.0021
     21  C2        -4.9950  -31.7870  -26.1930 C.3   189  AMP189      0.5254
     22  N3        -5.7650  -32.6440  -25.5470 N.2   189  AMP189     -0.0055
     23  C4        -5.2910  -33.8410  -25.2040 C.2   189  AMP189      0.3518
@<TRIPOS>BOND
     1    19    18    1
     2    20    18    2
     3    20    21    1
     4    18    17    1
     5    21    22    1
     6     2     1    2
     7     3     1    1
     8    22    23    2
     9    17    23    1
    10    17    16    2
    11    23    14    1
    12    16    15    1
    13     1     5    1
    14     1     4    1
    15     5     6    1
    16     8    13    1
    17     8     7    1
    18    14    15    1
    19    14    13    1
    20    13    11    1
    21     6     7    1
    22     7     9    1
    23    11     9    1
    24    11    12    1
    25     9    10    1
