@<TRIPOS>MOLECULE
3lwl_DDS_A_1.pdb
 29 31 0 0 0
SMALL
GASTEIGER

@<TRIPOS>ATOM
      1  N1        19.8020  -16.7250   -2.2850 N.2     1  DDS1        0.0021
      2  C2        19.5840  -17.9590   -2.7780 C.3     1  DDS1        0.5254
      3  N3        19.6530  -18.2640   -4.0890 N.2     1  DDS1       -0.0055
      4  C4        19.9590  -17.3180   -5.0120 C.2     1  DDS1        0.3518
      5  C5        20.2080  -15.9420   -4.5500 C.2     1  DDS1        0.2526
      6  C6        20.1130  -15.6830   -3.0920 C.2     1  DDS1        0.4393
      7  N6        20.3320  -14.4430   -2.5890 N.pl3   1  DDS1        0.2180
      8  N7        20.4830  -15.2090   -5.6450 N.2     1  DDS1       -0.2095
      9  C8        20.4130  -16.0420   -6.7160 C.3     1  DDS1        0.3377
     10  N9        20.0900  -17.2970   -6.3450 N.pl3   1  DDS1       -0.1461
     11  PA        18.9040  -14.2780  -10.1860 P.3     1  DDS1        0.2189
     12  PB        16.2570  -14.2910  -11.1970 P.3     1  DDS1        0.2277
     13  PG        15.7800  -11.6230  -11.8430 P.3     1  DDS1        0.5373
     14  C1'       19.9500  -18.4550   -7.2710 C.3     1  DDS1        0.2847
     15  O1A       19.5510  -13.9090   -8.8720 O.3     1  DDS1       -0.4371
     16  O1B       15.4350  -15.5000  -10.8070 O.3     1  DDS1       -0.4368
     17  O1G       15.4760  -10.5010  -10.8780 O.3     1  DDS1       -0.1143
     18  C2'       18.5670  -19.0860   -7.1760 C.3     1  DDS1        0.0823
     19  O2A       19.3800  -13.5750  -11.4340 O.2     1  DDS1       -0.5170
     20  O2B       16.9610  -14.2500  -12.5340 O.2     1  DDS1       -0.5168
     21  O2G       14.8970  -11.6280  -13.0670 O.2     1  DDS1       -0.2221
     22  C3'       17.9770  -19.0210   -8.5750 C.3     1  DDS1        0.0392
     23  O3A       17.3240  -14.0010  -10.0250 O.3     1  DDS1       -0.2700
     24  O3B       15.3510  -12.9640  -11.0620 O.3     1  DDS1       -0.2258
     25  O3G       17.2520  -11.8210  -12.1170 O.3     1  DDS1       -0.1143
     26  C4'       18.9080  -18.1250   -9.3780 C.3     1  DDS1        0.1493
     27  O4'       20.1120  -17.9860   -8.6150 O.3     1  DDS1       -0.3183
     28  C5'       18.2460  -16.7630   -9.5830 C.3     1  DDS1        0.1786
     29  O5'       19.0310  -15.8770  -10.3840 O.3     1  DDS1       -0.3113
@<TRIPOS>BOND
     1    21    13    2
     2    20    12    2
     3    25    13    1
     4    13    24    1
     5    13    17    1
     6    19    11    2
     7    12    24    1
     8    12    16    1
     9    12    23    1
    10    29    11    1
    11    29    28    1
    12    11    23    1
    13    11    15    1
    14    28    26    1
    15    26    27    1
    16    26    22    1
    17    27    14    1
    18    22    18    1
    19    14    18    1
    20    14    10    1
    21     9    10    1
    22     9     8    1
    23    10     4    1
    24     8     5    2
    25     4     5    1
    26     4     3    2
    27     5     6    1
    28     3     2    1
    29     6     7    1
    30     6     1    2
    31     2     1    1
