@<TRIPOS>MOLECULE
3lwm_DDS_A_1.pdb
 29 31 0 0 0
SMALL
GASTEIGER

@<TRIPOS>ATOM
      1  N1        20.2580  -15.9630   -2.4190 N.2     1  DDS1        0.0021
      2  C2        19.9040  -17.2360   -2.6850 C.3     1  DDS1        0.5254
      3  N3        19.7690  -17.7260   -3.9320 N.2     1  DDS1       -0.0055
      4  C4        19.9960  -16.9400   -5.0150 C.2     1  DDS1        0.3518
      5  C5        20.3830  -15.5360   -4.8080 C.2     1  DDS1        0.2526
      6  C6        20.5080  -15.0690   -3.4040 C.2     1  DDS1        0.4393
      7  N6        20.8650  -13.7920   -3.1180 N.pl3   1  DDS1        0.2180
      8  N7        20.5370  -14.9920   -6.0310 N.2     1  DDS1       -0.2095
      9  C8        20.2690  -15.9640   -6.9400 C.3     1  DDS1        0.3377
     10  N9        19.9350  -17.1230   -6.3370 N.pl3   1  DDS1       -0.1461
     11  PA        18.7500  -14.5770  -10.5060 P.3     1  DDS1        0.2189
     12  PB        16.0610  -14.6420  -11.3130 P.3     1  DDS1        0.2277
     13  PG        15.7860  -11.9050  -11.9430 P.3     1  DDS1        0.5373
     14  C1'       19.5910  -18.4050   -7.0080 C.3     1  DDS1        0.2847
     15  O1A       19.5340  -14.0990   -9.3090 O.3     1  DDS1       -0.4371
     16  O1B       16.7190  -14.7560  -12.6750 O.2     1  DDS1       -0.5168
     17  O1G       14.6690  -11.5490  -12.8950 O.2     1  DDS1       -0.2221
     18  C2'       18.1140  -18.4420   -7.3690 C.3     1  DDS1        0.0823
     19  O2A       19.0240  -13.9710  -11.8640 O.2     1  DDS1       -0.5170
     20  O2B       15.1480  -15.7400  -10.8220 O.3     1  DDS1       -0.4368
     21  O2G       15.9340  -10.9200  -10.8080 O.3     1  DDS1       -0.1143
     22  C3'       18.0470  -17.9910   -8.8160 C.3     1  DDS1        0.0392
     23  O3A       17.1850  -14.3700  -10.1890 O.3     1  DDS1       -0.2700
     24  O3B       15.2380  -13.2540  -11.2510 O.3     1  DDS1       -0.2258
     25  O3G       17.1050  -12.2960  -12.5730 O.3     1  DDS1       -0.1143
     26  C4'       19.4640  -18.1460   -9.3470 C.3     1  DDS1        0.1493
     27  O4'       20.3090  -18.4720   -8.2400 O.3     1  DDS1       -0.3183
     28  C5'       19.9520  -16.8370   -9.9490 C.3     1  DDS1        0.1786
     29  O5'       18.8890  -16.1750  -10.6250 O.3     1  DDS1       -0.3113
@<TRIPOS>BOND
     1    17    13    2
     2    16    12    2
     3    25    13    1
     4    13    24    1
     5    13    21    1
     6    19    11    2
     7    12    24    1
     8    12    20    1
     9    12    23    1
    10    29    11    1
    11    29    28    1
    12    11    23    1
    13    11    15    1
    14    28    26    1
    15    26    22    1
    16    26    27    1
    17    22    18    1
    18    27    14    1
    19    18    14    1
    20    14    10    1
    21     9    10    1
    22     9     8    1
    23    10     4    1
    24     8     5    2
    25     4     5    1
    26     4     3    2
    27     5     6    1
    28     3     2    1
    29     6     7    1
    30     6     1    2
    31     2     1    1
