@<TRIPOS>MOLECULE
3lx0_THP_A_1.pdb
 25 26 0 0 0
SMALL
GASTEIGER

@<TRIPOS>ATOM
      1  P2        17.9160    8.5410    6.6850 P.3   150  THP150      0.5327
      2  O4P       16.7710    9.4510    7.0730 O.3   150  THP150     -0.1145
      3  O5P       17.8330    7.0940    6.6850 O.2   150  THP150     -0.2224
      4  O6P       19.2190    8.9930    7.3790 O.3   150  THP150     -0.1145
      5  P1        20.8100   13.4230    2.6360 P.3   150  THP150      0.5326
      6  O1P       22.3010   13.1510    2.2780 O.3   150  THP150     -0.1145
      7  O2P       20.4790   13.8830    4.0440 O.3   150  THP150     -0.1145
      8  O3P       20.2650   14.1170    1.4670 O.2   150  THP150     -0.2224
      9  O5'       18.0940    8.9170    5.1400 O.3   150  THP150     -0.2675
     10  C5'       18.0610   10.2340    4.7060 C.3   150  THP150      0.1857
     11  C4'       18.6770   10.3100    3.3260 C.3   150  THP150      0.1748
     12  O4'       17.7700    9.6000    2.4560 O.3   150  THP150     -0.3340
     13  C3'       18.7580   11.7240    2.8020 C.3   150  THP150      0.1600
     14  O3'       20.1420   11.9260    2.5000 O.3   150  THP150     -0.2700
     15  C2'       17.9170   11.7770    1.5290 C.3   150  THP150      0.0847
     16  C1'       17.7770   10.2650    1.2330 C.3   150  THP150      0.2089
     17  N1        16.4640    9.9860    0.6650 N.am  150  THP150     -0.1794
     18  C2        16.3150   10.1130   -0.7150 C.1   150  THP150      0.2844
     19  O2        17.3250   10.4960   -1.4080 O.2   150  THP150     -0.1918
     20  N3        15.1380    9.9960   -1.3090 N.2   150  THP150     -0.2455
     21  C4        13.9930    9.6610   -0.6060 C.1   150  THP150      0.2134
     22  O4        12.8720    9.5240   -1.1830 O.2   150  THP150     -0.2088
     23  C5        14.1360    9.4500    0.8300 C.2   150  THP150      0.0891
     24  C5M       12.8900    9.0680    1.6150 C.3   150  THP150      0.0462
     25  C6        15.3910    9.6380    1.4420 C.2   150  THP150      0.0877
@<TRIPOS>BOND
     1    19    18    2
     2    20    18    2
     3    20    21    2
     4    22    21    2
     5    18    17   am
     6    21    23    1
     7    17    16    1
     8    17    25    1
     9    23    25    2
    10    23    24    1
    11    16    15    1
    12    16    12    1
    13     8     5    2
    14    15    13    1
    15     6     5    1
    16    12    11    1
    17    14     5    1
    18    14    13    1
    19     5     7    1
    20    13    11    1
    21    11    10    1
    22    10     9    1
    23     9     1    1
    24     1     3    2
    25     1     2    1
    26     1     4    1
