@<TRIPOS>MOLECULE
3lx3_XTN_A_1.pdb
 13 14 0 0 0
SMALL
GASTEIGER

@<TRIPOS>ATOM
      1  N1       -16.3870   10.7040   23.8590 N.2   211  XTN211     -0.2672
      2  C2       -15.3410   11.0090   23.0650 C.1   211  XTN211      0.2609
      3  N2       -15.1710   10.3900   21.8820 N.pl3 211  XTN211     -0.0220
      4  N3       -14.4330   12.0340   23.4350 N.2   211  XTN211     -0.2466
      5  C4       -14.5300   12.6760   24.6100 C.1   211  XTN211      0.2579
      6  O4       -13.6710   13.5440   24.8980 O.2   211  XTN211     -0.2051
      7  N5       -15.7890   12.9150   26.6400 N.2   211  XTN211     -0.3102
      8  C6       -16.8600   12.5740   27.4170 C.1   211  XTN211      0.2080
      9  O6       -17.0240   13.1340   28.5040 O.2   211  XTN211     -0.2120
     10  C7       -17.7880   11.5900   26.9590 C.3   211  XTN211      0.2707
     11  N8       -17.5710   11.0110   25.7760 N.2   211  XTN211     -0.1871
     12  C4A      -15.5990   12.3090   25.4310 C.2   211  XTN211      0.3110
     13  C8A      -16.5110   11.3330   25.0300 C.1   211  XTN211      0.1418
@<TRIPOS>BOND
     1     3     2    1
     2     2     4    2
     3     2     1    2
     4     4     5    2
     5     1    13    2
     6     5     6    2
     7     5    12    1
     8    13    12    1
     9    13    11    2
    10    12     7    2
    11    11    10    1
    12     7     8    2
    13    10     8    1
    14     8     9    2
