@<TRIPOS>MOLECULE
3lx5_AGO_A_1.pdb
 42 45 0 0 0
SMALL
GASTEIGER

@<TRIPOS>ATOM
      1  CM'        3.6110   28.3800   37.9510 C.3   300  AGO300      0.1355
      2  N2'        3.8950   27.1640   37.1550 N.pl3 300  AGO300     -0.2355
      3  C2'        5.0360   26.4640   37.2840 C.ar  300  AGO300      0.0716
      4  C3'        6.2690   27.1490   37.3790 C.ar  300  AGO300      0.0163
      5  C4'        7.4770   26.4500   37.5040 C.ar  300  AGO300      0.0013
      6  C5'        7.4580   25.0530   37.5400 C.ar  300  AGO300      0.0003
      7  C6'        6.2410   24.3640   37.4520 C.ar  300  AGO300      0.0077
      8  C1'        5.0230   25.0460   37.3180 C.ar  300  AGO300      0.0904
      9  C'         3.6830   24.2340   37.2140 C.2   300  AGO300      0.3428
     10  O1'        2.5980   24.5530   38.3690 O.2   300  AGO300     -0.2448
     11  O3'        3.5080   23.2640   36.2150 O.3   300  AGO300     -0.4387
     12  C3B        3.5400   23.0540   34.7570 C.3   300  AGO300      0.2592
     13  C2B        3.2930   24.4930   34.3840 C.2   300  AGO300      0.2395
     14  O2'        2.3000   25.1620   34.6980 O.2   300  AGO300     -0.2877
     15  C4B        4.9930   22.7560   34.3660 C.3   300  AGO300      0.1946
     16  C5B        5.1150   21.7540   33.2160 C.3   300  AGO300      0.1828
     17  O5'        4.1130   22.0520   32.1970 O.3   300  AGO300     -0.3111
     18  PA         3.6520   20.9140   31.2330 P.3   300  AGO300      0.2220
     19  O1A        2.9110   21.6600   30.2130 O.2   300  AGO300     -0.5170
     20  O2A        3.0450   19.7680   31.9420 O.3   300  AGO300     -0.4370
     21  O3A        5.1350   20.3500   30.6560 O.3   300  AGO300     -0.2360
     22  PB         5.3970   19.1880   29.5460 P.3   300  AGO300      0.4669
     23  O1B        6.5200   19.7230   28.7530 O.2   300  AGO300     -0.2351
     24  O2B        4.1170   18.9020   28.8310 O.3   300  AGO300     -0.1253
     25  N3B        5.9080   17.9630   30.4770 N.3   300  AGO300     -0.0163
     26  PG         5.7620   16.4390   29.8670 P.3   300  AGO300      0.4884
     27  O2G        6.8250   16.4040   28.6310 O.2   300  AGO300     -0.2331
     28  O3G        6.2450   15.4720   31.0500 O.3   300  AGO300     -0.1240
     29  O1G        4.3340   16.1130   29.5610 O.3   300  AGO300     -0.1240
     30  O4'        5.5790   23.9600   33.8570 O.3   300  AGO300     -0.3275
     31  C1B        4.6500   25.0930   34.0050 C.3   300  AGO300      0.2591
     32  N9         4.8170   25.9420   32.8430 N.pl3 300  AGO300     -0.2314
     33  C8         4.6850   25.6100   31.5520 C.3   300  AGO300      0.2249
     34  N7         4.9810   26.6910   30.8240 N.2   300  AGO300     -0.2322
     35  C5         5.3200   27.7010   31.6370 C.2   300  AGO300      0.2182
     36  C4         5.2230   27.2160   32.9290 C.2   300  AGO300      0.2302
     37  N3         5.5070   28.0100   33.9860 N.2   300  AGO300     -0.3074
     38  C2         5.8840   29.2820   33.8200 C.1   300  AGO300      0.2531
     39  N2         6.1380   30.0220   34.8960 N.pl3 300  AGO300     -0.0226
     40  N1         5.9990   29.8490   32.5420 N.2   300  AGO300     -0.2485
     41  C6         5.7180   29.0270   31.4420 C.1   300  AGO300      0.2372
     42  O6         5.8200   29.5030   30.3180 O.2   300  AGO300     -0.2069
@<TRIPOS>BOND
     1    27    26    2
     2    23    22    2
     3    24    22    1
     4    22    25    1
     5    22    21    1
     6    29    26    1
     7    26    25    1
     8    26    28    1
     9    19    18    2
    10    42    41    2
    11    21    18    1
    12    34    33    1
    13    34    35    2
    14    18    20    1
    15    18    17    1
    16    41    35    1
    17    41    40    2
    18    33    32    1
    19    35    36    1
    20    17    16    1
    21    40    38    2
    22    32    36    1
    23    32    31    1
    24    36    37    2
    25    16    15    1
    26    38    37    2
    27    38    39    1
    28    30    31    1
    29    30    15    1
    30    31    13    1
    31    15    12    1
    32    13    14    2
    33    13    12    1
    34    12    11    1
    35    11     9    1
    36     2     3    1
    37     2     1    1
    38     9     8    1
    39     9    10    2
    40     3     8   ar
    41     3     4   ar
    42     8     7   ar
    43     4     5   ar
    44     7     6   ar
    45     5     6   ar
