@<TRIPOS>MOLECULE
3lx8_GDP_A_1.pdb
 28 30 0 0 0
SMALL
GASTEIGER

@<TRIPOS>ATOM
      1  PB         9.8220   16.8930  -32.5280 P.3   300  GDP300      0.5373
      2  O1B        9.7120   17.1840  -31.0700 O.3   300  GDP300     -0.1143
      3  O2B        8.3570   16.8100  -33.2650 O.2   300  GDP300     -0.2221
      4  O3B       10.5480   15.4640  -32.8310 O.3   300  GDP300     -0.1143
      5  O3A       10.6520   18.0230  -33.3160 O.3   300  GDP300     -0.2261
      6  PA        11.8240   17.6250  -34.3770 P.3   300  GDP300      0.2231
      7  O1A       12.9240   16.8400  -33.7570 O.3   300  GDP300     -0.4370
      8  O2A       11.0690   16.8090  -35.5940 O.2   300  GDP300     -0.5169
      9  O5'       12.3150   19.0050  -35.0020 O.3   300  GDP300     -0.3111
     10  C5'       11.3820   19.8420  -35.7190 C.3   300  GDP300      0.1813
     11  C4'       12.0450   21.1370  -36.2100 C.3   300  GDP300      0.1799
     12  O4'       12.7250   21.7100  -35.0740 O.3   300  GDP300     -0.3326
     13  C3'       13.1040   20.8250  -37.2760 C.3   300  GDP300      0.2158
     14  O3'       12.8460   21.6490  -38.4250 O.3   300  GDP300     -0.2175
     15  C2'       14.4380   21.1770  -36.6080 C.3   300  GDP300      0.2310
     16  O2'       15.2790   21.8850  -37.5160 O.3   300  GDP300     -0.2158
     17  C1'       14.0330   22.1320  -35.4940 C.3   300  GDP300      0.2293
     18  N9        14.9070   22.0760  -34.2790 N.pl3 300  GDP300     -0.2354
     19  C8        14.9980   21.0850  -33.3930 C.3   300  GDP300      0.2246
     20  N7        15.8770   21.4150  -32.4500 N.2   300  GDP300     -0.2322
     21  C5        16.3540   22.6210  -32.7280 C.2   300  GDP300      0.2182
     22  C6        17.2840   23.4560  -32.1050 C.1   300  GDP300      0.2372
     23  O6        17.8550   23.1180  -31.0690 O.2   300  GDP300     -0.2069
     24  N1        17.5670   24.7080  -32.6800 N.2   300  GDP300     -0.2485
     25  C2        16.9000   25.0790  -33.8660 C.1   300  GDP300      0.2531
     26  N2        17.1410   26.2520  -34.4390 N.pl3 300  GDP300     -0.0226
     27  N3        16.0130   24.2470  -34.4300 N.2   300  GDP300     -0.3074
     28  C4        15.7310   23.0440  -33.8960 C.2   300  GDP300      0.2300
@<TRIPOS>BOND
     1    14    13    1
     2    16    15    1
     3    13    15    1
     4    13    11    1
     5    15    17    1
     6    11    10    1
     7    11    12    1
     8    10     9    1
     9     8     6    2
    10    17    12    1
    11    17    18    1
    12     9     6    1
    13    26    25    1
    14    27    28    2
    15    27    25    2
    16     6     7    1
    17     6     5    1
    18    18    28    1
    19    18    19    1
    20    28    21    1
    21    25    24    2
    22    19    20    1
    23     5     1    1
    24     3     1    2
    25     4     1    1
    26    21    20    2
    27    21    22    1
    28    24    22    2
    29     1     2    1
    30    22    23    2
