@<TRIPOS>MOLECULE
3lx9_MAN_B_1.pdb
 11 11 0 0 0
SMALL
GASTEIGER

@<TRIPOS>ATOM
      1  C1         9.0200   64.4150    7.6130 C.3   695  MAN695      0.1777
      2  C2         8.2780   64.9350    8.8390 C.3   695  MAN695      0.2141
      3  C3         9.2320   65.0570   10.0250 C.3   695  MAN695      0.2173
      4  C4        10.0490   63.7840   10.2250 C.3   695  MAN695      0.2142
      5  C5        10.6030   63.2340    8.9120 C.3   695  MAN695      0.1810
      6  C6        11.1670   61.8330    9.1030 C.3   695  MAN695      0.2141
      7  O2         7.2210   64.0560    9.1620 O.3   695  MAN695     -0.2176
      8  O3         8.5040   65.3260   11.2020 O.3   695  MAN695     -0.2175
      9  O4        11.1230   64.0760   11.0900 O.3   695  MAN695     -0.2176
     10  O5         9.5840   63.1610    7.9310 O.3   695  MAN695     -0.3481
     11  O6        12.1290   61.5880    8.1020 O.3   695  MAN695     -0.2176
@<TRIPOS>BOND
     1     1    10    1
     2     1     2    1
     3    10     5    1
     4    11     6    1
     5     2     7    1
     6     2     3    1
     7     5     6    1
     8     5     4    1
     9     3     4    1
    10     3     8    1
    11     4     9    1
