@<TRIPOS>MOLECULE
3lxa_GLA_A_1.pdb
 12 12 0 0 0
SMALL
GASTEIGER

@<TRIPOS>ATOM
      1  C1         6.9540    5.5460   22.0120 C.3   801  GLA801      0.3024
      2  C2         6.7930    4.0680   22.3780 C.3   801  GLA801      0.2434
      3  C3         8.1220    3.4860   22.8260 C.3   801  GLA801      0.2199
      4  C4         9.1090    3.6070   21.6830 C.3   801  GLA801      0.2144
      5  C5         9.3020    5.0910   21.3730 C.3   801  GLA801      0.1836
      6  C6        10.1960    5.2900   20.1520 C.3   801  GLA801      0.2142
      7  O1         7.2030    6.3400   23.1630 O.3   801  GLA801     -0.1869
      8  O2         5.8200    3.8720   23.4060 O.3   801  GLA801     -0.2148
      9  O3         7.9340    2.1280   23.2090 O.3   801  GLA801     -0.2174
     10  O4         8.5680    2.9060   20.5540 O.3   801  GLA801     -0.2176
     11  O5         8.0440    5.7350   21.1000 O.3   801  GLA801     -0.3236
     12  O6        10.3140    6.6940   19.8670 O.3   801  GLA801     -0.2176
@<TRIPOS>BOND
     1    12     6    1
     2     6     5    1
     3    10     4    1
     4    11     5    1
     5    11     1    1
     6     5     4    1
     7     4     3    1
     8     1     2    1
     9     1     7    1
    10     2     3    1
    11     2     8    1
    12     3     9    1
