@<TRIPOS>MOLECULE
3lxe_TOR_A_1.pdb
 22 24 0 0 0
SMALL
GASTEIGER

@<TRIPOS>ATOM
      1  CAT      -19.9080   36.8120   44.8220 C.3   262  TOR262      0.0613
      2  CAU      -18.7750   36.7690   43.8230 C.3   262  TOR262      0.1900
      3  CAV      -19.1420   37.4720   42.5230 C.3   262  TOR262      0.0613
      4  OAR      -18.4590   35.3750   43.5640 O.3   262  TOR262     -0.3101
      5  OAQ      -17.5480   37.2210   44.4390 O.3   262  TOR262     -0.3290
      6  CAK      -16.4530   36.5000   43.8620 C.3   262  TOR262      0.2008
      7  CAG      -15.2490   36.5550   44.8130 C.3   262  TOR262      0.1791
      8  OAF      -14.1100   36.2060   44.0390 O.3   262  TOR262     -0.3315
      9  CAE      -13.1970   35.3780   44.7740 C.3   262  TOR262      0.1875
     10  CAD      -11.9740   36.1530   45.2700 C.3   262  TOR262      0.0612
     11  CAJ      -12.8890   34.1700   43.9370 C.3   262  TOR262      0.0612
     12  OAA      -13.9620   34.9420   45.9070 O.3   262  TOR262     -0.3316
     13  CAB      -15.2210   35.5930   46.0320 C.3   262  TOR262      0.1768
     14  CAC      -16.2800   34.5000   46.0330 C.3   262  TOR262      0.1768
     15  OAH      -16.7340   34.1490   44.7020 O.3   262  TOR262     -0.3276
     16  CAL      -17.0710   35.0810   43.6810 C.3   262  TOR262      0.2473
     17  CAM      -16.5960   34.2960   42.4820 C.3   262  TOR262      0.2324
     18  OAN      -16.7790   35.0520   41.2480 O.3   262  TOR262     -0.2220
     19  SAO      -16.3050   34.4690   39.8670 S.3   262  TOR262      0.0829
     20  OAS      -17.3240   33.5430   39.5350 O.3   262  TOR262     -0.0529
     21  OAI      -16.1080   35.6540   39.1060 O.3   262  TOR262     -0.0529
     22  NAP      -14.9310   33.7020   40.0820 N.3   262  TOR262      0.0391
@<TRIPOS>BOND
     1    21    19    1
     2    20    19    1
     3    19    22    1
     4    19    18    1
     5    18    17    1
     6    17    16    1
     7     3     2    1
     8     4    16    1
     9     4     2    1
    10    16     6    1
    11    16    15    1
    12     2     5    1
    13     2     1    1
    14     6     5    1
    15     6     7    1
    16    11     9    1
    17     8     9    1
    18     8     7    1
    19    15    14    1
    20     9    10    1
    21     9    12    1
    22     7    13    1
    23    12    13    1
    24    13    14    1
