@<TRIPOS>MOLECULE
3lxg_Z73_A_1.pdb
 20 22 0 0 0
SMALL
GASTEIGER

@<TRIPOS>ATOM
      1  C1        14.4540   15.2040  -11.0020 C.2     1  Z731        0.1121
      2  C2        14.3880   15.6980   -9.6930 C.3     1  Z731        0.1771
      3  N3        13.6970   15.8320  -12.0020 N.2     1  Z731       -0.4045
      4  N4        13.6040   16.7480   -9.4040 N.pl3   1  Z731       -0.2287
      5  C5        12.8950   16.9260  -11.6630 C.2     1  Z731        0.1750
      6  C6        12.8650   17.3780  -10.3370 C.2     1  Z731        0.2224
      7  C7        11.3270   19.1390  -10.9570 C.2     1  Z731        0.2790
      8  N8        12.0860   18.4710  -10.0020 N.2     1  Z731       -0.3493
      9  C9        11.3520   18.6900  -12.2750 C.2     1  Z731        0.0744
     10  C10       12.1360   17.5940  -12.6190 C.2     1  Z731        0.0420
     11  C11       13.7320   17.0210   -8.0890 C.2     1  Z731        0.1653
     12  N12       14.5840   16.1380   -7.5120 N.2     1  Z731       -0.3976
     13  C13       15.0050   15.3150   -8.4930 C.2     1  Z731        0.1131
     14  C14       15.3100   14.0200  -11.3770 C.3     1  Z731        0.0637
     15  C15       15.9790   14.1920   -8.2360 C.3     1  Z731        0.0637
     16  C16       13.0310   18.0920   -7.3100 C.3     1  Z731        0.0752
     17  C17       11.6980   17.4430   -6.8970 C.3     1  Z731        0.0089
     18  C18       10.7420   18.3330   -6.0940 C.3     1  Z731        0.0005
     19  O19       10.5670   20.2170  -10.5740 O.2     1  Z731       -0.4476
     20  C20       10.3430   20.4910   -9.1860 C.3     1  Z731        0.2553
@<TRIPOS>BOND
     1    10     9    2
     2    10     5    1
     3     9     7    1
     4     3     5    2
     5     3     1    2
     6     5     6    1
     7    14     1    1
     8     1     2    1
     9     7    19    1
    10     7     8    2
    11    19    20    1
    12     6     8    2
    13     6     4    1
    14     2     4    1
    15     2    13    1
    16     4    11    1
    17    13    15    1
    18    13    12    2
    19    11    12    2
    20    11    16    1
    21    16    17    1
    22    17    18    1
