@<TRIPOS>MOLECULE
3lxh_HEM_A_1.pdb
 43 50 0 0 0
SMALL
GASTEIGER

@<TRIPOS>ATOM
      1  CHA       28.9060  -30.0740   -6.6750 C.2   422  HEM422      0.0000
      2  CHB       25.8640  -26.5890   -8.1330 C.2   422  HEM422      0.0000
      3  CHC       22.1890  -29.6550   -7.8900 C.2   422  HEM422      0.0000
      4  CHD       25.0940  -32.9920   -5.9720 C.2   422  HEM422      0.0000
      5  C1A       28.3800  -28.9010   -7.1010 C.ar  422  HEM422      0.0000
      6  C2A       29.1770  -27.7130   -7.4000 C.ar  422  HEM422      0.0000
      7  C3A       28.3360  -26.7540   -7.7950 C.ar  422  HEM422      0.0000
      8  C4A       26.9890  -27.3080   -7.7800 C.ar  422  HEM422      0.0000
      9  CMA       28.6950  -25.3040   -8.2100 C.3   422  HEM422      0.0000
     10  CAA       30.7180  -27.5990   -7.2270 C.3   422  HEM422      0.0000
     11  CBA       31.0800  -27.2060   -5.7680 C.3   422  HEM422      0.0000
     12  CGA       32.5620  -26.9920   -5.6230 C.2   422  HEM422      0.0000
     13  O1A       33.3450  -27.9320   -5.8150 O.co2 422  HEM422      0.0000
     14  O2A       33.0230  -25.8750   -5.3590 O.co2 422  HEM422      0.0000
     15  C1B       24.5860  -27.1180   -8.2430 C.2   422  HEM422      0.0000
     16  C2B       23.4220  -26.4570   -8.7920 C.2   422  HEM422      0.0000
     17  C3B       22.4350  -27.3590   -8.7230 C.2   422  HEM422      0.0000
     18  C4B       22.9320  -28.5460   -8.1070 C.2   422  HEM422      0.0000
     19  CMB       23.3030  -24.9940   -9.3580 C.3   422  HEM422      0.0000
     20  CAB       20.9580  -27.2420   -9.1420 C.2   422  HEM422      0.0000
     21  CBB       20.2700  -26.1110   -9.1860 C.2   422  HEM422      0.0000
     22  C1C       22.6960  -30.7930   -7.3320 C.ar  422  HEM422      0.0000
     23  C2C       21.8970  -31.9490   -7.0170 C.ar  422  HEM422      0.0000
     24  C3C       22.6950  -32.8640   -6.4910 C.ar  422  HEM422      0.0000
     25  C4C       24.0150  -32.3160   -6.4390 C.ar  422  HEM422      0.0000
     26  CMC       20.3780  -32.1360   -7.2590 C.3   422  HEM422      0.0000
     27  CAC       22.2110  -34.2440   -6.0260 C.2   422  HEM422      0.0000
     28  CBC       22.5860  -34.7020   -4.8340 C.2   422  HEM422      0.0000
     29  C1D       26.3790  -32.5190   -6.0040 C.2   422  HEM422      0.0000
     30  C2D       27.5070  -33.2610   -5.5010 C.2   422  HEM422      0.0000
     31  C3D       28.6910  -32.3620   -5.7410 C.2   422  HEM422      0.0000
     32  C4D       28.1620  -31.1620   -6.3260 C.2   422  HEM422      0.0000
     33  CMD       27.5410  -34.6880   -4.8930 C.3   422  HEM422      0.0000
     34  CAD       30.1570  -32.7240   -5.3740 C.3   422  HEM422      0.0000
     35  CBD       30.9180  -32.9660   -6.6730 C.3   422  HEM422      0.0000
     36  CGD       32.3730  -33.3110   -6.4430 C.2   422  HEM422      0.0000
     37  O1D       32.9770  -32.8580   -5.4460 O.co2 422  HEM422      0.0000
     38  O2D       32.9410  -34.0350   -7.3090 O.co2 422  HEM422      0.0000
     39  NA        27.0390  -28.6380   -7.3470 N.ar  422  HEM422      0.0000
     40  NB        24.2550  -28.4050   -7.8210 N.2   422  HEM422      0.0000
     41  NC        23.9980  -31.0460   -6.9640 N.ar  422  HEM422      0.0000
     42  ND        26.7870  -31.2790   -6.4850 N.2   422  HEM422      0.0000
     43 FE         25.4900  -29.9170   -7.3060 Fe    422  HEM422      0.0000
@<TRIPOS>BOND
     1    19    16    1
     2    21    20    2
     3    20    17    1
     4    16    17    2
     5    16    15    1
     6    17    18    1
     7    15     2    1
     8    15    40    2
     9     9     7    1
    10     2     8    2
    11    18     3    2
    12    18    40    1
    13     3    22    1
    14    40    43    1
    15     7     8   ar
    16     7     6   ar
    17     8    39   ar
    18     6    10    1
    19     6     5   ar
    20    39    43    1
    21    39     5   ar
    22    22    23   ar
    23    22    41   ar
    24    38    36   ar
    25    43    41    1
    26    43    42    1
    27    26    23    1
    28    10    11    1
    29     5     1    2
    30    23    24   ar
    31    41    25   ar
    32     1    32    1
    33    35    36    1
    34    35    34    1
    35    24    25   ar
    36    24    27    1
    37    42    32    2
    38    42    29    1
    39    36    37   ar
    40    25     4    1
    41    32    31    1
    42    27    28    2
    43    29     4    2
    44    29    30    1
    45    13    12   ar
    46    11    12    1
    47    31    30    2
    48    31    34    1
    49    12    14   ar
    50    30    33    1
