@<TRIPOS>MOLECULE
3lxi_CAM_A_1.pdb
 11 12 0 0 0
SMALL
GASTEIGER

@<TRIPOS>ATOM
      1  C1        37.2830   -9.5720  -30.6720 C.3   423  CAM423      0.0282
      2  C2        38.3550  -10.5290  -31.1220 C.3   423  CAM423      0.1519
      3  O         38.6540  -10.8330  -32.4580 O.3   423  CAM423     -0.2232
      4  C3        39.0620  -11.1000  -29.9190 C.3   423  CAM423      0.0329
      5  C4        38.4020  -10.2470  -28.8340 C.3   423  CAM423      0.0026
      6  C5        38.9360   -8.8330  -29.1330 C.3   423  CAM423      0.0002
      7  C6        38.0870   -8.3270  -30.3240 C.3   423  CAM423      0.0024
      8  C7        36.9470  -10.1600  -29.3030 C.3   423  CAM423      0.0024
      9  C8        36.2810  -11.5230  -29.4400 C.3   423  CAM423      0.0001
     10  C9        36.1140   -9.2080  -28.4540 C.3   423  CAM423      0.0001
     11  C10       36.1260   -9.4580  -31.6510 C.3   423  CAM423      0.0025
@<TRIPOS>BOND
     1     3     2    1
     2    11     1    1
     3     2     1    1
     4     2     4    1
     5     1     7    1
     6     1     8    1
     7     7     6    1
     8     4     5    1
     9     9     8    1
    10     8     5    1
    11     8    10    1
    12     6     5    1
