@<TRIPOS>MOLECULE
3lxi_HEM_A_1.pdb
 43 50 0 0 0
SMALL
GASTEIGER

@<TRIPOS>ATOM
      1  CHA       40.7650  -10.1000  -25.8260 C.2   422  HEM422      0.0000
      2  CHB       36.1920   -9.2290  -24.4590 C.2   422  HEM422      0.0000
      3  CHC       37.1340   -4.4910  -24.6890 C.2   422  HEM422      0.0000
      4  CHD       41.4230   -5.3630  -26.6770 C.2   422  HEM422      0.0000
      5  C1A       39.4630  -10.2600  -25.4130 C.2   422  HEM422      0.0000
      6  C2A       38.8260  -11.5530  -25.1510 C.2   422  HEM422      0.0000
      7  C3A       37.5610  -11.3050  -24.7820 C.2   422  HEM422      0.0000
      8  C4A       37.3700   -9.8660  -24.7760 C.2   422  HEM422      0.0000
      9  CMA       36.4720  -12.3340  -24.4170 C.3   422  HEM422      0.0000
     10  CAA       39.5070  -12.9430  -25.3260 C.3   422  HEM422      0.0000
     11  CBA       39.4570  -13.4150  -26.7840 C.3   422  HEM422      0.0000
     12  CGA       39.9410  -14.8480  -26.9270 C.2   422  HEM422      0.0000
     13  O1A       41.1570  -15.1210  -26.8060 O.co2 422  HEM422      0.0000
     14  O2A       39.1280  -15.7640  -27.1770 O.co2 422  HEM422      0.0000
     15  C1B       36.0480   -7.8540  -24.3430 C.ar  422  HEM422      0.0000
     16  C2B       34.9160   -7.1370  -23.7850 C.ar  422  HEM422      0.0000
     17  C3B       35.2080   -5.8310  -23.8570 C.ar  422  HEM422      0.0000
     18  C4B       36.5010   -5.6920  -24.4710 C.ar  422  HEM422      0.0000
     19  CMB       33.5980   -7.7570  -23.2330 C.3   422  HEM422      0.0000
     20  CAB       34.3720   -4.6140  -23.4050 C.2   422  HEM422      0.0000
     21  CBB       33.0430   -4.5630  -23.3710 C.2   422  HEM422      0.0000
     22  C1C       38.3500   -4.3270  -25.2850 C.2   422  HEM422      0.0000
     23  C2C       38.9380   -3.0580  -25.6440 C.2   422  HEM422      0.0000
     24  C3C       40.1240   -3.3050  -26.1920 C.2   422  HEM422      0.0000
     25  C4C       40.3180   -4.7320  -26.1980 C.2   422  HEM422      0.0000
     26  CMC       38.3290   -1.6510  -25.4290 C.3   422  HEM422      0.0000
     27  CAC       41.1090   -2.2370  -26.7280 C.2   422  HEM422      0.0000
     28  CBC       41.6920   -2.4200  -27.9100 C.2   422  HEM422      0.0000
     29  C1D       41.6630   -6.7090  -26.6230 C.ar  422  HEM422      0.0000
     30  C2D       42.8880   -7.3270  -27.0690 C.ar  422  HEM422      0.0000
     31  C3D       42.6720   -8.8110  -26.8120 C.ar  422  HEM422      0.0000
     32  C4D       41.3530   -8.9230  -26.2290 C.ar  422  HEM422      0.0000
     33  CMD       44.1000   -6.6020  -27.6960 C.3   422  HEM422      0.0000
     34  CAD       43.6520   -9.9580  -27.0940 C.3   422  HEM422      0.0000
     35  CBD       44.4440  -10.2560  -25.8290 C.3   422  HEM422      0.0000
     36  CGD       45.3660  -11.4450  -26.0230 C.2   422  HEM422      0.0000
     37  O1D       45.2130  -12.2300  -26.9930 O.co2 422  HEM422      0.0000
     38  O2D       46.2640  -11.6170  -25.1690 O.co2 422  HEM422      0.0000
     39  NA        38.5510   -9.2460  -25.1690 N.2   422  HEM422      0.0000
     40  NB        37.0070   -6.9370  -24.7370 N.ar  422  HEM422      0.0000
     41  NC        39.2240   -5.3310  -25.6300 N.2   422  HEM422      0.0000
     42  ND        40.7850   -7.6640  -26.1440 N.ar  422  HEM422      0.0000
     43 FE         38.9570   -7.2430  -25.1770 Fe    422  HEM422      0.0000
@<TRIPOS>BOND
     1    28    27    2
     2    33    30    1
     3    14    12   ar
     4    34    31    1
     5    34    35    1
     6    30    31   ar
     7    30    29   ar
     8    37    36   ar
     9    12    13   ar
    10    12    11    1
    11    31    32   ar
    12    11    10    1
    13    27    24    1
    14     4    29    2
    15     4    25    1
    16    29    42   ar
    17    32    42   ar
    18    32     1    2
    19    25    24    1
    20    25    41    2
    21    24    23    2
    22    42    43    1
    23    36    35    1
    24    36    38   ar
    25     1     5    1
    26    23    26    1
    27    23    22    1
    28    41    22    1
    29    41    43    1
    30     5    39    2
    31     5     6    1
    32    10     6    1
    33    22     3    2
    34    43    39    1
    35    43    40    1
    36    39     8    1
    37     6     7    2
    38     7     8    1
    39     7     9    1
    40     8     2    2
    41    40    18   ar
    42    40    15   ar
    43     3    18    1
    44    18    17   ar
    45     2    15    1
    46    15    16   ar
    47    17    16   ar
    48    17    20    1
    49    16    19    1
    50    20    21    2
