@<TRIPOS>MOLECULE
3lxk_MI1_A_1.pdb
 23 25 0 0 0
SMALL
GASTEIGER

@<TRIPOS>ATOM
      1  C1         0.7260   15.7350    5.4100 C.3   1125  MI11125     0.1795
      2  C2         1.7900   16.8120    5.5120 C.3   1125  MI11125     0.1398
      3  C4         2.8080   15.6940    7.4290 C.3   1125  MI11125     0.0937
      4  C5         1.7000   14.6620    7.4460 C.3   1125  MI11125     0.0255
      5  C6         0.4230   15.1790    6.8080 C.3   1125  MI11125     0.0462
      6  N3         2.9870   16.2430    6.1130 N.am  1125  MI11125    -0.2746
      7  O21        4.2210   16.5720    4.2380 O.2   1125  MI11125    -0.2737
      8  C20        4.1440   16.1520    5.3790 C.2   1125  MI11125     0.2412
      9  C22        5.3220   15.5240    6.0770 C.3   1125  MI11125     0.1901
     10  C23        6.4300   15.3090    5.1680 C.1   1125  MI11125     0.0830
     11  N24        7.2990   15.0780    4.4380 N.1   1125  MI11125    -0.1954
     12  C7        -0.2050   16.2060    7.7500 C.3   1125  MI11125     0.0042
     13  N8        -0.5650   16.2350    4.9240 N.pl3 1125  MI11125    -0.1918
     14  C9        -0.7470   17.6270    4.6020 C.3   1125  MI11125     0.2532
     15  C10       -1.3940   15.3750    4.1710 C.2   1125  MI11125     0.3148
     16  C15       -1.2690   13.9880    4.0410 C.3   1125  MI11125     0.2132
     17  C16       -0.3750   12.9580    4.4740 C.2   1125  MI11125     0.0219
     18  C11       -0.8250   11.7580    3.9870 C.2   1125  MI11125     0.1063
     19  N12       -1.9660   12.0070    3.2910 N.2   1125  MI11125    -0.1961
     20  C14       -2.2400   13.3380    3.3070 C.1   1125  MI11125     0.0266
     21  N17       -3.2950   13.8650    2.6890 N.2   1125  MI11125    -0.1687
     22  C18       -3.2980   15.1830    2.8830 C.3   1125  MI11125     0.3998
     23  N19       -2.4480   15.9530    3.5690 N.2   1125  MI11125    -0.0389
@<TRIPOS>BOND
     1    21    22    1
     2    21    20    2
     3    22    23    1
     4    19    20    2
     5    19    18    1
     6    20    16    1
     7    23    15    2
     8    18    17    2
     9    16    15    1
    10    16    17    1
    11    15    13    1
    12     7     8    2
    13    11    10    3
    14    14    13    1
    15    13     1    1
    16    10     9    1
    17     8     9    1
    18     8     6   am
    19     1     2    1
    20     1     5    1
    21     2     6    1
    22     6     3    1
    23     5     4    1
    24     5    12    1
    25     3     4    1
