@<TRIPOS>MOLECULE
3lxl_IZA_A_1.pdb
 23 26 0 0 0
SMALL
GASTEIGER

@<TRIPOS>ATOM
      1  O0        -2.8790   13.5630    2.7270 O.2     1  IZA1       -0.2219
      2  C11       -1.8130   13.2280    3.2460 C.1     1  IZA1        0.1545
      3  N2        -1.4780   11.9060    3.3560 N.2     1  IZA1       -0.1747
      4  C12       -0.2970   11.4250    3.8890 C.2     1  IZA1        0.1112
      5  C13        0.6130   12.2730    4.3800 C.2     1  IZA1        0.0249
      6  C9         0.3360   13.7010    4.3320 C.ar    1  IZA1        0.0456
      7  C1         1.2530   14.5970    4.8430 C.ar    1  IZA1        0.1744
      8  C10       -0.8320   14.2260    3.7800 C.ar    1  IZA1        0.0859
      9  C8        -1.0700   15.6020    3.7430 C.ar    1  IZA1        0.0158
     10  C7        -2.2290   16.1700    3.2060 C.ar    1  IZA1        0.0304
     11  C6        -2.4070   17.5410    3.1960 C.ar    1  IZA1        0.1402
     12  F1        -3.5440   18.0760    2.6530 F       1  IZA1       -0.2042
     13  C5        -1.4540   18.4010    3.7210 C.ar    1  IZA1        0.0297
     14  C4        -0.2940   17.8580    4.2590 C.ar    1  IZA1        0.0050
     15  C3        -0.1270   16.4860    4.2640 C.ar    1  IZA1        0.0339
     16  C0         1.0500   15.9630    4.8210 C.ar    1  IZA1        0.1737
     17  N1         2.1140   16.6110    5.4000 N.2     1  IZA1       -0.3411
     18  C2         2.9700   15.6730    5.7670 C.1     1  IZA1        0.1113
     19  N0         2.4820   14.4340    5.4500 N.2     1  IZA1       -0.3411
     20  C14        4.2680   15.8830    6.4690 C.3     1  IZA1        0.0954
     21  C17        5.0540   14.5930    6.6050 C.3     1  IZA1        0.0170
     22  C16        3.8560   16.3250    7.8570 C.3     1  IZA1        0.0170
     23  C15        5.1230   16.9580    5.8420 C.3     1  IZA1        0.0170
@<TRIPOS>BOND
     1    12    11    1
     2     1     2    2
     3    11    10   ar
     4    11    13   ar
     5    10     9   ar
     6     2     3    2
     7     2     8    1
     8     3     4    1
     9    13    14   ar
    10     9     8   ar
    11     9    15   ar
    12     8     6   ar
    13     4     5    2
    14    14    15   ar
    15    15    16   ar
    16     6     5    1
    17     6     7   ar
    18    16     7   ar
    19    16    17    2
    20     7    19    2
    21    17    18    2
    22    19    18    2
    23    18    20    1
    24    23    20    1
    25    20    21    1
    26    20    22    1
