@<TRIPOS>MOLECULE
3lxn_MI1_A_1.pdb
 23 25 0 0 0
SMALL
GASTEIGER

@<TRIPOS>ATOM
      1  C1        -7.6470    7.9500   16.0750 C.3     1  MI11        0.1795
      2  C2        -6.2310    7.4610   16.2010 C.3     1  MI11        0.1398
      3  C4        -6.9480    5.1540   15.5120 C.3     1  MI11        0.0937
      4  C5        -8.3650    5.6480   15.3270 C.3     1  MI11        0.0255
      5  C6        -8.6520    6.8020   16.2620 C.3     1  MI11        0.0462
      6  N3        -6.0190    6.2600   15.4420 N.am    1  MI11       -0.2746
      7  O21       -4.0280    7.0730   14.7950 O.2     1  MI11       -0.2737
      8  C20       -4.8980    6.2250   14.6790 C.2     1  MI11        0.2412
      9  C22       -4.8550    5.0850   13.6950 C.3     1  MI11        0.1901
     10  C23       -3.7850    5.3070   12.7170 C.1     1  MI11        0.0830
     11  N24       -2.9210    5.5400   11.9730 N.1     1  MI11       -0.1954
     12  C7        -8.7600    6.2850   17.6870 C.3     1  MI11        0.0042
     13  N8        -7.8760    8.9300   17.1280 N.pl3   1  MI11       -0.1918
     14  C9        -7.0580    9.0570   18.5060 C.3     1  MI11        0.2532
     15  C10       -8.7500   10.0000   16.8320 C.2     1  MI11        0.3148
     16  C15       -9.5520   10.1300   15.7060 C.3     1  MI11        0.2132
     17  C16       -9.7960    9.3860   14.5160 C.2     1  MI11        0.0219
     18  C11      -10.7350   10.0700   13.7810 C.2     1  MI11        0.1063
     19  N12      -11.0780   11.2000   14.4750 N.2     1  MI11       -0.1961
     20  C14      -10.3660   11.2470   15.6350 C.1     1  MI11        0.0266
     21  N17      -10.4780   12.2180   16.5330 N.2     1  MI11       -0.1687
     22  C18       -9.6630   11.9930   17.5590 C.3     1  MI11        0.3998
     23  N19       -8.8330   10.9700   17.7520 N.2     1  MI11       -0.0389
@<TRIPOS>BOND
     1    11    10    3
     2    10     9    1
     3     9     8    1
     4    18    19    1
     5    18    17    2
     6    19    20    2
     7    17    16    1
     8     8     7    2
     9     8     6   am
    10     4     3    1
    11     4     5    1
    12     6     3    1
    13     6     2    1
    14    20    16    1
    15    20    21    2
    16    16    15    1
    17     1     2    1
    18     1     5    1
    19     1    13    1
    20     5    12    1
    21    21    22    1
    22    15    13    1
    23    15    23    2
    24    13    14    1
    25    22    23    1
