@<TRIPOS>MOLECULE
3lxo_T3P_A_1.pdb
 21 22 0 0 0
SMALL
GASTEIGER

@<TRIPOS>ATOM
      1  P         -2.2910  -20.9770    4.6440 P.3   601  T3P601      0.5326
      2  OP1       -1.9680  -20.1200    3.4580 O.2   601  T3P601     -0.2224
      3  OP2       -2.4110  -22.4070    4.1930 O.3   601  T3P601     -0.1145
      4  OP3       -1.1090  -20.8120    5.6300 O.3   601  T3P601     -0.1145
      5  O5'       -4.2150  -17.0680    5.0340 O.3   601  T3P601     -0.2176
      6  C5'       -5.4740  -17.5750    4.7720 C.3   601  T3P601      0.2140
      7  C4'       -5.6770  -19.0220    5.0600 C.3   601  T3P601      0.1775
      8  O4'       -6.9520  -19.6760    5.3510 O.3   601  T3P601     -0.3339
      9  C3'       -4.6890  -20.1240    4.7110 C.3   601  T3P601      0.1601
     10  O3'       -3.5600  -20.4830    5.3900 O.3   601  T3P601     -0.2700
     11  C2'       -5.5590  -21.0660    3.9540 C.3   601  T3P601      0.0847
     12  C1'       -6.8230  -21.0250    4.7970 C.3   601  T3P601      0.2089
     13  N1        -8.0350  -21.7100    4.4950 N.am  601  T3P601     -0.1794
     14  C2        -8.1980  -23.0120    5.0020 C.1   601  T3P601      0.2844
     15  O2        -7.3050  -23.5130    5.7020 O.2   601  T3P601     -0.1918
     16  N3        -9.3510  -23.7040    4.6320 N.2   601  T3P601     -0.2455
     17  C4       -10.2420  -23.1420    3.8240 C.1   601  T3P601      0.2134
     18  O4       -11.3850  -23.8030    3.4430 O.2   601  T3P601     -0.2088
     19  C5       -10.0520  -21.7930    3.3070 C.2   601  T3P601      0.0891
     20  C5M      -11.0900  -21.1810    2.4050 C.3   601  T3P601      0.0462
     21  C6        -8.9350  -21.1240    3.6590 C.2   601  T3P601      0.0877
@<TRIPOS>BOND
     1    20    19    1
     2    19    21    2
     3    19    17    1
     4    18    17    2
     5     2     1    2
     6    21    13    1
     7    17    16    2
     8    11     9    1
     9    11    12    1
    10     3     1    1
    11    13    12    1
    12    13    14   am
    13    16    14    2
    14     1    10    1
    15     1     4    1
    16     9     7    1
    17     9    10    1
    18     6     5    1
    19     6     7    1
    20    12     8    1
    21    14    15    2
    22     7     8    1
