@<TRIPOS>MOLECULE
3lxp_IZA_A_1.pdb
 23 26 0 0 0
SMALL
GASTEIGER

@<TRIPOS>ATOM
      1  O0        -6.9940   26.7640  -34.2000 O.2   1183  IZA1183    -0.2219
      2  C11       -6.6560   25.6470  -33.8320 C.1   1183  IZA1183     0.1545
      3  N2        -7.0480   24.5170  -34.5140 N.2   1183  IZA1183    -0.1747
      4  C12       -6.6890   23.2570  -34.1620 C.2   1183  IZA1183     0.1112
      5  C13       -5.9260   23.0260  -33.1050 C.2   1183  IZA1183     0.0249
      6  C9        -5.4750   24.1440  -32.3240 C.ar  1183  IZA1183     0.0456
      7  C1        -4.6910   23.9160  -31.2150 C.ar  1183  IZA1183     0.1744
      8  C10       -5.8070   25.4510  -32.6370 C.ar  1183  IZA1183     0.0859
      9  C8        -5.3550   26.5020  -31.8460 C.ar  1183  IZA1183     0.0158
     10  C7        -5.6630   27.8380  -32.0880 C.ar  1183  IZA1183     0.0304
     11  C6        -5.1840   28.8450  -31.2760 C.ar  1183  IZA1183     0.1402
     12  F1        -5.5030   30.1430  -31.5250 F     1183  IZA1183    -0.2042
     13  C5        -4.3990   28.5540  -30.1970 C.ar  1183  IZA1183     0.0297
     14  C4        -4.0810   27.2440  -29.9320 C.ar  1183  IZA1183     0.0050
     15  C3        -4.5600   26.2370  -30.7440 C.ar  1183  IZA1183     0.0339
     16  C0        -4.2130   24.9320  -30.4150 C.ar  1183  IZA1183     0.1737
     17  N1        -3.4510   24.4150  -29.3860 N.2   1183  IZA1183    -0.3411
     18  C2        -3.4620   23.1110  -29.5520 C.1   1183  IZA1183     0.1113
     19  N0        -4.2070   22.7580  -30.6530 N.2   1183  IZA1183    -0.3411
     20  C14       -2.8350   22.0900  -28.6900 C.3   1183  IZA1183     0.0954
     21  C17       -4.0040   21.4550  -27.9480 C.3   1183  IZA1183     0.0170
     22  C16       -2.1310   21.0120  -29.4620 C.3   1183  IZA1183     0.0170
     23  C15       -1.9490   22.6910  -27.6140 C.3   1183  IZA1183     0.0170
@<TRIPOS>BOND
     1     3     4    1
     2     3     2    2
     3     1     2    2
     4     4     5    2
     5     2     8    1
     6     5     6    1
     7     8     6   ar
     8     8     9   ar
     9     6     7   ar
    10    10     9   ar
    11    10    11   ar
    12     9    15   ar
    13    12    11    1
    14    11    13   ar
    15     7    19    2
    16     7    16   ar
    17    15    16   ar
    18    15    14   ar
    19    19    18    2
    20    16    17    2
    21    13    14   ar
    22    18    17    2
    23    18    20    1
    24    22    20    1
    25    20    21    1
    26    20    23    1
