@<TRIPOS>MOLECULE
3lxs_4MC_A_1.pdb
 41 43 0 0 0
SMALL
GASTEIGER

@<TRIPOS>ATOM
      1  O5        50.1440   -1.4760   22.5040 O.2   216  4MC216     -0.1686
      2  S1        51.2330   -1.5990   23.4510 S.O2  216  4MC216      0.0087
      3  O4        52.1470   -0.4390   23.4160 O.2   216  4MC216     -0.1686
      4  CAB       50.5700   -1.8690   25.0250 C.ar  216  4MC216      0.1057
      5  CAD       51.1530   -2.7610   25.8800 C.ar  216  4MC216      0.0183
      6  CAF       50.5990   -2.9800   27.1350 C.ar  216  4MC216      0.0013
      7  CAE       49.5000   -2.2670   27.5380 C.ar  216  4MC216      0.0001
      8  CAC       48.8920   -1.3860   26.6600 C.ar  216  4MC216      0.0013
      9  CAA       49.4460   -1.1590   25.3870 C.ar  216  4MC216      0.0183
     10  C28       52.1860   -3.0340   23.0180 C.3   216  4MC216      0.1577
     11  C27       52.5040   -3.1280   21.5050 C.3   216  4MC216      0.0474
     12  C18       51.9070   -4.4310   20.8350 C.3   216  4MC216      0.0975
     13  C19       50.3550   -4.3930   20.9620 C.3   216  4MC216      0.0264
     14  C20       49.7650   -5.3680   19.9000 C.3   216  4MC216      0.0281
     15  C21       48.2530   -5.4430   19.9440 C.ar  216  4MC216     -0.0221
     16  C26       47.6810   -6.6550   20.2910 C.ar  216  4MC216     -0.0043
     17  C25       46.2850   -6.7810   20.3380 C.ar  216  4MC216     -0.0003
     18  C24       45.5090   -5.7060   20.0030 C.ar  216  4MC216     -0.0000
     19  C23       46.0680   -4.4930   19.6740 C.ar  216  4MC216     -0.0003
     20  C22       47.4580   -4.3500   19.6020 C.ar  216  4MC216     -0.0043
     21  N2        52.3840   -5.6130   21.5460 N.am  216  4MC216     -0.2057
     22  C17       53.2880   -6.4580   21.0250 C.2   216  4MC216      0.2612
     23  O3        53.5190   -6.2040   19.6070 O.2   216  4MC216     -0.2715
     24  C9        53.8140   -7.7530   21.3220 C.3   216  4MC216      0.1744
     25  C10       55.2600   -7.3690   21.6990 C.3   216  4MC216      0.0349
     26  C11       55.8610   -8.4990   22.5690 C.3   216  4MC216      0.0492
     27  C01       56.6920   -9.4560   21.7120 C.3   216  4MC216      0.2205
     28  N01       57.0690  -10.6920   22.3960 N.pl3 216  4MC216     -0.0865
     29  C02       56.2820  -11.7480   22.5190 C.cat 216  4MC216      0.5346
     30  N03       56.8120  -12.8790   22.9530 N.pl3 216  4MC216      0.1354
     31  N02       54.9700  -11.6740   22.2350 N.pl3 216  4MC216      0.1354
     32  N1        53.6750   -8.7790   20.4480 N.am  216  4MC216     -0.1808
     33  C8        52.4490   -9.1120   20.0860 C.2   216  4MC216      0.3237
     34  O2        51.4750   -8.5040   20.5200 O.2   216  4MC216     -0.2508
     35  N3        52.2640  -10.1450   19.2820 N.am  216  4MC216     -0.2600
     36  C39       50.9120  -10.4890   18.8190 C.3   216  4MC216      0.1123
     37  C40       50.7450  -11.9900   18.9290 C.3   216  4MC216      0.0940
     38  C48       53.3930  -10.9850   18.9220 C.3   216  4MC216      0.1123
     39  C49       53.0740  -12.4470   18.9720 C.3   216  4MC216      0.0940
     40  N4        51.8370  -12.6740   18.2120 N.3   216  4MC216     -0.2686
     41  C33       51.5630  -14.1270   18.3070 C.3   216  4MC216      0.0897
@<TRIPOS>BOND
     1    40    41    1
     2    40    37    1
     3    40    39    1
     4    36    37    1
     5    36    35    1
     6    38    39    1
     7    38    35    1
     8    35    33   am
     9    20    19   ar
    10    20    15   ar
    11    23    22    2
    12    19    18   ar
    13    14    15    1
    14    14    13    1
    15    15    16   ar
    16    18    17   ar
    17    33    32   am
    18    33    34    2
    19    16    17   ar
    20    32    24    1
    21    12    13    1
    22    12    11    1
    23    12    21    1
    24    22    24    1
    25    22    21   am
    26    24    25    1
    27    11    10    1
    28    25    26    1
    29    27    28    1
    30    27    26    1
    31    31    29    1
    32    28    29    2
    33     1     2    2
    34    29    30    1
    35    10     2    1
    36     3     2    2
    37     2     4    1
    38     4     9   ar
    39     4     5   ar
    40     9     8   ar
    41     5     6   ar
    42     8     7   ar
    43     6     7   ar
