@<TRIPOS>MOLECULE
3lxv_4NC_M_1.pdb
 11 11 0 0 0
SMALL
GASTEIGER

@<TRIPOS>ATOM
      1  C1        -9.9470  -12.9330  -41.5860 C.ar    1  4NC1        0.2344
      2  C2        -9.5750  -14.0710  -40.7690 C.ar    1  4NC1        0.2359
      3  C3       -10.5660  -14.9440  -40.3170 C.ar    1  4NC1        0.0694
      4  C4       -11.9160  -14.6840  -40.6410 C.ar    1  4NC1        0.1463
      5  C5       -12.2660  -13.5870  -41.4350 C.ar    1  4NC1        0.0276
      6  C6       -11.2860  -12.7050  -41.8970 C.ar    1  4NC1        0.0471
      7  O7        -8.9310  -12.1320  -41.9830 O.3     1  4NC1       -0.2831
      8  O8        -8.2580  -14.2190  -40.5210 O.3     1  4NC1       -0.2831
      9  N9       -12.9110  -15.5800  -40.2230 N.pl3   1  4NC1        0.0578
     10  O10      -14.0710  -15.3970  -40.5870 O.2     1  4NC1       -0.1261
     11  O11      -12.5870  -16.5830  -39.5720 O.2     1  4NC1       -0.1261
@<TRIPOS>BOND
     1     7     1    1
     2     6     1   ar
     3     6     5   ar
     4     1     2   ar
     5     5     4   ar
     6     2     8    1
     7     2     3   ar
     8     4     3   ar
     9     4     9    1
    10    10     9    2
    11     9    11    2
