@<TRIPOS>MOLECULE
3lxx_GDP_A_1.pdb
 28 30 0 0 0
SMALL
GASTEIGER

@<TRIPOS>ATOM
      1  PB        13.7400   27.8580    4.9520 P.3   401  GDP401      0.5373
      2  O1B       13.6750   26.3530    5.0610 O.2   401  GDP401     -0.2221
      3  O2B       12.8390   28.4130    6.0370 O.3   401  GDP401     -0.1143
      4  O3B       15.1570   28.3690    5.1680 O.3   401  GDP401     -0.1143
      5  O3A       13.1280   28.3150    3.5450 O.3   401  GDP401     -0.2261
      6  PA        13.9860   28.6740    2.2300 P.3   401  GDP401      0.2231
      7  O1A       14.9980   27.6080    1.9430 O.2   401  GDP401     -0.5169
      8  O2A       14.6340   30.0230    2.3350 O.3   401  GDP401     -0.4370
      9  O5'       12.8130   28.7770    1.1460 O.3   401  GDP401     -0.3111
     10  C5'       12.0150   27.6590    0.8180 C.3   401  GDP401      0.1813
     11  C4'       11.4310   27.8640   -0.5660 C.3   401  GDP401      0.1799
     12  O4'       10.5660   29.0050   -0.5750 O.3   401  GDP401     -0.3326
     13  C3'       12.4990   28.1340   -1.6040 C.3   401  GDP401      0.2158
     14  O3'       12.0440   27.6030   -2.8470 O.3   401  GDP401     -0.2175
     15  C2'       12.5530   29.6420   -1.6970 C.3   401  GDP401      0.2310
     16  O2'       13.0980   30.0900   -2.9520 O.3   401  GDP401     -0.2158
     17  C1'       11.0740   29.9520   -1.5180 C.3   401  GDP401      0.2293
     18  N9        10.7670   31.2960   -1.0100 N.pl3 401  GDP401     -0.2354
     19  C8        11.1820   31.8680    0.1310 C.3   401  GDP401      0.2246
     20  N7        10.6380   33.1020    0.2400 N.2   401  GDP401     -0.2322
     21  C5         9.8760   33.3170   -0.8470 C.2   401  GDP401      0.2182
     22  C6         9.0240   34.4010   -1.3530 C.1   401  GDP401      0.2372
     23  O6         8.8960   35.4600   -0.6940 O.2   401  GDP401     -0.2069
     24  N1         8.3850   34.2090   -2.5140 N.2   401  GDP401     -0.2485
     25  C2         8.5060   33.0540   -3.2170 C.1   401  GDP401      0.2531
     26  N2         7.8590   32.8920   -4.3880 N.pl3 401  GDP401     -0.0226
     27  N3         9.2720   32.0150   -2.8100 N.2   401  GDP401     -0.3074
     28  C4         9.9520   32.1080   -1.6480 C.2   401  GDP401      0.2300
@<TRIPOS>BOND
     1    26    25    1
     2    25    27    2
     3    25    24    2
     4    16    15    1
     5    14    13    1
     6    27    28    2
     7    24    22    2
     8    15    13    1
     9    15    17    1
    10    28    18    1
    11    28    21    1
    12    13    11    1
    13    17    18    1
    14    17    12    1
    15    22    21    1
    16    22    23    2
    17    18    19    1
    18    21    20    2
    19    12    11    1
    20    11    10    1
    21    19    20    1
    22    10     9    1
    23     9     6    1
    24     7     6    2
    25     6     8    1
    26     6     5    1
    27     5     1    1
    28     1     2    2
    29     1     4    1
    30     1     3    1
