@<TRIPOS>MOLECULE
3ly0_LY0_A_1.pdb
 12 11 0 0 0
SMALL
GASTEIGER

@<TRIPOS>ATOM
      1  P         65.3010   30.5250   30.1160 P.3   363  LY0363      0.2709
      2  C1        67.5310   29.9850   28.5230 C.3   363  LY0363      0.0311
      3  N1        65.3670   30.5110   27.4340 N.3   363  LY0363     -0.1224
      4  C2        66.0220   29.8810   28.5670 C.3   363  LY0363      0.1712
      5  C4        65.8060   29.4760   31.5370 C.3   363  LY0363      0.1020
      6  C5        66.3290   30.2210   32.7330 C.3   363  LY0363      0.1132
      7  C6        65.4610   31.3860   33.1240 C.2   363  LY0363      0.3649
      8  C7        66.7520   29.3420   33.8820 C.3   363  LY0363      0.0124
      9  O31       63.8060   30.5100   29.9010 O.2   363  LY0363     -0.2855
     10  O32       65.7590   32.0090   30.3080 O.3   363  LY0363     -0.1664
     11  O61       65.9490   32.3080   33.9910 O.co2 363  LY0363     -0.2457
     12  O62       64.3240   31.5410   32.6470 O.co2 363  LY0363     -0.2457
@<TRIPOS>BOND
     1     3     4    1
     2     2     4    1
     3     4     1    1
     4     9     1    2
     5     1    10    1
     6     1     5    1
     7     5     6    1
     8    12     7   ar
     9     6     7    1
    10     6     8    1
    11     7    11   ar
