@<TRIPOS>MOLECULE
3ly1_PLP_A_1.pdb
 16 16 0 0 0
SMALL
GASTEIGER

@<TRIPOS>ATOM
      1  N1        73.3730   45.1650  -52.4440 N.ar  500  PLP500     -0.2452
      2  C2        73.8710   46.3780  -52.0140 C.ar  500  PLP500      0.0982
      3  C2A       73.2770   47.6440  -52.5790 C.3   500  PLP500      0.0555
      4  C3        74.9260   46.3800  -51.1010 C.ar  500  PLP500      0.2120
      5  O3        75.4290   47.5730  -50.6920 O.3   500  PLP500     -0.2852
      6  C4        75.4580   45.1570  -50.6360 C.ar  500  PLP500      0.0822
      7  C4A       76.5060   45.1390  -49.5530 C.2   500  PLP500      0.2372
      8  O4A       77.4700   45.8630  -49.7400 O.2   500  PLP500     -0.2830
      9  C5        74.9450   43.9380  -51.0940 C.ar  500  PLP500      0.0333
     10  C6        73.9010   43.9790  -52.0190 C.ar  500  PLP500      0.0969
     11  C5A       75.4880   42.6000  -50.6410 C.3   500  PLP500      0.1819
     12  O4P       75.3500   42.3430  -49.2310 O.3   500  PLP500     -0.2653
     13  P         75.1550   40.8590  -48.6770 P.3   500  PLP500      0.5329
     14  O1P       75.8410   39.8410  -49.5330 O.2   500  PLP500     -0.2224
     15  O2P       73.6560   40.7200  -48.6650 O.3   500  PLP500     -0.1145
     16  O3P       75.7420   40.9770  -47.2800 O.3   500  PLP500     -0.1145
@<TRIPOS>BOND
     1     3     2    1
     2     1    10   ar
     3     1     2   ar
     4    10     9   ar
     5     2     4   ar
     6     4     5    1
     7     4     6   ar
     8     9    11    1
     9     9     6   ar
    10    11    12    1
    11     6     7    1
    12     8     7    2
    13    14    13    2
    14    12    13    1
    15    13    15    1
    16    13    16    1
