@<TRIPOS>MOLECULE
3ly2_Z72_A_1.pdb
 28 31 0 0 0
SMALL
GASTEIGER

@<TRIPOS>ATOM
      1  C1       -12.8940   42.0090   41.5780 C.ar  1000  Z721000     0.1866
      2  C2       -12.4930   42.0180   42.9380 C.ar  1000  Z721000     0.2066
      3  O3       -11.1540   41.7480   43.2860 O.3   1000  Z721000    -0.4732
      4  C4       -10.5670   40.6820   42.5160 C.3   1000  Z721000     0.1662
      5  C5       -10.1420   39.5230   43.4280 C.3   1000  Z721000     0.0435
      6  C6        -8.6100   39.5340   43.4990 C.3   1000  Z721000     0.0038
      7  C7        -8.1190   40.6790   42.6000 C.3   1000  Z721000     0.0038
      8  C8        -9.3140   41.1630   41.7900 C.3   1000  Z721000     0.0435
      9  C9       -13.4590   42.2210   43.9480 C.ar  1000  Z721000     0.1755
     10  CA       -12.2480   41.9510   39.2050 C.ar  1000  Z721000     0.3473
     11  OA       -11.8900   41.8680   40.5650 O.2   1000  Z721000    -0.4177
     12  OB       -11.3010   41.8550   38.3870 O.2   1000  Z721000    -0.2444
     13  O10      -13.0500   42.2610   45.3020 O.3   1000  Z721000    -0.4683
     14  C11      -14.0290   42.8150   46.1930 C.3   1000  Z721000     0.2526
     15  C12      -14.8410   42.4190   43.6170 C.ar  1000  Z721000     0.0403
     16  C13      -15.2330   42.4020   42.2430 C.ar  1000  Z721000     0.0077
     17  C14      -14.2400   42.1990   41.2070 C.ar  1000  Z721000     0.0534
     18  C15      -14.5740   42.1860   39.8560 C.ar  1000  Z721000     0.0800
     19  N16      -15.9660   42.2050   39.5040 N.pl3 1000  Z721000    -0.2104
     20  C17      -13.6340   42.1280   38.8840 C.ar  1000  Z721000     0.0988
     21  C18      -16.4120   41.9600   38.1420 C.ar  1000  Z721000     0.0945
     22  C19      -16.9860   42.9600   37.4380 C.ar  1000  Z721000     0.0928
     23 CL20      -17.2570   44.4730   38.1850 Cl    1000  Z721000    -0.0792
     24  C21      -17.3390   42.7650   36.0810 C.ar  1000  Z721000     0.1116
     25  N22      -17.1100   41.5420   35.4490 N.ar  1000  Z721000    -0.2405
     26  C23      -16.5250   40.5360   36.2010 C.ar  1000  Z721000     0.1116
     27  C24      -16.1810   40.7520   37.5610 C.ar  1000  Z721000     0.0928
     28 CL25      -15.5270   39.4770   38.4850 Cl    1000  Z721000    -0.0792
@<TRIPOS>BOND
     1    25    24   ar
     2    25    26   ar
     3    24    22   ar
     4    26    27   ar
     5    22    21   ar
     6    22    23    1
     7    27    21   ar
     8    27    28    1
     9    21    19    1
    10    12    10    2
    11    20    10   ar
    12    20    18   ar
    13    10    11   ar
    14    19    18    1
    15    18    17   ar
    16    11     1   ar
    17    17     1   ar
    18    17    16   ar
    19     1     2   ar
    20     8     4    1
    21     8     7    1
    22    16    15   ar
    23     4     3    1
    24     4     5    1
    25     7     6    1
    26     2     3    1
    27     2     9   ar
    28     5     6    1
    29    15     9   ar
    30     9    13    1
    31    13    14    1
