@<TRIPOS>MOLECULE
3ly4_PNM_A_1.pdb
 23 24 0 0 0
SMALL
GASTEIGER

@<TRIPOS>ATOM
      1  O8         3.7340   -6.5680  -10.6280 O.2   523  PNM523     -0.2863
      2  C7         4.3880   -6.7150   -9.6020 C.2   523  PNM523      0.2311
      3  N4         3.8330   -9.3260  -10.0660 N.3   523  PNM523     -0.1957
      4  C3         2.5230   -9.7770  -10.4940 C.3   523  PNM523      0.1857
      5  C11        2.6030  -10.3730  -11.8570 C.2   523  PNM523      0.3811
      6  O13        1.5480  -10.5220  -12.4790 O.co2 523  PNM523     -0.2441
      7  O12        3.7190  -10.7140  -12.3020 O.co2 523  PNM523     -0.2441
      8  C2         1.9400  -10.7000   -9.3960 C.3   523  PNM523      0.0658
      9  C10        0.4280  -10.5830   -9.3600 C.3   523  PNM523      0.0129
     10  C9         2.3400  -12.1720   -9.4960 C.3   523  PNM523      0.0129
     11  S1         2.6310  -10.0060   -7.9210 S.3   523  PNM523     -0.1212
     12  C5         3.9410   -9.0380   -8.6400 C.3   523  PNM523      0.1479
     13  C6         3.9130   -7.5050   -8.3970 C.3   523  PNM523      0.1855
     14  N14        2.6310   -6.9070   -8.0370 N.am  523  PNM523     -0.1965
     15  C15        2.3020   -6.7860   -6.7520 C.2   523  PNM523      0.2462
     16  O16        3.0600   -7.2050   -5.8850 O.2   523  PNM523     -0.2730
     17  C17        0.9960   -6.0870   -6.3950 C.3   523  PNM523      0.1131
     18  C18       -0.3110   -6.6530   -6.9110 C.ar  523  PNM523     -0.0130
     19  C19       -1.3460   -5.7620   -7.2210 C.ar  523  PNM523     -0.0038
     20  C20       -2.5760   -6.2400   -7.6980 C.ar  523  PNM523     -0.0003
     21  C21       -2.7800   -7.6150   -7.8530 C.ar  523  PNM523     -0.0000
     22  C22       -1.7660   -8.5080   -7.5320 C.ar  523  PNM523     -0.0003
     23  C23       -0.5320   -8.0260   -7.0640 C.ar  523  PNM523     -0.0038
@<TRIPOS>BOND
     1     6     5   ar
     2     7     5   ar
     3     5     4    1
     4     1     2    2
     5     4     3    1
     6     4     8    1
     7     3    12    1
     8     2    13    1
     9    10     8    1
    10     8     9    1
    11     8    11    1
    12    12    13    1
    13    12    11    1
    14    13    14    1
    15    14    15   am
    16    21    20   ar
    17    21    22   ar
    18    20    19   ar
    19    22    23   ar
    20    19    18   ar
    21    23    18   ar
    22    18    17    1
    23    15    17    1
    24    15    16    2
