@<TRIPOS>MOLECULE
3ly6_ATP_A_1.pdb
 31 33 0 0 0
SMALL
GASTEIGER

@<TRIPOS>ATOM
      1  PG        86.7030   -0.8010    3.0480 P.3   700  ATP700      0.5373
      2  O1G       87.1450   -0.3900    4.5400 O.3   700  ATP700     -0.1143
      3  O2G       85.5920    0.0170    2.5060 O.3   700  ATP700     -0.1143
      4  O3G       88.0230   -0.6940    2.1330 O.2   700  ATP700     -0.2221
      5  PB        85.3560   -2.9460    2.0030 P.3   700  ATP700      0.2277
      6  O1B       85.2260   -1.7780    0.9000 O.2   700  ATP700     -0.5168
      7  O2B       85.8320   -4.2270    1.4340 O.3   700  ATP700     -0.4368
      8  O3B       86.3550   -2.3690    3.1200 O.3   700  ATP700     -0.2258
      9  PA        82.7960   -1.9480    2.6700 P.3   700  ATP700      0.2189
     10  O1A       82.2390   -1.7950    4.0270 O.3   700  ATP700     -0.4371
     11  O2A       83.3390   -0.7480    1.9820 O.2   700  ATP700     -0.5170
     12  O3A       83.9390   -3.0790    2.7550 O.3   700  ATP700     -0.2700
     13  O5'       81.7080   -2.6470    1.7120 O.3   700  ATP700     -0.3112
     14  C5'       81.9560   -2.7070    0.3060 C.3   700  ATP700      0.1813
     15  C4'       81.1220   -3.7990   -0.3660 C.3   700  ATP700      0.1821
     16  O4'       81.2760   -4.9930    0.4240 O.3   700  ATP700     -0.3135
     17  C3'       79.6380   -3.4340   -0.2940 C.3   700  ATP700      0.2184
     18  O3'       78.9120   -4.1820   -1.2740 O.3   700  ATP700     -0.2174
     19  C2'       79.3000   -3.9570    1.0990 C.3   700  ATP700      0.2570
     20  O2'       77.8890   -4.1620    1.1980 O.3   700  ATP700     -0.2130
     21  C1'       79.9860   -5.3150    0.9720 C.3   700  ATP700      0.3186
     22  N9        80.0890   -5.9860    2.2890 N.pl3 700  ATP700     -0.1439
     23  C8        80.7790   -5.5540    3.3390 C.3   700  ATP700      0.3377
     24  N7        80.6570   -6.4210    4.3440 N.2   700  ATP700     -0.2095
     25  C5        79.8810   -7.4140    3.9230 C.2   700  ATP700      0.2526
     26  C6        79.4100   -8.5880    4.5070 C.2   700  ATP700      0.4393
     27  N6        79.7730   -8.9120    5.7430 N.pl3 700  ATP700      0.2180
     28  N1        78.6200   -9.4000    3.7880 N.2   700  ATP700      0.0021
     29  C2        78.2890   -9.1060    2.5480 C.3   700  ATP700      0.5254
     30  N3        78.7250   -7.9990    1.9580 N.2   700  ATP700     -0.0055
     31  C4        79.5140   -7.1440    2.6160 C.2   700  ATP700      0.3518
@<TRIPOS>BOND
     1    18    17    1
     2    15    17    1
     3    15    14    1
     4    15    16    1
     5    17    19    1
     6    14    13    1
     7    16    21    1
     8     6     5    2
     9    21    19    1
    10    21    22    1
    11    19    20    1
    12     7     5    1
    13    13     9    1
    14    30    29    1
    15    30    31    2
    16    11     9    2
    17     5    12    1
    18     5     8    1
    19     4     1    2
    20    22    31    1
    21    22    23    1
    22     3     1    1
    23    29    28    1
    24    31    25    1
    25     9    12    1
    26     9    10    1
    27     1     8    1
    28     1     2    1
    29    23    24    1
    30    28    26    2
    31    25    24    2
    32    25    26    1
    33    26    27    1
