@<TRIPOS>MOLECULE
3lz3_NAP_A_1.pdb
 48 52 0 0 0
SMALL
GASTEIGER

@<TRIPOS>ATOM
      1  PA        22.5780   -4.6780   26.9220 P.3   500  NAP500      0.2189
      2  O1A       23.4930   -3.6220   26.4190 O.2   500  NAP500     -0.5170
      3  O2A       21.5040   -4.3440   27.8590 O.3   500  NAP500     -0.4371
      4  O5B       23.5140   -5.8540   27.4220 O.3   500  NAP500     -0.3112
      5  C5B       22.9200   -7.0740   27.9340 C.3   500  NAP500      0.1813
      6  C4B       24.0890   -7.9670   28.2910 C.3   500  NAP500      0.1820
      7  O4B       24.8440   -7.3840   29.3570 O.3   500  NAP500     -0.3136
      8  C3B       23.6930   -9.3750   28.7790 C.3   500  NAP500      0.2157
      9  O3B       24.6510  -10.2960   28.2520 O.3   500  NAP500     -0.2175
     10  C2B       23.8190   -9.2750   30.2900 C.3   500  NAP500      0.2314
     11  O2B       24.1590  -10.5040   30.8590 O.3   500  NAP500     -0.2630
     12  C1B       24.9710   -8.2840   30.4570 C.3   500  NAP500      0.3158
     13  N9A       24.9510   -7.5290   31.6800 N.pl3 500  NAP500     -0.1439
     14  C8A       23.8430   -6.9090   32.2270 C.3   500  NAP500      0.3377
     15  N7A       24.1230   -6.2900   33.3420 N.2   500  NAP500     -0.2095
     16  C5A       25.4790   -6.4940   33.5290 C.2   500  NAP500      0.2526
     17  C6A       26.3170   -6.0880   34.5650 C.2   500  NAP500      0.4393
     18  N6A       25.9010   -5.3580   35.6090 N.pl3 500  NAP500      0.2180
     19  N1A       27.6210   -6.4830   34.4670 N.2   500  NAP500      0.0021
     20  C2A       28.0100   -7.2440   33.4060 C.3   500  NAP500      0.5254
     21  N3A       27.2570   -7.6750   32.3790 N.2   500  NAP500     -0.0055
     22  C4A       25.9740   -7.2570   32.4940 C.2   500  NAP500      0.3518
     23  O3        21.9550   -5.3900   25.5910 O.3   500  NAP500     -0.2703
     24  PN        20.5870   -5.4980   24.8390 P.3   500  NAP500      0.2189
     25  O1N       19.8000   -6.6280   25.3830 O.3   500  NAP500     -0.4371
     26  O2N       20.9210   -5.5100   23.3710 O.2   500  NAP500     -0.5170
     27  O5D       19.8460   -4.1040   25.0740 O.3   500  NAP500     -0.3112
     28  C5D       18.9480   -3.8620   26.2030 C.3   500  NAP500      0.1813
     29  C4D       17.5210   -3.9980   25.8020 C.3   500  NAP500      0.1799
     30  O4D       17.1860   -2.9700   24.7980 O.3   500  NAP500     -0.3327
     31  C3D       17.1060   -5.2770   25.1030 C.3   500  NAP500      0.2158
     32  O3D       17.0490   -6.3930   25.9430 O.3   500  NAP500     -0.2175
     33  C2D       15.7840   -4.8630   24.4910 C.3   500  NAP500      0.2309
     34  O2D       14.8080   -4.8300   25.5380 O.3   500  NAP500     -0.2158
     35  C1D       16.1060   -3.4400   24.0160 C.3   500  NAP500      0.2263
     36  N1N       16.5600   -3.4080   22.5770 N.pl3 500  NAP500     -0.2787
     37  C2N       15.7170   -2.8610   21.6590 C.3   500  NAP500      0.1244
     38  C3N       16.0630   -2.8300   20.3210 C.2   500  NAP500      0.0544
     39  C7N       15.1810   -2.1900   19.2950 C.2   500  NAP500      0.2818
     40  O7N       15.3900   -2.3920   18.1090 O.2   500  NAP500     -0.2670
     41  N7N       14.2440   -1.3440   19.7620 N.am  500  NAP500     -0.0839
     42  C4N       17.2690   -3.4060   19.9120 C.2   500  NAP500      0.0033
     43  C5N       18.1420   -3.9130   20.8480 C.2   500  NAP500      0.0157
     44  C6N       17.8030   -3.8900   22.2000 C.2   500  NAP500      0.0633
     45  P2B       23.1160  -11.4090   31.7250 P.3   500  NAP500      0.5328
     46  O1X       23.7130  -12.7940   31.5130 O.3   500  NAP500     -0.1145
     47  O2X       23.2410  -10.9430   33.1630 O.3   500  NAP500     -0.1145
     48  O3X       21.7410  -11.1890   31.1650 O.2   500  NAP500     -0.2224
@<TRIPOS>BOND
     1    40    39    2
     2    39    41   am
     3    39    38    1
     4    42    38    2
     5    42    43    1
     6    38    37    1
     7    43    44    2
     8    37    36    1
     9    44    36    1
    10    36    35    1
    11    26    24    2
    12    35    33    1
    13    35    30    1
    14    33    31    1
    15    33    34    1
    16    30    29    1
    17    24    27    1
    18    24    25    1
    19    24    23    1
    20    27    28    1
    21    31    29    1
    22    31    32    1
    23    23     1    1
    24    29    28    1
    25     2     1    2
    26     1     4    1
    27     1     3    1
    28     4     5    1
    29     5     6    1
    30     9     8    1
    31     6     8    1
    32     6     7    1
    33     8    10    1
    34     7    12    1
    35    10    12    1
    36    10    11    1
    37    12    13    1
    38    11    45    1
    39    48    45    2
    40    46    45    1
    41    13    14    1
    42    13    22    1
    43    45    47    1
    44    14    15    1
    45    21    22    2
    46    21    20    1
    47    22    16    1
    48    15    16    2
    49    20    19    1
    50    16    17    1
    51    19    17    2
    52    17    18    1
