@<TRIPOS>MOLECULE
3lz3_388_A_1.pdb
 24 25 0 0 0
SMALL
GASTEIGER

@<TRIPOS>ATOM
      1  C1        18.2440   -5.8680   13.7290 C.3   600  388600      0.1440
      2  N10       17.6360   -6.7320   14.7270 N.am  600  388600     -0.1966
      3  C11       17.7890   -8.0690   14.6340 C.2   600  388600      0.2680
      4  O12       18.3960   -8.5900   13.7360 O.2   600  388600     -0.2682
      5  C2        17.3400   -5.3570   12.6570 C.ar  600  388600      0.0270
      6  C7        17.8010   -4.3710   11.7910 C.ar  600  388600      0.1383
      7  F9        19.0380   -3.9220   11.9640 F     600  388600     -0.2044
      8  C6        17.0280   -3.7890   10.8050 C.ar  600  388600      0.0361
      9  C5        15.7330   -4.2550   10.6860 C.ar  600  388600      0.0368
     10 BR8        14.7060   -3.4100    9.3780 Br    600  388600     -0.0489
     11  C4        15.2230   -5.2350   11.5040 C.ar  600  388600      0.0066
     12  C3        16.0110   -5.8010   12.4950 C.ar  600  388600      0.0002
     13  C8        16.9640   -8.8280   15.6260 C.ar  600  388600      0.0890
     14  C9        16.3870  -10.0070   15.2120 C.ar  600  388600      0.0085
     15  C10       15.5770  -10.7850   16.0330 C.ar  600  388600      0.0117
     16  C12       15.3850  -10.3580   17.3300 C.ar  600  388600      0.0607
     17 CL1        14.3990  -11.2480   18.4020 Cl    600  388600     -0.0821
     18  C14       15.9890   -9.1830   17.8080 C.ar  600  388600      0.0484
     19  C15       16.7900   -8.4500   16.9590 C.ar  600  388600      0.1446
     20  O20       17.4740   -7.3470   17.3870 O.3   600  388600     -0.4635
     21  C21       16.9630   -6.6030   18.4670 C.3   600  388600      0.3186
     22  C22       15.7170   -5.8490   18.0570 C.2   600  388600      0.4084
     23  O24       14.9910   -5.4360   19.0150 O.co2 600  388600     -0.2415
     24  O23       15.5000   -5.6740   16.8530 O.co2 600  388600     -0.2415
@<TRIPOS>BOND
     1    10     9    1
     2     9     8   ar
     3     9    11   ar
     4     8     6   ar
     5    11    12   ar
     6     6     7    1
     7     6     5   ar
     8    12     5   ar
     9     5     1    1
    10     1     2    1
    11     4     3    2
    12     3     2   am
    13     3    13    1
    14    14    13   ar
    15    14    15   ar
    16    13    19   ar
    17    15    16   ar
    18    24    22   ar
    19    19    20    1
    20    19    18   ar
    21    16    18   ar
    22    16    17    1
    23    20    21    1
    24    22    21    1
    25    22    23   ar
