@<TRIPOS>MOLECULE
3lz5_LDT_A_1.pdb
 24 25 0 0 0
SMALL
GASTEIGER

@<TRIPOS>ATOM
      1  C2        15.7790   -9.3390   18.0590 C.ar  600  LDT600      0.0666
      2  C3        16.0590  -10.2130   15.4750 C.ar  600  LDT600      0.0071
      3  C4        16.6180   -8.6410   17.2080 C.ar  600  LDT600      0.1433
      4  C5        15.0850  -10.4540   17.5920 C.ar  600  LDT600      0.1432
      5  C6        15.2250  -10.9170   16.2800 C.ar  600  LDT600      0.0299
      6  C7        16.7450   -9.0760   15.9000 C.ar  600  LDT600      0.0556
      7 BR8        14.8560   -3.6520    9.5780 Br    600  LDT600     -0.0489
      8  F9        14.2880  -11.0900   18.4570 F     600  LDT600     -0.2041
      9  C11       17.6060   -8.3600   14.9190 C.2   600  LDT600      0.1039
     10  C13       18.2760   -6.1910   14.0520 C.3   600  LDT600      0.1414
     11  F14       19.1900   -4.2340   12.3220 F     600  LDT600     -0.2044
     12  O15       17.3800   -7.5620   17.5990 O.3   600  LDT600     -0.4636
     13  S16       18.4370   -9.1750   13.8670 S.2   600  LDT600     -0.0331
     14  N17       17.5620   -7.0060   14.9680 N.am  600  LDT600     -0.2257
     15  C20       16.9270   -6.7560   18.6610 C.3   600  LDT600      0.3186
     16  C24       17.4170   -5.6130   12.9250 C.ar  600  LDT600      0.0269
     17  C25       15.8590   -4.4650   10.9000 C.ar  600  LDT600      0.0368
     18  C26       16.0950   -6.0340   12.6970 C.ar  600  LDT600      0.0002
     19  C27       17.9250   -4.6350   12.1190 C.ar  600  LDT600      0.1383
     20  C28       17.1680   -4.0440   11.0980 C.ar  600  LDT600      0.0361
     21  C29       15.3020   -5.4770   11.6880 C.ar  600  LDT600      0.0066
     22  C32       15.7260   -5.9200   18.1940 C.2   600  LDT600      0.4084
     23  O33       15.0090   -5.4460   19.0860 O.co2 600  LDT600     -0.2415
     24  O34       15.5690   -5.7650   16.9490 O.co2 600  LDT600     -0.2415
@<TRIPOS>BOND
     1     7    17    1
     2    17    20   ar
     3    17    21   ar
     4    20    19   ar
     5    21    18   ar
     6    19    11    1
     7    19    16   ar
     8    18    16   ar
     9    16    10    1
    10    13     9    2
    11    10    14    1
    12     9    14    1
    13     9     6    1
    14     2     6   ar
    15     2     5   ar
    16     6     3   ar
    17     5     4   ar
    18    24    22   ar
    19     3    12    1
    20     3     1   ar
    21     4     1   ar
    22     4     8    1
    23    12    15    1
    24    22    15    1
    25    22    23   ar
