@<TRIPOS>MOLECULE
3lz5_NAP_A_1.pdb
 48 52 0 0 0
SMALL
GASTEIGER

@<TRIPOS>ATOM
      1  PA        22.6760   -4.7100   27.0090 P.3   500  NAP500      0.2189
      2  O1A       23.6060   -3.6760   26.5070 O.2   500  NAP500     -0.5170
      3  O2A       21.6170   -4.3700   27.9530 O.3   500  NAP500     -0.4371
      4  O5B       23.6080   -5.8960   27.5250 O.3   500  NAP500     -0.3112
      5  C5B       23.0150   -7.1110   28.0230 C.3   500  NAP500      0.1813
      6  C4B       24.1580   -8.0250   28.3930 C.3   500  NAP500      0.1820
      7  O4B       24.9330   -7.4530   29.4590 O.3   500  NAP500     -0.3136
      8  C3B       23.7610   -9.4380   28.8520 C.3   500  NAP500      0.2157
      9  O3B       24.7330  -10.3430   28.3350 O.3   500  NAP500     -0.2175
     10  C2B       23.8860   -9.3100   30.3870 C.3   500  NAP500      0.2314
     11  O2B       24.2110  -10.5730   30.9690 O.3   500  NAP500     -0.2630
     12  C1B       25.0640   -8.3540   30.5430 C.3   500  NAP500      0.3158
     13  N9A       25.0140   -7.5960   31.7670 N.pl3 500  NAP500     -0.1439
     14  C8A       23.9140   -6.9600   32.3120 C.3   500  NAP500      0.3377
     15  N7A       24.2060   -6.3340   33.4350 N.2   500  NAP500     -0.2095
     16  C5A       25.5440   -6.5560   33.6180 C.2   500  NAP500      0.2526
     17  C6A       26.4110   -6.1500   34.6560 C.2   500  NAP500      0.4393
     18  N6A       26.0110   -5.4050   35.7250 N.pl3 500  NAP500      0.2180
     19  N1A       27.7080   -6.5720   34.5620 N.2   500  NAP500      0.0021
     20  C2A       28.1120   -7.3350   33.5200 C.3   500  NAP500      0.5254
     21  N3A       27.3350   -7.7510   32.4800 N.2   500  NAP500     -0.0055
     22  C4A       26.0490   -7.3400   32.5910 C.2   500  NAP500      0.3518
     23  O3        22.0570   -5.4290   25.7020 O.3   500  NAP500     -0.2703
     24  PN        20.6850   -5.5260   24.9030 P.3   500  NAP500      0.2189
     25  O1N       19.8960   -6.6590   25.4530 O.3   500  NAP500     -0.4371
     26  O2N       21.0430   -5.5320   23.4570 O.2   500  NAP500     -0.5170
     27  O5D       19.9450   -4.1300   25.1310 O.3   500  NAP500     -0.3112
     28  C5D       19.0580   -3.8820   26.2690 C.3   500  NAP500      0.1813
     29  C4D       17.6120   -3.9930   25.8540 C.3   500  NAP500      0.1799
     30  O4D       17.2860   -2.9830   24.8610 O.3   500  NAP500     -0.3327
     31  C3D       17.1870   -5.2920   25.1520 C.3   500  NAP500      0.2158
     32  O3D       17.1360   -6.4090   25.9900 O.3   500  NAP500     -0.2175
     33  C2D       15.8630   -4.8760   24.5390 C.3   500  NAP500      0.2309
     34  O2D       14.8970   -4.8400   25.5950 O.3   500  NAP500     -0.2158
     35  C1D       16.2030   -3.4400   24.0570 C.3   500  NAP500      0.2263
     36  N1N       16.6600   -3.4170   22.6190 N.pl3 500  NAP500     -0.2787
     37  C2N       15.8180   -2.8770   21.6990 C.3   500  NAP500      0.1244
     38  C3N       16.1560   -2.8630   20.3590 C.2   500  NAP500      0.0544
     39  C7N       15.2760   -2.2150   19.3400 C.2   500  NAP500      0.2818
     40  O7N       15.4830   -2.4250   18.1390 O.2   500  NAP500     -0.2670
     41  N7N       14.3700   -1.3580   19.7930 N.am  500  NAP500     -0.0839
     42  C4N       17.3620   -3.4580   19.9540 C.2   500  NAP500      0.0033
     43  C5N       18.2430   -3.9530   20.9060 C.2   500  NAP500      0.0157
     44  C6N       17.9020   -3.9190   22.2480 C.2   500  NAP500      0.0633
     45  P2B       23.1310  -11.4680   31.8090 P.3   500  NAP500      0.5328
     46  O1X       23.6990  -12.8620   31.6090 O.3   500  NAP500     -0.1145
     47  O2X       23.2720  -11.0010   33.2510 O.3   500  NAP500     -0.1145
     48  O3X       21.7760  -11.2300   31.2330 O.2   500  NAP500     -0.2224
@<TRIPOS>BOND
     1    40    39    2
     2    39    41   am
     3    39    38    1
     4    42    38    2
     5    42    43    1
     6    38    37    1
     7    43    44    2
     8    37    36    1
     9    44    36    1
    10    36    35    1
    11    26    24    2
    12    35    33    1
    13    35    30    1
    14    33    31    1
    15    33    34    1
    16    30    29    1
    17    24    27    1
    18    24    25    1
    19    24    23    1
    20    27    28    1
    21    31    29    1
    22    31    32    1
    23    23     1    1
    24    29    28    1
    25     2     1    2
    26     1     4    1
    27     1     3    1
    28     4     5    1
    29     5     6    1
    30     9     8    1
    31     6     8    1
    32     6     7    1
    33     8    10    1
    34     7    12    1
    35    10    12    1
    36    10    11    1
    37    12    13    1
    38    11    45    1
    39    48    45    2
    40    46    45    1
    41    13    14    1
    42    13    22    1
    43    45    47    1
    44    14    15    1
    45    21    22    2
    46    21    20    1
    47    22    16    1
    48    15    16    2
    49    20    19    1
    50    16    17    1
    51    19    17    2
    52    17    18    1
