@<TRIPOS>MOLECULE
3lz6_A0D_A_1.pdb
 20 23 0 0 0
SMALL
GASTEIGER

@<TRIPOS>ATOM
      1  N1         9.3700   22.1680   45.9450 N.am  2004  A0D2004    -0.2061
      2  C2         9.8040   21.6990   44.6760 C.2   2004  A0D2004     0.2558
      3  C3         8.6980   21.5570   43.6310 C.3   2004  A0D2004     0.1365
      4  O4        11.0680   21.8160   44.1810 O.2   2004  A0D2004    -0.2719
      5  N5         7.3140   21.6610   44.2360 N.3   2004  A0D2004    -0.2665
      6  C6         6.4500   20.7500   43.5850 C.3   2004  A0D2004     0.0725
      7  C7         7.3290   19.5120   43.4740 C.3   2004  A0D2004     0.0192
      8  C8         8.7620   19.9630   43.5440 C.3   2004  A0D2004     0.0268
      9  C9        10.1950   24.1530   47.6680 C.3   2004  A0D2004     0.0200
     10  C10       10.3250   22.6630   46.9920 C.3   2004  A0D2004     0.0952
     11  C11        8.8870   24.2340   48.2370 C.3   2004  A0D2004     0.0017
     12  C12        8.4730   23.0580   48.9720 C.3   2004  A0D2004     0.0001
     13  C13        9.5070   23.1000   50.0920 C.3   2004  A0D2004     0.0000
     14  C14       10.9370   23.0840   49.6460 C.3   2004  A0D2004     0.0001
     15  C15       11.0820   21.8250   48.9470 C.3   2004  A0D2004     0.0017
     16  C16       10.0840   21.8410   47.8670 C.3   2004  A0D2004     0.0200
     17  C17        8.6910   21.8060   48.4120 C.3   2004  A0D2004     0.0017
     18  C18       11.3100   24.1470   48.6390 C.3   2004  A0D2004     0.0017
     19  C19        6.8020   22.9890   43.9470 C.3   2004  A0D2004     0.0725
     20  C20        5.4690   23.2230   44.6920 C.3   2004  A0D2004     0.0188
@<TRIPOS>BOND
     1     7     8    1
     2     7     6    1
     3     8     3    1
     4     6     5    1
     5     3     5    1
     6     3     2    1
     7    19     5    1
     8    19    20    1
     9     4     2    2
    10     2     1   am
    11     1    10    1
    12    10     9    1
    13    10    16    1
    14     9    11    1
    15     9    18    1
    16    16    17    1
    17    16    15    1
    18    11    12    1
    19    17    12    1
    20    18    14    1
    21    15    14    1
    22    12    13    1
    23    14    13    1
