@<TRIPOS>MOLECULE
3lz6_NAP_A_1.pdb
 48 52 0 0 0
SMALL
GASTEIGER

@<TRIPOS>ATOM
      1  PA        15.1180   20.2930   54.2870 P.3   2000  NAP2000     0.2189
      2  O1A       14.8270   21.7440   54.4070 O.2   2000  NAP2000    -0.5170
      3  O2A       14.3280   19.2370   54.9930 O.3   2000  NAP2000    -0.4371
      4  O5B       16.6290   20.0270   54.5200 O.3   2000  NAP2000    -0.3112
      5  C5B       17.5730   20.9000   53.8940 C.3   2000  NAP2000     0.1813
      6  C4B       18.9700   20.6150   54.4780 C.3   2000  NAP2000     0.1820
      7  O4B       19.9190   21.5360   53.9320 O.3   2000  NAP2000    -0.3136
      8  C3B       18.9740   20.8150   55.9500 C.3   2000  NAP2000     0.2157
      9  O3B       19.8170   19.7370   56.3680 O.3   2000  NAP2000    -0.2175
     10  C2B       19.7270   22.1120   56.2250 C.3   2000  NAP2000     0.2314
     11  O2B       20.3320   22.1030   57.5170 O.3   2000  NAP2000    -0.2630
     12  C1B       20.5170   22.3560   54.9390 C.3   2000  NAP2000     0.3158
     13  N9A       20.7620   23.7470   54.7000 N.pl3 2000  NAP2000    -0.1439
     14  C8A       19.8480   24.7330   54.5480 C.3   2000  NAP2000     0.3377
     15  N7A       20.5020   25.9130   54.4200 N.2   2000  NAP2000    -0.2095
     16  C5A       21.8380   25.6570   54.5070 C.2   2000  NAP2000     0.2526
     17  C6A       23.0410   26.3570   54.5090 C.2   2000  NAP2000     0.4393
     18  N6A       23.0910   27.6800   54.3480 N.pl3 2000  NAP2000     0.2180
     19  N1A       24.2250   25.7620   54.6150 N.2   2000  NAP2000     0.0021
     20  C2A       24.3470   24.4290   54.7530 C.3   2000  NAP2000     0.5254
     21  N3A       23.2480   23.6910   54.7510 N.2   2000  NAP2000    -0.0055
     22  C4A       21.9520   24.3180   54.6690 C.2   2000  NAP2000     0.3518
     23  O3        15.0620   19.9620   52.6840 O.3   2000  NAP2000    -0.2703
     24  PN        14.5010   18.6750   51.9660 P.3   2000  NAP2000     0.2189
     25  O1N       13.0270   18.7700   51.7690 O.2   2000  NAP2000    -0.5170
     26  O2N       15.0010   17.4590   52.5970 O.3   2000  NAP2000    -0.4371
     27  O5D       15.1020   18.8120   50.4590 O.3   2000  NAP2000    -0.3112
     28  C5D       16.4840   18.4120   50.2000 C.3   2000  NAP2000     0.1813
     29  C4D       16.7840   18.5600   48.7160 C.3   2000  NAP2000     0.1799
     30  O4D       15.7590   17.9450   47.9220 O.3   2000  NAP2000    -0.3327
     31  C3D       16.8180   20.0200   48.3330 C.3   2000  NAP2000     0.2158
     32  O3D       17.8710   20.0540   47.3790 O.3   2000  NAP2000    -0.2175
     33  C2D       15.5680   20.2290   47.5160 C.3   2000  NAP2000     0.2309
     34  O2D       15.6260   21.3110   46.6520 O.3   2000  NAP2000    -0.2158
     35  C1D       15.1360   18.8300   47.0200 C.3   2000  NAP2000     0.2263
     36  N1N       13.7070   18.6640   46.7780 N.pl3 2000  NAP2000    -0.2787
     37  C2N       12.8410   18.5340   47.8160 C.3   2000  NAP2000     0.1244
     38  C3N       11.4670   18.4610   47.5820 C.2   2000  NAP2000     0.0544
     39  C7N       10.5120   18.2000   48.6850 C.2   2000  NAP2000     0.2818
     40  O7N        9.3370   18.1560   48.3520 O.2   2000  NAP2000    -0.2670
     41  N7N       10.9870   18.0220   49.9530 N.am  2000  NAP2000    -0.0839
     42  C4N       10.9790   18.6410   46.2630 C.2   2000  NAP2000     0.0033
     43  C5N       11.9180   18.7430   45.2460 C.2   2000  NAP2000     0.0157
     44  C6N       13.2530   18.7750   45.5350 C.2   2000  NAP2000     0.0633
     45  P2B       20.6810   23.3410   58.4620 P.3   2000  NAP2000     0.5328
     46  O1X       21.8020   23.9980   57.7940 O.2   2000  NAP2000    -0.2224
     47  O2X       19.4010   24.1490   58.4630 O.3   2000  NAP2000    -0.1145
     48  O3X       21.1510   22.5560   59.6940 O.3   2000  NAP2000    -0.1145
@<TRIPOS>BOND
     1    43    44    2
     2    43    42    1
     3    44    36    1
     4    42    38    2
     5    34    33    1
     6    36    35    1
     7    36    37    1
     8    35    33    1
     9    35    30    1
    10    32    31    1
    11    33    31    1
    12    38    37    1
    13    38    39    1
    14    30    29    1
    15    31    29    1
    16    40    39    2
    17    39    41   am
    18    29    28    1
    19    28    27    1
    20    27    24    1
    21    25    24    2
    22    24    26    1
    23    24    23    1
    24    23     1    1
    25     5     6    1
    26     5     4    1
    27     7     6    1
    28     7    12    1
    29     1     2    2
    30     1     4    1
    31     1     3    1
    32    18    17    1
    33    15    16    2
    34    15    14    1
    35     6     8    1
    36    16    17    1
    37    16    22    1
    38    17    19    2
    39    14    13    1
    40    19    20    1
    41    22    13    1
    42    22    21    2
    43    13    12    1
    44    21    20    1
    45    12    10    1
    46     8    10    1
    47     8     9    1
    48    10    11    1
    49    11    45    1
    50    46    45    2
    51    45    47    1
    52    45    48    1
