@<TRIPOS>MOLECULE
3lz9_FPF_A_1.pdb
 25 24 0 0 0
SMALL
GASTEIGER

@<TRIPOS>ATOM
      1  C1       109.6350   43.5280   49.1020 C.3   700  FPF700      0.2044
      2  O1       109.7040   42.3400   49.8830 O.3   700  FPF700     -0.3065
      3  C2       110.3260   43.3850   47.7490 C.2   700  FPF700      0.1400
      4  F        111.4120   44.1330   47.6670 F     700  FPF700     -0.2069
      5  C3       109.9050   42.5940   46.7280 C.2   700  FPF700     -0.0178
      6  C4       108.6540   41.7290   46.8130 C.3   700  FPF700      0.0284
      7  C5       110.5990   42.4630   45.3710 C.3   700  FPF700      0.0287
      8  C6       112.1110   42.1620   45.2870 C.3   700  FPF700      0.0298
      9  C7       112.4880   40.9830   46.1410 C.2   700  FPF700     -0.0342
     10  C8       113.2700   39.9440   45.8320 C.2   700  FPF700     -0.0478
     11  C10      113.9600   39.7500   44.5000 C.3   700  FPF700      0.0260
     12  C9       113.5410   38.8320   46.8090 C.3   700  FPF700      0.0263
     13  C11      112.3990   37.8360   47.0820 C.3   700  FPF700      0.0297
     14  C12      111.7380   38.1150   48.4120 C.2   700  FPF700     -0.0342
     15  C13      110.4230   38.2460   48.6710 C.2   700  FPF700     -0.0478
     16  C14      109.9550   38.5240   50.0670 C.3   700  FPF700      0.0260
     17  C15      109.3060   38.1360   47.6590 C.3   700  FPF700      0.0260
     18  P1       109.0110   42.2950   51.3310 P.3   700  FPF700      0.2234
     19  O1A      109.6320   43.5180   52.3870 O.3   700  FPF700     -0.4370
     20  O2A      109.1960   40.8600   51.9890 O.2   700  FPF700     -0.5169
     21  O3A      107.4440   42.4530   51.0130 O.3   700  FPF700     -0.2261
     22  P2       106.3830   41.3050   50.6930 P.3   700  FPF700      0.5373
     23  O1B      105.8520   40.7790   52.0970 O.3   700  FPF700     -0.1143
     24  O2B      105.1430   42.0640   50.0620 O.3   700  FPF700     -0.1143
     25  O3B      106.9550   40.0180   49.6880 O.2   700  FPF700     -0.2221
@<TRIPOS>BOND
     1    11    10    1
     2     8     7    1
     3     8     9    1
     4     7     5    1
     5    10     9    2
     6    10    12    1
     7     5     6    1
     8     5     3    2
     9    12    13    1
    10    13    14    1
    11    17    15    1
    12     4     3    1
    13     3     1    1
    14    14    15    2
    15    15    16    1
    16     1     2    1
    17    25    22    2
    18     2    18    1
    19    24    22    1
    20    22    21    1
    21    22    23    1
    22    21    18    1
    23    18    20    2
    24    18    19    1
