@<TRIPOS>MOLECULE
3lzb_ITI_A_1.pdb
 43 49 0 0 0
SMALL
GASTEIGER

@<TRIPOS>ATOM
      1  C4        15.7310    7.2150   -4.6190 C.ar    1  ITI1        0.0014
      2  C5        15.9960    7.8550   -3.4340 C.ar    1  ITI1        0.0024
      3  C6        19.9780    2.7350   -5.8490 C.ar    1  ITI1       -0.0038
      4  C7        19.8650    0.5560   -4.8720 C.ar    1  ITI1       -0.0038
      5  C8        13.3330   12.0430    2.5220 C.ar    1  ITI1        0.0159
      6  C10       16.1820    5.9370   -4.8070 C.ar    1  ITI1        0.0166
      7  C13       13.8500    7.1610   -1.4780 C.2     1  ITI1        0.0522
      8  C15       12.4960    7.1050   -1.6000 C.2     1  ITI1        0.1141
      9  C17       19.2590    1.7440   -5.2150 C.ar    1  ITI1       -0.0130
     10  C20       16.8630    5.2930   -3.8040 C.ar    1  ITI1        0.0734
     11  C21       14.3280    8.0380   -0.5410 C.2     1  ITI1        0.1484
     12  C22       16.8250    7.8290   -1.1300 C.2     1  ITI1        0.1364
     13  C24       12.2620    8.6740    0.0570 C.1     1  ITI1        0.1694
     14  C26       15.8070    9.2680    1.9420 C.2     1  ITI1        0.0755
     15  C28       17.2850    3.2670   -5.1250 C.2     1  ITI1        0.2500
     16  C1        21.9260    1.3230   -5.8050 C.ar    1  ITI1       -0.0000
     17  C2        21.3100    2.5140   -6.1330 C.ar    1  ITI1       -0.0003
     18  C3        21.1960    0.3430   -5.1700 C.ar    1  ITI1       -0.0003
     19  C9        11.2390   11.7270    3.6830 C.ar    1  ITI1        0.0159
     20  C11       12.9790   11.0740    1.6200 C.ar    1  ITI1        0.0186
     21  C12       10.9010   10.7750    2.7500 C.ar    1  ITI1        0.0186
     22  C14       17.0810    5.9200   -2.6070 C.ar    1  ITI1        0.0189
     23  C16       16.6770    7.2130   -2.4260 C.ar    1  ITI1        0.0288
     24  C18       12.4700   12.3220    3.5640 C.ar    1  ITI1        0.0481
     25  C19       11.7720   10.4210    1.7440 C.ar    1  ITI1        0.0827
     26  C23       15.7470    8.1830   -0.3400 C.3     1  ITI1        0.1853
     27  C25       17.6240    8.6570    0.6260 C.2     1  ITI1        0.2187
     28  C27       16.8380    9.6330    2.7150 C.2     1  ITI1        0.0553
     29  C29       14.0770   13.8760    4.5700 C.3     1  ITI1        0.1231
     30  C30       11.8660   13.3660    5.6180 C.3     1  ITI1        0.1231
     31  C31       13.9810   14.9860    5.5980 C.3     1  ITI1        0.1636
     32  C32       12.8010   13.2890    6.8090 C.3     1  ITI1        0.1636
     33  C33       17.8200    1.8960   -4.8840 C.3     1  ITI1        0.1135
     34  N34       11.7090    7.8660   -0.8480 N.2     1  ITI1       -0.1683
     35  N35       13.5710    8.7820    0.2520 N.2     1  ITI1       -0.3384
     36  N36       18.0140    8.1210   -0.5130 N.2     1  ITI1       -0.3825
     37  N37       16.2850    8.7110    0.7860 N.pl3   1  ITI1       -0.2447
     38  N38       12.7750   13.2520    4.5270 N.pl3   1  ITI1       -0.3028
     39  N39       11.3800    9.4570    0.8130 N.pl3   1  ITI1       -0.1358
     40  N40       17.3050    3.9630   -3.9340 N.am    1  ITI1       -0.1789
     41  O41       16.9050    3.6460   -6.2300 O.2     1  ITI1       -0.2726
     42  O42       13.5800   14.4850    6.8900 O.3     1  ITI1       -0.3501
     43  S43       18.4130    9.2930    2.0410 S.3     1  ITI1       -0.0379
@<TRIPOS>BOND
     1    41    15    2
     2    17     3   ar
     3    17    16   ar
     4     3     9   ar
     5    16    18   ar
     6     9    33    1
     7     9     4   ar
     8    18     4   ar
     9    15    33    1
    10    15    40   am
    11     6     1   ar
    12     6    10   ar
    13     1     2   ar
    14    40    10    1
    15    10    22   ar
    16     2    23   ar
    17    22    23   ar
    18    23    12    1
    19     8     7    2
    20     8    34    1
    21     7    11    1
    22    12    36    2
    23    12    26    1
    24    34    13    2
    25    11    26    1
    26    11    35    2
    27    36    27    2
    28    26    37    1
    29    13    35    2
    30    13    39    1
    31    27    37    1
    32    27    43    1
    33    37    14    1
    34    39    25    1
    35    20    25   ar
    36    20     5   ar
    37    25    21   ar
    38    14    28    2
    39    43    28    1
    40     5    24   ar
    41    21    19   ar
    42    24    19   ar
    43    24    38    1
    44    38    29    1
    45    38    30    1
    46    29    31    1
    47    31    42    1
    48    30    32    1
    49    32    42    1
