@<TRIPOS>MOLECULE
3lze_PE0_A_1.pdb
 12 13 0 0 0
SMALL
GASTEIGER

@<TRIPOS>ATOM
      1  C1       -15.6010   12.5540   25.9820 C.2   211  PE0211      0.2510
      2  C4       -14.5400   12.8720   25.0890 C.1   211  PE0211      0.2445
      3  O4       -13.7110   13.7750   25.3180 O.2   211  PE0211     -0.2063
      4  N2       -14.4180   12.1300   23.8980 N.2   211  PE0211     -0.2474
      5  C3       -15.3870   11.1060   23.6030 C.1   211  PE0211      0.2608
      6  N6       -15.3090   10.3910   22.4760 N.pl3 211  PE0211     -0.0220
      7  N1       -16.3850   10.8400   24.4720 N.2   211  PE0211     -0.2679
      8  C2       -16.5120   11.5380   25.6380 C.1   211  PE0211      0.1318
      9  N3       -17.5240   11.2410   26.4870 N.2   211  PE0211     -0.1781
     10  C6       -17.6830   11.9090   27.6360 C.2   211  PE0211      0.1312
     11  C5       -16.7870   12.9340   27.9720 C.2   211  PE0211      0.1220
     12  N4       -15.7860   13.2380   27.1470 N.2   211  PE0211     -0.2195
@<TRIPOS>BOND
     1     6     5    1
     2     5     4    2
     3     5     7    2
     4     4     2    2
     5     7     8    2
     6     2     3    2
     7     2     1    1
     8     8     1    1
     9     8     9    2
    10     1    12    2
    11     9    10    1
    12    12    11    1
    13    10    11    2
