@<TRIPOS>MOLECULE
3lzi_DTP_A_1.pdb
 30 32 0 0 0
SMALL
GASTEIGER

@<TRIPOS>ATOM
      1  PG        -4.1940  -15.3330   50.5350 P.3   904  DTP904      0.5373
      2  O1G       -4.0750  -16.3170   49.3960 O.2   904  DTP904     -0.2221
      3  O2G       -2.9410  -15.1740   51.3650 O.3   904  DTP904     -0.1143
      4  O3G       -5.4480  -15.5220   51.3450 O.3   904  DTP904     -0.1143
      5  PB        -3.5870  -12.5980   49.8440 P.3   904  DTP904      0.2277
      6  O1B       -4.4110  -11.4920   49.2430 O.2   904  DTP904     -0.5168
      7  O2B       -3.0370  -12.3910   51.2330 O.3   904  DTP904     -0.4368
      8  O3B       -4.4580  -13.9400   49.7570 O.3   904  DTP904     -0.2258
      9  PA        -0.8720  -12.7990   48.8530 P.3   904  DTP904      0.2189
     10  O1A       -0.3200  -13.4400   47.5990 O.2   904  DTP904     -0.5170
     11  O2A       -0.4490  -13.2820   50.2100 O.3   904  DTP904     -0.4371
     12  O3A       -2.4620  -12.9840   48.7630 O.3   904  DTP904     -0.2700
     13  O5'       -0.5720  -11.2240   48.6650 O.3   904  DTP904     -0.3112
     14  C5'       -0.7670  -10.2800   49.7200 C.3   904  DTP904      0.1813
     15  C4'       -1.2310   -8.9490   49.1290 C.3   904  DTP904      0.1795
     16  O4'       -0.3780   -8.5090   48.0620 O.3   904  DTP904     -0.3155
     17  C3'       -2.6040   -9.0280   48.4950 C.3   904  DTP904      0.1883
     18  O3'       -3.6540   -8.9350   49.4590 O.3   904  DTP904     -0.2202
     19  C2'       -2.5720   -7.8600   47.5320 C.3   904  DTP904      0.1151
     20  C1'       -1.1300   -7.8620   47.0410 C.3   904  DTP904      0.2873
     21  N9        -1.1170   -8.6790   45.8040 N.pl3 904  DTP904     -0.1460
     22  C8        -0.6830   -9.9440   45.6660 C.3   904  DTP904      0.3377
     23  N7        -0.8550  -10.3890   44.3940 N.2   904  DTP904     -0.2095
     24  C5        -1.4020   -9.3840   43.6870 C.2   904  DTP904      0.2526
     25  C6        -1.8500   -9.1590   42.2910 C.2   904  DTP904      0.4393
     26  N6        -1.7320  -10.1260   41.3440 N.pl3 904  DTP904      0.2180
     27  N1        -2.3890   -7.9530   41.9850 N.2   904  DTP904      0.0021
     28  C2        -2.5230   -6.9770   42.8990 C.3   904  DTP904      0.5254
     29  N3        -2.1360   -7.1180   44.1790 N.2   904  DTP904     -0.0055
     30  C4        -1.5810   -8.2660   44.6250 C.2   904  DTP904      0.3518
@<TRIPOS>BOND
     1    26    25    1
     2    27    25    2
     3    27    28    1
     4    25    24    1
     5    28    29    1
     6    24    23    2
     7    24    30    1
     8    29    30    2
     9    23    22    1
    10    30    21    1
    11    22    21    1
    12    21    20    1
    13    20    19    1
    14    20    16    1
    15    19    17    1
    16    10     9    2
    17    16    15    1
    18    17    15    1
    19    17    18    1
    20    13     9    1
    21    13    14    1
    22    12     9    1
    23    12     5    1
    24     9    11    1
    25    15    14    1
    26     6     5    2
    27     2     1    2
    28     8     5    1
    29     8     1    1
    30     5     7    1
    31     1     4    1
    32     1     3    1
