@<TRIPOS>MOLECULE
3lzj_CTP_A_1.pdb
 28 29 0 0 0
SMALL
GASTEIGER

@<TRIPOS>ATOM
      1  N1        -2.3640   10.7410  -14.5070 N.am  904  CTP904     -0.1802
      2  C2        -1.8590    9.9630  -15.5310 C.1   904  CTP904      0.2756
      3  N3        -1.6860   10.5120  -16.7750 N.2   904  CTP904     -0.3024
      4  C4        -2.0200   11.8070  -17.0550 C.2   904  CTP904      0.2346
      5  C5        -2.4630   12.6260  -16.0190 C.2   904  CTP904      0.0687
      6  C6        -2.6470   12.0610  -14.7510 C.2   904  CTP904      0.0835
      7  O2        -1.5310    8.7760  -15.3680 O.2   904  CTP904     -0.1925
      8  N4        -1.9110   12.2120  -18.3170 N.pl3 904  CTP904     -0.0921
      9  C1'       -2.2500   10.1970  -13.1360 C.3   904  CTP904      0.2090
     10  C2'       -0.7910   10.2440  -12.6620 C.3   904  CTP904      0.0874
     11  C3'       -0.7700   11.4420  -11.7390 C.3   904  CTP904      0.1857
     12  C4'       -2.1880   11.4000  -11.1520 C.3   904  CTP904      0.1773
     13  O4'       -3.0220   10.8870  -12.1810 O.3   904  CTP904     -0.3339
     14  O3'        0.2480   11.3650  -10.7680 O.3   904  CTP904     -0.2203
     15  C5'       -2.6680   12.7760  -10.7310 C.3   904  CTP904      0.1812
     16  O5'       -2.6790   13.5720  -11.8910 O.3   904  CTP904     -0.3112
     17  PA        -2.3430   15.1420  -11.7950 P.3   904  CTP904      0.2189
     18  O1A       -2.8920   15.8770  -12.9600 O.2   904  CTP904     -0.5170
     19  O2A       -2.6550   15.6810  -10.4270 O.3   904  CTP904     -0.4371
     20  O3A       -0.7310   15.1730  -12.0210 O.3   904  CTP904     -0.2700
     21  PB         0.4110   14.8690  -10.9490 P.3   904  CTP904      0.2277
     22  O1B        1.2120   13.7610  -11.5890 O.2   904  CTP904     -0.5168
     23  O2B        0.0750   14.4890   -9.5380 O.3   904  CTP904     -0.4368
     24  O3B        1.3850   16.1740  -10.9850 O.3   904  CTP904     -0.2258
     25  PG         1.1230   17.6100  -10.2860 P.3   904  CTP904      0.5373
     26  O1G       -0.2730   17.6370   -9.6730 O.3   904  CTP904     -0.1143
     27  O2G        2.1780   17.7470   -9.2520 O.3   904  CTP904     -0.1143
     28  O3G        1.1800   18.6350  -11.3840 O.2   904  CTP904     -0.2221
@<TRIPOS>BOND
     1     8     4    1
     2     4     3    2
     3     4     5    1
     4     3     2    2
     5     5     6    2
     6     2     7    2
     7     2     1   am
     8     6     1    1
     9     1     9    1
    10     9    10    1
    11     9    13    1
    12    18    17    2
    13    10    11    1
    14    13    12    1
    15    20    17    1
    16    20    21    1
    17    16    17    1
    18    16    15    1
    19    17    19    1
    20    11    12    1
    21    11    14    1
    22    22    21    2
    23    28    25    2
    24    12    15    1
    25    24    21    1
    26    24    25    1
    27    21    23    1
    28    25    26    1
    29    25    27    1
