@<TRIPOS>MOLECULE
3lzs_017_A_1.pdb
 38 41 0 0 0
SMALL
GASTEIGER

@<TRIPOS>ATOM
      1  N1        -8.1290   16.3510   -8.1130 N.pl3 200  017200     -0.1281
      2  C2        -8.2680   16.1010   -6.7880 C.ar  200  017200      0.0892
      3  C3        -7.1400   15.8180   -6.0340 C.ar  200  017200      0.0194
      4  C4        -7.2610   15.5480   -4.6770 C.ar  200  017200      0.0213
      5  C5        -8.5110   15.5830   -4.0740 C.ar  200  017200      0.1223
      6  C6        -9.6500   15.8580   -4.8300 C.ar  200  017200      0.0213
      7  C7        -9.5250   16.1250   -6.1910 C.ar  200  017200      0.0194
      8  S8        -8.6110   15.2710   -2.5100 S.O2  200  017200      0.0634
      9  O9        -9.9040   14.7120   -2.2320 O.2   200  017200     -0.1528
     10  O10       -7.5390   14.3820   -2.1810 O.2   200  017200     -0.1528
     11  N11       -8.4390   16.5670   -1.5710 N.3   200  017200     -0.1529
     12  C12       -7.2400   17.3720   -1.8690 C.3   200  017200      0.0958
     13  C13       -6.7330   18.0570   -0.5970 C.3   200  017200      0.0178
     14  C14       -6.0740   17.0800    0.3710 C.3   200  017200      0.0015
     15  C15       -5.7300   19.1680   -0.9050 C.3   200  017200      0.0015
     16  C16       -9.6900   17.3380   -1.5520 C.3   200  017200      0.1304
     17  C17      -10.1370   17.4200   -0.1010 C.3   200  017200      0.1898
     18  O18      -11.2110   18.3570    0.0170 O.3   200  017200     -0.2197
     19  C19      -10.5460   16.0490    0.4360 C.3   200  017200      0.1347
     20  N20      -10.6740   16.1600    1.8750 N.am  200  017200     -0.1675
     21  C21       -9.9400   15.4960    2.7530 C.2   200  017200      0.4211
     22  O22       -9.0530   14.7040    2.4690 O.2   200  017200     -0.2246
     23  O23      -10.3230   15.7450    4.1330 O.3   200  017200     -0.4345
     24  C24       -9.6380   14.9890    5.1210 C.3   200  017200      0.2048
     25  C25       -9.2420   15.9870    6.1890 C.3   200  017200      0.1884
     26  O26      -10.4790   16.2380    6.8460 O.3   200  017200     -0.3265
     27  C27      -11.2960   15.0530    6.8020 C.3   200  017200      0.2388
     28  O28      -12.6240   15.2760    6.2910 O.3   200  017200     -0.3304
     29  C29      -12.9250   14.4300    5.1860 C.3   200  017200      0.1451
     30  C30      -11.7370   13.4980    5.0000 C.3   200  017200      0.0409
     31  C31      -10.6240   14.0930    5.8430 C.3   200  017200      0.1016
     32  C32      -11.8590   15.5470   -0.1650 C.3   200  017200      0.0508
     33  C33      -13.4160   14.1780    1.2660 C.ar  200  017200     -0.0042
     34  C34      -13.8180   12.9810    1.8520 C.ar  200  017200     -0.0003
     35  C35      -13.0830   11.8220    1.6350 C.ar  200  017200     -0.0000
     36  C36      -11.9530   11.8740    0.8180 C.ar  200  017200     -0.0003
     37  C37      -11.5530   13.0700    0.2320 C.ar  200  017200     -0.0042
     38  C38      -12.2790   14.2330    0.4610 C.ar  200  017200     -0.0204
@<TRIPOS>BOND
     1     1     2    1
     2     2     7   ar
     3     2     3   ar
     4     7     6   ar
     5     3     4   ar
     6     6     5   ar
     7     4     5   ar
     8     5     8    1
     9     8     9    2
    10     8    10    2
    11     8    11    1
    12    12    11    1
    13    12    13    1
    14    11    16    1
    15    16    17    1
    16    15    13    1
    17    13    14    1
    18    32    19    1
    19    32    38    1
    20    17    18    1
    21    17    19    1
    22    37    38   ar
    23    37    36   ar
    24    19    20    1
    25    38    33   ar
    26    36    35   ar
    27    33    34   ar
    28    35    34   ar
    29    20    21   am
    30    22    21    2
    31    21    23    1
    32    23    24    1
    33    30    29    1
    34    30    31    1
    35    24    31    1
    36    24    25    1
    37    29    28    1
    38    31    27    1
    39    25    26    1
    40    28    27    1
    41    27    26    1
