@<TRIPOS>MOLECULE
3lzu_017_A_1.pdb
 38 41 0 0 0
SMALL
GASTEIGER

@<TRIPOS>ATOM
      1  N1         8.9630  -16.2910   -7.9310 N.pl3 200  017200     -0.1281
      2  C2         8.8030  -16.0010   -6.6240 C.ar  200  017200      0.0892
      3  C3         7.5340  -15.8130   -6.0870 C.ar  200  017200      0.0194
      4  C4         7.3980  -15.5000   -4.7360 C.ar  200  017200      0.0213
      5  C5         8.5400  -15.3880   -3.9490 C.ar  200  017200      0.1223
      6  C6         9.7980  -15.5710   -4.5040 C.ar  200  017200      0.0213
      7  C7         9.9370  -15.8820   -5.8440 C.ar  200  017200      0.0194
      8  S8         8.4700  -15.0480   -2.3950 S.O2  200  017200      0.0634
      9  O9         9.6710  -14.3460   -2.0590 O.2   200  017200     -0.1528
     10  O10        7.3100  -14.2510   -2.1400 O.2   200  017200     -0.1528
     11  N11        8.3160  -16.3440   -1.4310 N.3   200  017200     -0.1529
     12  C12        7.1740  -17.1870   -1.8270 C.3   200  017200      0.0958
     13  C13        6.6310  -17.9590   -0.6290 C.3   200  017200      0.0178
     14  C14        6.2750  -17.0200    0.5160 C.3   200  017200      0.0015
     15  C15        5.4090  -18.7900   -1.0160 C.3   200  017200      0.0015
     16  C16        9.5510  -17.1450   -1.3220 C.3   200  017200      0.1304
     17  C17        9.9820  -17.1410    0.1440 C.3   200  017200      0.1898
     18  O18       11.0550  -18.0650    0.3350 O.3   200  017200     -0.2197
     19  C19       10.4380  -15.7720    0.6320 C.3   200  017200      0.1347
     20  N20       10.5840  -15.8550    2.0680 N.am  200  017200     -0.1675
     21  C21        9.7690  -15.2500    2.9200 C.2   200  017200      0.4211
     22  O22        8.7960  -14.5570    2.6300 O.2   200  017200     -0.2246
     23  O23       10.1670  -15.5040    4.2900 O.3   200  017200     -0.4345
     24  C24        9.5010  -14.7070    5.2530 C.3   200  017200      0.2048
     25  C25        9.1030  -15.6180    6.3950 C.3   200  017200      0.1884
     26  O26       10.3110  -15.7140    7.1450 O.3   200  017200     -0.3265
     27  C27       11.0480  -14.4960    7.0400 C.3   200  017200      0.2388
     28  O28       12.4220  -14.8100    6.8090 O.3   200  017200     -0.3304
     29  C29       12.7650  -14.5840    5.4510 C.3   200  017200      0.1451
     30  C30       11.7670  -13.5410    4.9610 C.3   200  017200      0.0409
     31  C31       10.5340  -13.7550    5.8250 C.3   200  017200      0.1016
     32  C32       11.7870  -15.3360    0.0700 C.3   200  017200      0.0508
     33  C33       13.2830  -14.0060    1.5940 C.ar  200  017200     -0.0042
     34  C34       13.6800  -12.8060    2.1660 C.ar  200  017200     -0.0003
     35  C35       13.0200  -11.6290    1.8390 C.ar  200  017200     -0.0000
     36  C36       11.9620  -11.6590    0.9410 C.ar  200  017200     -0.0003
     37  C37       11.5650  -12.8590    0.3660 C.ar  200  017200     -0.0042
     38  C38       12.2210  -14.0340    0.6920 C.ar  200  017200     -0.0204
@<TRIPOS>BOND
     1     1     2    1
     2     2     3   ar
     3     2     7   ar
     4     3     4   ar
     5     7     6   ar
     6     4     5   ar
     7     6     5   ar
     8     5     8    1
     9     8    10    2
    10     8     9    2
    11     8    11    1
    12    12    11    1
    13    12    13    1
    14    11    16    1
    15    16    17    1
    16    15    13    1
    17    13    14    1
    18    32    19    1
    19    32    38    1
    20    17    18    1
    21    17    19    1
    22    37    38   ar
    23    37    36   ar
    24    19    20    1
    25    38    33   ar
    26    36    35   ar
    27    33    34   ar
    28    35    34   ar
    29    20    21   am
    30    22    21    2
    31    21    23    1
    32    23    24    1
    33    30    29    1
    34    30    31    1
    35    24    31    1
    36    24    25    1
    37    29    28    1
    38    31    27    1
    39    25    26    1
    40    28    27    1
    41    27    26    1
