@<TRIPOS>MOLECULE
3lzv_017_A_1.pdb
 38 41 0 0 0
SMALL
GASTEIGER

@<TRIPOS>ATOM
      1  N1        14.3560   -5.8210   12.7960 N.pl3 200  017200     -0.1281
      2  C2        15.2880   -5.3030   13.6250 C.ar  200  017200      0.0892
      3  C3        16.3750   -6.0690   14.0710 C.ar  200  017200      0.0194
      4  C4        17.2900   -5.4760   14.9380 C.ar  200  017200      0.0213
      5  C5        17.1630   -4.1500   15.3640 C.ar  200  017200      0.1223
      6  C6        16.0880   -3.4050   14.8700 C.ar  200  017200      0.0213
      7  C7        15.1420   -3.9780   14.0300 C.ar  200  017200      0.0194
      8  S8        18.2630   -3.4380   16.3120 S.O2  200  017200      0.0634
      9  O9        18.8370   -4.4120   17.2170 O.2   200  017200     -0.1528
     10  O10       17.6670   -2.3190   17.0100 O.2   200  017200     -0.1528
     11  N11       19.4670   -2.8050   15.4090 N.3   200  017200     -0.1529
     12  C12       20.2120   -3.7770   14.5680 C.3   200  017200      0.0958
     13  C13       21.7100   -3.4530   14.5170 C.3   200  017200      0.0178
     14  C14       22.3870   -3.4120   15.8840 C.3   200  017200      0.0015
     15  C15       22.4890   -4.3750   13.5840 C.3   200  017200      0.0015
     16  C16       19.1120   -1.5630   14.6860 C.3   200  017200      0.1304
     17  C17       19.9620   -0.4530   15.3120 C.3   200  017200      0.1898
     18  O18       19.9200    0.7100   14.4780 O.3   200  017200     -0.2197
     19  C19       19.6230   -0.0510   16.7470 C.3   200  017200      0.1347
     20  N20       20.7640    0.7460   17.1420 N.am  200  017200     -0.1675
     21  C21       21.6150    0.5050   18.1280 C.2   200  017200      0.4211
     22  O22       21.6090   -0.4810   18.8310 O.2   200  017200     -0.2246
     23  O23       22.6180    1.5360   18.3430 O.3   200  017200     -0.4345
     24  C24       23.3360    1.4990   19.5770 C.3   200  017200      0.2048
     25  C25       24.7050    2.0700   19.2640 C.3   200  017200      0.1884
     26  O26       24.5400    3.4850   19.3230 O.3   200  017200     -0.3265
     27  C27       23.6010    3.7520   20.3580 C.3   200  017200      0.2388
     28  O28       22.6690    4.7420   19.9460 O.3   200  017200     -0.3304
     29  C29       21.3920    4.1340   19.7290 C.3   200  017200      0.1451
     30  C30       21.3630    2.8820   20.5790 C.3   200  017200      0.0409
     31  C31       22.8360    2.4690   20.6270 C.3   200  017200      0.1016
     32  C32       18.2850    0.7070   16.9130 C.3   200  017200      0.0508
     33  C33       18.1700    2.5020   18.6800 C.ar  200  017200     -0.0042
     34  C34       18.0120    2.9600   19.9850 C.ar  200  017200     -0.0003
     35  C35       17.7160    2.0550   20.9900 C.ar  200  017200     -0.0000
     36  C36       17.5820    0.7040   20.6610 C.ar  200  017200     -0.0003
     37  C37       17.7320    0.2550   19.3490 C.ar  200  017200     -0.0042
     38  C38       18.0470    1.1590   18.3410 C.ar  200  017200     -0.0204
@<TRIPOS>BOND
     1     1     2    1
     2    15    13    1
     3     2     7   ar
     4     2     3   ar
     5     7     6   ar
     6     3     4   ar
     7    18    17    1
     8    13    12    1
     9    13    14    1
    10    12    11    1
    11    16    17    1
    12    16    11    1
    13     6     5   ar
    14     4     5   ar
    15    17    19    1
    16     5     8    1
    17    11     8    1
    18     8    10    2
    19     8     9    2
    20    19    32    1
    21    19    20    1
    22    32    38    1
    23    20    21   am
    24    21    23    1
    25    21    22    2
    26    38    33   ar
    27    38    37   ar
    28    23    24    1
    29    33    34   ar
    30    25    26    1
    31    25    24    1
    32    26    27    1
    33    37    36   ar
    34    24    31    1
    35    29    28    1
    36    29    30    1
    37    28    27    1
    38    34    35   ar
    39    27    31    1
    40    30    31    1
    41    36    35   ar
