@<TRIPOS>MOLECULE
3lzw_NAP_A_1.pdb
 48 52 0 0 0
SMALL
GASTEIGER

@<TRIPOS>ATOM
      1  PA        -5.4340  -27.6130   21.3970 P.3   2000  NAP2000     0.2189
      2  O1A       -4.1900  -27.0530   21.9510 O.3   2000  NAP2000    -0.4371
      3  O2A       -5.4100  -27.6970   19.8050 O.2   2000  NAP2000    -0.5170
      4  O5B       -5.6320  -29.1280   21.9270 O.3   2000  NAP2000    -0.3112
      5  C5B       -6.6510  -29.9490   21.4140 C.3   2000  NAP2000     0.1813
      6  C4B       -6.6080  -31.3170   22.1150 C.3   2000  NAP2000     0.1820
      7  O4B       -7.6110  -32.1140   21.4730 O.3   2000  NAP2000    -0.3136
      8  C3B       -5.2670  -32.0420   21.9380 C.3   2000  NAP2000     0.2157
      9  O3B       -4.9120  -32.6550   23.1820 O.3   2000  NAP2000    -0.2175
     10  C2B       -5.5720  -33.1020   20.8810 C.3   2000  NAP2000     0.2314
     11  O2B       -4.8320  -34.3070   21.0980 O.3   2000  NAP2000    -0.2630
     12  C1B       -7.0250  -33.3960   21.1890 C.3   2000  NAP2000     0.3158
     13  N9A       -7.7170  -33.9630   20.0190 N.pl3 2000  NAP2000    -0.1439
     14  C8A       -7.9530  -33.3540   18.8560 C.3   2000  NAP2000     0.3377
     15  N7A       -8.6150  -34.1840   18.0500 N.2   2000  NAP2000    -0.2095
     16  C5A       -8.7980  -35.3270   18.7080 C.2   2000  NAP2000     0.2526
     17  C6A       -9.4020  -36.5380   18.3900 C.2   2000  NAP2000     0.4393
     18  N6A       -9.9630  -36.7150   17.2000 N.pl3 2000  NAP2000     0.2180
     19  N1A       -9.4190  -37.5210   19.3070 N.2   2000  NAP2000     0.0021
     20  C2A       -8.8650  -37.3480   20.5020 C.3   2000  NAP2000     0.5254
     21  N3A       -8.2710  -36.2060   20.8360 N.2   2000  NAP2000    -0.0055
     22  C4A       -8.2280  -35.1860   19.9590 C.2   2000  NAP2000     0.3518
     23  O3        -6.8240  -26.7640   21.7750 O.3   2000  NAP2000    -0.2703
     24  PN        -7.1270  -25.8710   23.1220 P.3   2000  NAP2000     0.2189
     25  O1N       -8.4520  -25.5390   22.5620 O.2   2000  NAP2000    -0.5170
     26  O2N       -6.8500  -27.0010   24.0300 O.3   2000  NAP2000    -0.4371
     27  O5D       -5.8710  -24.9490   22.7480 O.3   2000  NAP2000    -0.3112
     28  C5D       -5.9280  -23.9020   21.7780 C.3   2000  NAP2000     0.1813
     29  C4D       -4.7050  -22.9930   21.9410 C.3   2000  NAP2000     0.1799
     30  O4D       -5.0340  -21.9760   22.9290 O.3   2000  NAP2000    -0.3327
     31  C3D       -3.4940  -23.7590   22.4910 C.3   2000  NAP2000     0.2158
     32  O3D       -2.2840  -23.1960   21.9640 O.3   2000  NAP2000    -0.2175
     33  C2D       -3.5580  -23.4770   23.9750 C.3   2000  NAP2000     0.2309
     34  O2D       -2.2420  -23.5190   24.5450 O.3   2000  NAP2000    -0.2158
     35  C1D       -4.1060  -22.0440   24.0090 C.3   2000  NAP2000     0.2263
     36  N1N       -4.8120  -21.8600   25.3010 N.pl3 2000  NAP2000    -0.2787
     37  C2N       -4.0820  -21.4810   26.4300 C.3   2000  NAP2000     0.1244
     38  C3N       -4.7070  -21.3110   27.6610 C.2   2000  NAP2000     0.0544
     39  C7N       -3.8480  -20.9130   28.8630 C.2   2000  NAP2000     0.2818
     40  O7N       -2.6320  -20.8110   28.7450 O.2   2000  NAP2000    -0.2670
     41  N7N       -4.4710  -20.7350   30.0240 N.am  2000  NAP2000    -0.0839
     42  C4N       -6.0750  -21.5320   27.7720 C.2   2000  NAP2000     0.0033
     43  C5N       -6.8110  -21.9150   26.6500 C.2   2000  NAP2000     0.0157
     44  C6N       -6.1920  -22.0850   25.4150 C.2   2000  NAP2000     0.0633
     45  P2B       -3.2380  -34.4270   20.9140 P.3   2000  NAP2000     0.5328
     46  O1X       -2.7600  -35.8210   21.1200 O.3   2000  NAP2000    -0.1145
     47  O2X       -2.9410  -33.8600   19.4330 O.2   2000  NAP2000    -0.2224
     48  O3X       -2.5840  -33.3910   21.9510 O.3   2000  NAP2000    -0.1145
@<TRIPOS>BOND
     1    18    17    1
     2    15    16    2
     3    15    14    1
     4    17    16    1
     5    17    19    2
     6    16    22    1
     7    14    13    1
     8    19    20    1
     9    47    45    2
    10     3     1    2
    11    22    13    1
    12    22    21    2
    13    13    12    1
    14    20    21    1
    15    10    11    1
    16    10    12    1
    17    10     8    1
    18    45    11    1
    19    45    46    1
    20    45    48    1
    21    12     7    1
    22     1    23    1
    23     1     4    1
    24     1     2    1
    25     5     4    1
    26     5     6    1
    27     7     6    1
    28    23    24    1
    29    28    29    1
    30    28    27    1
    31     8     6    1
    32     8     9    1
    33    29    31    1
    34    29    30    1
    35    32    31    1
    36    31    33    1
    37    25    24    2
    38    27    24    1
    39    30    35    1
    40    24    26    1
    41    33    35    1
    42    33    34    1
    43    35    36    1
    44    36    44    1
    45    36    37    1
    46    44    43    2
    47    37    38    1
    48    43    42    1
    49    38    42    2
    50    38    39    1
    51    40    39    2
    52    39    41   am
