@<TRIPOS>MOLECULE
3lzx_NAP_A_1.pdb
 48 52 0 0 0
SMALL
GASTEIGER

@<TRIPOS>ATOM
      1  PA        40.0230   -1.6500   49.4660 P.3   2000  NAP2000     0.2189
      2  O1A       38.5890   -1.5780   49.8460 O.3   2000  NAP2000    -0.4371
      3  O2A       40.3690   -0.6210   48.3460 O.2   2000  NAP2000    -0.5170
      4  O5B       40.9650   -1.2610   50.7360 O.3   2000  NAP2000    -0.3112
      5  C5B       42.2720   -0.7970   50.4970 C.3   2000  NAP2000     0.1813
      6  C4B       42.9290   -0.4470   51.8240 C.3   2000  NAP2000     0.1820
      7  O4B       44.2690   -0.0820   51.4560 O.3   2000  NAP2000    -0.3136
      8  C3B       42.2600    0.8050   52.4090 C.3   2000  NAP2000     0.2157
      9  O3B       42.1990    0.6740   53.8340 O.3   2000  NAP2000    -0.2175
     10  C2B       43.2070    1.9140   51.9970 C.3   2000  NAP2000     0.2314
     11  O2B       43.2900    2.9220   53.0130 O.3   2000  NAP2000    -0.2630
     12  C1B       44.5420    1.1950   51.9840 C.3   2000  NAP2000     0.3158
     13  N9A       45.5230    1.8710   51.1190 N.pl3 2000  NAP2000    -0.1439
     14  C8A       45.4610    2.0280   49.7960 C.3   2000  NAP2000     0.3377
     15  N7A       46.5420    2.6850   49.3800 N.2   2000  NAP2000    -0.2095
     16  C5A       47.3010    2.9500   50.4420 C.2   2000  NAP2000     0.2526
     17  C6A       48.5190    3.5970   50.6280 C.2   2000  NAP2000     0.4393
     18  N6A       49.1700    4.1100   49.5840 N.pl3 2000  NAP2000     0.2180
     19  N1A       49.0320    3.6950   51.8820 N.2   2000  NAP2000     0.0021
     20  C2A       48.3720    3.1810   52.9120 C.3   2000  NAP2000     0.5254
     21  N3A       47.2020    2.5580   52.7690 N.2   2000  NAP2000    -0.0055
     22  C4A       46.6480    2.4290   51.5500 C.2   2000  NAP2000     0.3518
     23  O3        40.4980   -3.1580   48.9350 O.3   2000  NAP2000    -0.2703
     24  PN        40.0970   -4.6620   49.4660 P.3   2000  NAP2000     0.2189
     25  O1N       41.0680   -5.2420   48.5220 O.2   2000  NAP2000    -0.5170
     26  O2N       40.4140   -4.3100   50.8550 O.3   2000  NAP2000    -0.4371
     27  O5D       38.6140   -4.2820   48.9310 O.3   2000  NAP2000    -0.3112
     28  C5D       38.2280   -4.4850   47.5650 C.3   2000  NAP2000     0.1813
     29  C4D       36.7010   -4.6970   47.4640 C.3   2000  NAP2000     0.1799
     30  O4D       36.4000   -6.0990   47.7150 O.3   2000  NAP2000    -0.3327
     31  C3D       35.9830   -3.8960   48.5440 C.3   2000  NAP2000     0.2158
     32  O3D       34.7350   -3.4600   48.0130 O.3   2000  NAP2000    -0.2175
     33  C2D       35.7800   -4.9140   49.6630 C.3   2000  NAP2000     0.2309
     34  O2D       34.6160   -4.6120   50.4340 O.3   2000  NAP2000    -0.2158
     35  C1D       35.5410   -6.1840   48.8750 C.3   2000  NAP2000     0.2263
     36  N1N       35.9210   -7.3770   49.6510 N.pl3 2000  NAP2000    -0.2787
     37  C2N       34.9570   -7.9660   50.4670 C.3   2000  NAP2000     0.1244
     38  C3N       35.2670   -9.0950   51.2110 C.2   2000  NAP2000     0.0544
     39  C7N       34.1520   -9.6940   52.0920 C.2   2000  NAP2000     0.2818
     40  O7N       33.0060   -9.2540   52.0180 O.2   2000  NAP2000    -0.2670
     41  N7N       34.4890  -10.6890   52.9060 N.am  2000  NAP2000    -0.0839
     42  C4N       36.5500   -9.6440   51.1340 C.2   2000  NAP2000     0.0033
     43  C5N       37.5190   -9.0680   50.3130 C.2   2000  NAP2000     0.0157
     44  C6N       37.2120   -7.9340   49.5690 C.2   2000  NAP2000     0.0633
     45  P2B       42.1200    3.9990   53.2960 P.3   2000  NAP2000     0.5328
     46  O1X       42.5430    5.0340   54.2670 O.3   2000  NAP2000    -0.1145
     47  O2X       41.6600    4.6000   51.9050 O.2   2000  NAP2000    -0.2224
     48  O3X       40.9400    3.0900   53.8030 O.3   2000  NAP2000    -0.1145
@<TRIPOS>BOND
     1    29    28    1
     2    29    30    1
     3    29    31    1
     4    28    27    1
     5    30    35    1
     6    32    31    1
     7     3     1    2
     8    25    24    2
     9    31    33    1
    10    35    36    1
    11    35    33    1
    12    27    24    1
    13    23     1    1
    14    23    24    1
    15    15    14    1
    16    15    16    2
    17     1     2    1
    18     1     4    1
    19    24    26    1
    20    44    36    1
    21    44    43    2
    22    18    17    1
    23    36    37    1
    24    33    34    1
    25    14    13    1
    26    43    42    1
    27    16    17    1
    28    16    22    1
    29    37    38    1
    30     5     4    1
    31     5     6    1
    32    17    19    2
    33    13    22    1
    34    13    12    1
    35    42    38    2
    36    38    39    1
    37     7     6    1
    38     7    12    1
    39    22    21    2
    40     6     8    1
    41    19    20    1
    42    47    45    2
    43    12    10    1
    44    10     8    1
    45    10    11    1
    46    40    39    2
    47    39    41   am
    48     8     9    1
    49    21    20    1
    50    11    45    1
    51    45    48    1
    52    45    46    1
