@<TRIPOS>MOLECULE
3lzz_GDP_A_1.pdb
 28 30 0 0 0
SMALL
GASTEIGER

@<TRIPOS>ATOM
      1  PB       -24.9580   -7.4180   15.6940 P.3   173  GDP173      0.5373
      2  O1B      -26.1250   -8.3610   15.7750 O.3   173  GDP173     -0.1143
      3  O2B      -25.4530   -6.0140   15.4630 O.2   173  GDP173     -0.2221
      4  O3B      -24.2230   -7.4770   16.9940 O.3   173  GDP173     -0.1143
      5  O3A      -24.0090   -7.9040   14.4980 O.3   173  GDP173     -0.2261
      6  PA       -24.6460   -8.7390   13.2770 P.3   173  GDP173      0.2231
      7  O1A      -26.1230   -8.4870   13.2390 O.2   173  GDP173     -0.5169
      8  O2A      -24.2690  -10.2020   13.2840 O.3   173  GDP173     -0.4370
      9  O5'      -24.0910   -8.1220   11.9440 O.3   173  GDP173     -0.3111
     10  C5'      -25.1200   -7.8100   11.0450 C.3   173  GDP173      0.1813
     11  C4'      -24.7040   -8.2670    9.6800 C.3   173  GDP173      0.1799
     12  O4'      -25.8750   -8.4550    8.9100 O.3   173  GDP173     -0.3326
     13  C3'      -23.8540   -7.2480    8.9450 C.3   173  GDP173      0.2158
     14  O3'      -22.4920   -7.6880    8.8420 O.3   173  GDP173     -0.2175
     15  C2'      -24.5000   -7.2160    7.5790 C.3   173  GDP173      0.2310
     16  O2'      -23.4900   -7.3970    6.6310 O.3   173  GDP173     -0.2158
     17  C1'      -25.3390   -8.4550    7.6210 C.3   173  GDP173      0.2293
     18  N9       -26.2450   -8.7170    6.5030 N.pl3 173  GDP173     -0.2354
     19  C8       -27.4640   -9.2350    6.4740 C.3   173  GDP173      0.2246
     20  N7       -27.8770   -9.3510    5.2030 N.2   173  GDP173     -0.2322
     21  C5       -26.8930   -8.9430    4.3990 C.2   173  GDP173      0.2182
     22  C6       -26.6010   -8.7720    2.9540 C.1   173  GDP173      0.2372
     23  O6       -27.3740   -9.0550    2.0730 O.2   173  GDP173     -0.2069
     24  N1       -25.4460   -8.2800    2.6090 N.2   173  GDP173     -0.2485
     25  C2       -24.5470   -7.9480    3.5320 C.1   173  GDP173      0.2531
     26  N2       -23.3610   -7.4530    3.1980 N.pl3 173  GDP173     -0.0226
     27  N3       -24.7270   -8.0730    4.8250 N.2   173  GDP173     -0.3074
     28  C4       -25.8460   -8.5370    5.2990 C.2   173  GDP173      0.2300
@<TRIPOS>BOND
     1    23    22    2
     2    24    22    2
     3    24    25    2
     4    22    21    1
     5    26    25    1
     6    25    27    2
     7    21    20    2
     8    21    28    1
     9    27    28    2
    10    20    19    1
    11    28    18    1
    12    19    18    1
    13    18    17    1
    14    16    15    1
    15    15    17    1
    16    15    13    1
    17    17    12    1
    18    14    13    1
    19    12    11    1
    20    13    11    1
    21    11    10    1
    22    10     9    1
    23     9     6    1
    24     7     6    2
    25     6     8    1
    26     6     5    1
    27     5     1    1
    28     3     1    2
    29     1     2    1
    30     1     4    1
