@<TRIPOS>MOLECULE
3m00_2CF_A_1.pdb
 25 24 0 0 0
SMALL
GASTEIGER

@<TRIPOS>ATOM
      1  F        110.0620   43.4770   46.9760 F     549  2CF549     -0.2069
      2  C1       110.3960   42.1960   46.9300 C.2   549  2CF549      0.1400
      3  C2       111.2710   41.7410   45.9700 C.2   549  2CF549     -0.0178
      4  C3       111.7270   40.2920   45.8050 C.3   549  2CF549      0.0287
      5  C4       111.8750   42.6850   44.9530 C.3   549  2CF549      0.0284
      6  C5       112.9280   39.8720   46.6770 C.3   549  2CF549      0.0298
      7  C6       112.4720   38.8660   47.7050 C.2   549  2CF549     -0.0342
      8  C7       112.5230   38.9200   49.0630 C.2   549  2CF549     -0.0478
      9  C8       111.9880   37.8020   49.9730 C.3   549  2CF549      0.0263
     10  C9       110.7960   36.9080   49.5160 C.3   549  2CF549      0.0297
     11  PA       109.0770   42.2000   50.4940 P.3   549  2CF549      0.2234
     12  PB       106.4360   40.9740   50.8930 P.3   549  2CF549      0.5373
     13  C10      109.5150   37.6480   49.1540 C.2   549  2CF549     -0.0342
     14  C11      108.3300   37.1430   48.7300 C.2   549  2CF549     -0.0478
     15  C12      107.1670   38.0600   48.4170 C.3   549  2CF549      0.0260
     16  C13      108.0070   35.6820   48.5180 C.3   549  2CF549      0.0260
     17  C14      113.0990   40.0810   49.8580 C.3   549  2CF549      0.0260
     18  C15      109.7240   41.3370   48.0060 C.3   549  2CF549      0.2044
     19  O1A      108.8340   42.0310   48.8940 O.3   549  2CF549     -0.3065
     20  O2A      110.2690   41.2110   50.8650 O.2   549  2CF549     -0.5169
     21  O3A      109.4790   43.8100   50.9530 O.3   549  2CF549     -0.4370
     22  OB1      105.3650   41.8210   51.7010 O.3   549  2CF549     -0.1143
     23  OB2      106.1550   41.2840   49.3580 O.2   549  2CF549     -0.2221
     24  OB3      106.3030   39.2880   51.2110 O.3   549  2CF549     -0.1143
     25  OB4      107.8240   41.6360   51.3170 O.3   549  2CF549     -0.2261
@<TRIPOS>BOND
     1     5     3    1
     2     4     3    1
     3     4     6    1
     4     3     2    2
     5     6     7    1
     6     2     1    1
     7     2    18    1
     8     7     8    2
     9    18    19    1
    10    15    14    1
    11    16    14    1
    12    14    13    2
    13    19    11    1
    14     8    17    1
    15     8     9    1
    16    13    10    1
    17    23    12    2
    18    10     9    1
    19    11    20    2
    20    11    21    1
    21    11    25    1
    22    12    24    1
    23    12    25    1
    24    12    22    1
