@<TRIPOS>MOLECULE
3m01_FPF_A_1.pdb
 25 24 0 0 0
SMALL
GASTEIGER

@<TRIPOS>ATOM
      1  C1       110.4100   42.4750   49.7500 C.3   549  FPF549      0.2044
      2  O1       109.1890   42.8700   50.3750 O.3   549  FPF549     -0.3065
      3  C2       110.3840   42.7810   48.2490 C.2   549  FPF549      0.1400
      4  F        111.2130   43.7500   47.9240 F     549  FPF549     -0.2069
      5  C3       109.6180   42.1530   47.3280 C.2   549  FPF549     -0.0178
      6  C4       108.6560   41.0290   47.6750 C.3   549  FPF549      0.0284
      7  C5       109.6150   42.4750   45.8360 C.3   549  FPF549      0.0287
      8  C6       110.8630   42.1490   44.9810 C.3   549  FPF549      0.0298
      9  C7       111.2840   40.6990   45.1100 C.2   549  FPF549     -0.0342
     10  C8       112.3460   40.1890   45.7820 C.2   549  FPF549     -0.0478
     11  C10      113.3560   41.0220   46.5600 C.3   549  FPF549      0.0260
     12  C9       112.6340   38.6980   45.8360 C.3   549  FPF549      0.0263
     13  C11      112.2920   37.9490   47.1480 C.3   549  FPF549      0.0297
     14  C12      110.7930   37.8170   47.3810 C.2   549  FPF549     -0.0342
     15  C13      110.1620   37.1510   48.3810 C.2   549  FPF549     -0.0478
     16  C14      108.6460   37.1220   48.4650 C.3   549  FPF549      0.0260
     17  C15      110.8550   36.3910   49.4870 C.3   549  FPF549      0.0260
     18  P1       108.3600   41.8770   51.3190 P.3   549  FPF549      0.2234
     19  O1A      108.5010   42.2730   52.9930 O.3   549  FPF549     -0.4370
     20  O2A      108.8300   40.3740   51.0840 O.2   549  FPF549     -0.5169
     21  O3A      106.8790   41.9540   50.7560 O.3   549  FPF549     -0.2261
     22  P2       105.8090   40.7800   50.7470 P.3   549  FPF549      0.5373
     23  O1B      105.5290   40.4190   52.2700 O.3   549  FPF549     -0.1143
     24  O2B      104.4640   41.4580   50.2260 O.3   549  FPF549     -0.1143
     25  O3B      106.2570   39.3790   49.8340 O.2   549  FPF549     -0.2221
@<TRIPOS>BOND
     1     8     9    1
     2     8     7    1
     3     9    10    2
     4    10    12    1
     5    10    11    1
     6     7     5    1
     7    12    13    1
     8    13    14    1
     9     5     6    1
    10     5     3    2
    11    14    15    2
    12     4     3    1
    13     3     1    1
    14    15    16    1
    15    15    17    1
    16     1     2    1
    17    25    22    2
    18    24    22    1
    19     2    18    1
    20    22    21    1
    21    22    23    1
    22    21    18    1
    23    20    18    2
    24    18    19    1
