@<TRIPOS>MOLECULE
3m02_2CF_A_1.pdb
 25 24 0 0 0
SMALL
GASTEIGER

@<TRIPOS>ATOM
      1  F        109.7800   43.7340   47.5680 F     549  2CF549     -0.2069
      2  C1       109.7550   42.4900   47.1120 C.2   549  2CF549      0.1400
      3  C2       110.4880   42.1450   46.0030 C.2   549  2CF549     -0.0178
      4  C3       110.5350   40.7540   45.3780 C.3   549  2CF549      0.0287
      5  C4       111.3400   43.1680   45.2840 C.3   549  2CF549      0.0284
      6  C5       111.8090   39.9480   45.7160 C.3   549  2CF549      0.0298
      7  C6       111.5770   39.1000   46.9390 C.2   549  2CF549     -0.0342
      8  C7       111.0290   37.8700   47.0270 C.2   549  2CF549     -0.0478
      9  C8       110.8410   37.1390   48.3490 C.3   549  2CF549      0.0263
     10  C9       109.8030   37.6750   49.3750 C.3   549  2CF549      0.0297
     11  PA       108.4980   41.8630   50.5870 P.3   549  2CF549      0.2234
     12  PB       105.8400   40.6010   50.8400 P.3   549  2CF549      0.5373
     13  C10      108.4110   37.9950   48.8390 C.2   549  2CF549     -0.0342
     14  C11      107.4120   37.1650   48.4490 C.2   549  2CF549     -0.0478
     15  C12      106.1020   37.7300   47.9510 C.3   549  2CF549      0.0260
     16  C13      107.4440   35.6520   48.4510 C.3   549  2CF549      0.0260
     17  C14      110.5260   37.0640   45.8500 C.3   549  2CF549      0.0260
     18  C15      108.8540   41.5440   47.9160 C.3   549  2CF549      0.2044
     19  O1A      108.1520   42.1380   49.0270 O.3   549  2CF549     -0.3065
     20  O2A      109.6850   40.7820   50.5760 O.2   549  2CF549     -0.5169
     21  O3A      109.0150   43.2710   51.4360 O.3   549  2CF549     -0.4370
     22  OB1      104.8220   41.2880   51.8610 O.3   549  2CF549     -0.1143
     23  OB2      105.4920   41.2280   49.4240 O.2   549  2CF549     -0.2221
     24  OB3      105.6780   38.8840   50.8190 O.3   549  2CF549     -0.1143
     25  OB4      107.2770   41.1140   51.3190 O.3   549  2CF549     -0.2261
@<TRIPOS>BOND
     1     5     3    1
     2     4     6    1
     3     4     3    1
     4     6     7    1
     5    17     8    1
     6     3     2    2
     7     7     8    2
     8     8     9    1
     9     2     1    1
    10     2    18    1
    11    18    19    1
    12    15    14    1
    13     9    10    1
    14    14    16    1
    15    14    13    2
    16    13    10    1
    17    19    11    1
    18    23    12    2
    19    20    11    2
    20    11    25    1
    21    11    21    1
    22    24    12    1
    23    12    25    1
    24    12    22    1
