@<TRIPOS>MOLECULE
3m04_BE9_A_1.pdb
 19 20 0 0 0
SMALL
GASTEIGER

@<TRIPOS>ATOM
      1  C4        16.4560    6.2020   13.9650 C.ar  502  BE9502      0.1417
      2  C5        17.1120    7.4420   13.9850 C.ar  502  BE9502      0.0370
      3  C6        16.3640    8.5620   13.6270 C.ar  502  BE9502      0.0031
      4  C8        16.8760    3.8800   13.5630 C.3   502  BE9502      0.3336
      5  C15       17.8360    4.6790   11.4320 C.3   502  BE9502      0.1088
      6  C2        14.4030    7.2620   13.1570 C.ar  502  BE9502      0.0031
      7  C3        15.1330    6.1190   13.5300 C.ar  502  BE9502      0.0370
      8  O7        17.1780    5.0380   14.1970 O.3   502  BE9502     -0.4479
      9  N14       16.9670    3.8010   12.2470 N.3   502  BE9502     -0.2185
     10  C19       16.5630    2.5980   11.5160 C.3   502  BE9502      0.1088
     11  C18       17.8300    1.8690   10.9790 C.3   502  BE9502      0.1596
     12  O17       18.5920    2.7980   10.1770 O.3   502  BE9502     -0.3508
     13  C16       19.0970    3.8720   11.0290 C.3   502  BE9502      0.1596
     14  N9        16.6440    2.8460   14.2930 N.3   502  BE9502     -0.0052
     15  S10       16.1990    2.9910   15.8870 S.O2  502  BE9502      0.1508
     16  N13       15.8100    1.5060   16.4240 N.3   502  BE9502      0.0529
     17  O12       17.3900    3.4640   16.5750 O.2   502  BE9502     -0.1370
     18  O11       15.0420    3.8290   15.9710 O.2   502  BE9502     -0.1370
     19  C1        15.0300    8.5130   13.2090 C.ar  502  BE9502      0.0002
@<TRIPOS>BOND
     1    12    11    1
     2    12    13    1
     3    11    10    1
     4    13     5    1
     5     5     9    1
     6    10     9    1
     7     9     4    1
     8     6    19   ar
     9     6     7   ar
    10    19     3   ar
    11     7     1   ar
    12     4     8    1
    13     4    14    1
    14     3     2   ar
    15     1     2   ar
    16     1     8    1
    17    14    15    1
    18    15    18    2
    19    15    16    1
    20    15    17    2
