@<TRIPOS>MOLECULE
3m08_RAR_A_1.pdb
 36 39 0 0 0
SMALL
GASTEIGER

@<TRIPOS>ATOM
      1  N01       -3.2440   28.7430   -3.3640 N.pl3 200  RAR200     -0.0924
      2  C02       -4.4060   28.7320   -4.1890 C.2   200  RAR200      0.2297
      3  C03       -4.6410   29.7130   -5.0780 C.2   200  RAR200      0.0500
      4  C04       -3.6890   30.8670   -5.1500 C.3   200  RAR200      0.0584
      5  C05       -4.1290   32.0140   -6.0050 C.ar  200  RAR200     -0.0144
      6  C06       -3.3330   32.3890   -7.1170 C.ar  200  RAR200      0.0361
      7  C07       -3.6960   33.4480   -7.9020 C.ar  200  RAR200      0.1721
      8  O08       -2.9590   33.8540   -8.9920 O.3   200  RAR200     -0.4684
      9  C09       -1.8320   33.1600   -9.3810 C.3   200  RAR200      0.2526
     10  C10       -4.9200   34.2080   -7.5850 C.ar  200  RAR200      0.1723
     11  O11       -5.2690   35.2550   -8.3950 O.3   200  RAR200     -0.4684
     12  C12       -6.1830   35.0400   -9.4020 C.3   200  RAR200      0.2526
     13  C13       -5.6900   33.8670   -6.5110 C.ar  200  RAR200      0.0369
     14  C14       -6.9300   34.6770   -6.2740 C.2   200  RAR200      0.0078
     15  C15       -7.2940   35.1170   -5.0350 C.2   200  RAR200      0.0594
     16  C16       -8.5920   35.8390   -4.8750 C.2   200  RAR200      0.2636
     17  N17       -9.3320   35.7240   -3.6550 N.am  200  RAR200     -0.2008
     18  N18       -8.6950   35.0810   -2.4980 N.3   200  RAR200     -0.1227
     19  C19       -9.4840   35.1220   -1.2680 C.3   200  RAR200      0.1378
     20  C20      -10.5860   36.4720   -3.4960 C.3   200  RAR200      0.1155
     21  C21      -11.8020   36.0740   -4.2600 C.3   200  RAR200      0.0259
     22  C22      -13.1340   36.4130   -3.6950 C.3   200  RAR200      0.0021
     23  C23      -14.1560   35.3310   -3.6470 C.3   200  RAR200      0.0001
     24  C24      -10.7000   37.1070   -2.1070 C.ar  200  RAR200     -0.0053
     25  C25      -10.1570   36.4590   -1.0490 C.ar  200  RAR200     -0.0053
     26  C26      -10.2280   37.0320    0.2370 C.ar  200  RAR200     -0.0031
     27  C27      -10.8760   38.2950    0.4250 C.ar  200  RAR200     -0.0003
     28  C28      -11.4410   38.9660   -0.6720 C.ar  200  RAR200     -0.0003
     29  C29      -11.3690   38.4210   -1.9170 C.ar  200  RAR200     -0.0029
     30  O30       -9.0230   36.5320   -5.7870 O.2   200  RAR200     -0.2686
     31  C31       -5.3210   32.7720   -5.6940 C.ar  200  RAR200     -0.0007
     32  C32       -5.7750   29.6510   -5.8640 C.2   200  RAR200      0.1118
     33  N33       -6.6490   28.5920   -5.7300 N.2   200  RAR200     -0.1675
     34  C34       -6.4040   27.5990   -4.8070 C.1   200  RAR200      0.1877
     35  N35       -7.3220   26.5240   -4.6150 N.pl3 200  RAR200     -0.0345
     36  N36       -5.3120   27.6510   -4.0490 N.2   200  RAR200     -0.3170
@<TRIPOS>BOND
     1    12    11    1
     2     9     8    1
     3     8     7    1
     4    11    10    1
     5     7    10   ar
     6     7     6   ar
     7    10    13   ar
     8     6     5   ar
     9    13    14    1
    10    13    31   ar
    11    14    15    2
    12     5    31   ar
    13     5     4    1
    14    32    33    1
    15    32     3    2
    16    30    16    2
    17    33    34    2
    18     4     3    1
    19     3     2    1
    20    15    16    1
    21    16    17   am
    22    34    35    1
    23    34    36    2
    24    21    22    1
    25    21    20    1
    26     2    36    2
    27     2     1    1
    28    22    23    1
    29    17    20    1
    30    17    18    1
    31    20    24    1
    32    18    19    1
    33    24    29   ar
    34    24    25   ar
    35    29    28   ar
    36    19    25    1
    37    25    26   ar
    38    28    27   ar
    39    26    27   ar
