@<TRIPOS>MOLECULE
3m09_RAR_A_1.pdb
 36 39 0 0 0
SMALL
GASTEIGER

@<TRIPOS>ATOM
      1  N01       -3.3620  -29.0210    3.1220 N.pl3 200  RAR200     -0.0924
      2  C02       -4.4390  -28.9380    4.0570 C.2   200  RAR200      0.2297
      3  C03       -4.6470  -29.9090    4.9620 C.2   200  RAR200      0.0500
      4  C04       -3.7540  -31.1100    4.9490 C.3   200  RAR200      0.0584
      5  C05       -4.1730  -32.1950    5.8830 C.ar  200  RAR200     -0.0144
      6  C06       -3.3740  -32.4820    7.0180 C.ar  200  RAR200      0.0361
      7  C07       -3.7390  -33.4880    7.8690 C.ar  200  RAR200      0.1721
      8  O08       -2.9840  -33.8140    8.9740 O.3   200  RAR200     -0.4684
      9  C09       -1.9090  -33.0270    9.3250 C.3   200  RAR200      0.2526
     10  C10       -4.9600  -34.2770    7.5950 C.ar  200  RAR200      0.1723
     11  O11       -5.3270  -35.2600    8.4740 O.3   200  RAR200     -0.4684
     12  C12       -6.2240  -34.9500    9.4730 C.3   200  RAR200      0.2526
     13  C13       -5.7300  -34.0160    6.4970 C.ar  200  RAR200      0.0369
     14  C14       -6.9580  -34.8540    6.2860 C.2   200  RAR200      0.0078
     15  C15       -7.4680  -35.0960    5.0410 C.2   200  RAR200      0.0594
     16  C16       -8.7590  -35.8360    4.9150 C.2   200  RAR200      0.2636
     17  N17       -9.5390  -35.7070    3.7240 N.am  200  RAR200     -0.2008
     18  N18       -8.9400  -35.0120    2.5800 N.3   200  RAR200     -0.1227
     19  C19       -9.6250  -35.2190    1.3020 C.3   200  RAR200      0.1378
     20  C20      -10.7560  -36.5090    3.5670 C.3   200  RAR200      0.1155
     21  C21      -12.0140  -36.1430    4.2800 C.3   200  RAR200      0.0259
     22  C22      -13.2790  -36.1620    3.5000 C.3   200  RAR200      0.0021
     23  C23      -14.2660  -35.0670    3.7260 C.3   200  RAR200      0.0001
     24  C24      -10.8060  -37.2050    2.2050 C.ar  200  RAR200     -0.0053
     25  C25      -10.2430  -36.5940    1.1370 C.ar  200  RAR200     -0.0053
     26  C26      -10.2590  -37.2300   -0.1220 C.ar  200  RAR200     -0.0031
     27  C27      -10.8680  -38.5200   -0.2670 C.ar  200  RAR200     -0.0003
     28  C28      -11.4510  -39.1550    0.8460 C.ar  200  RAR200     -0.0003
     29  C29      -11.4370  -38.5450    2.0630 C.ar  200  RAR200     -0.0029
     30  O30       -9.1310  -36.5840    5.8100 O.2   200  RAR200     -0.2686
     31  C31       -5.3580  -32.9750    5.6150 C.ar  200  RAR200     -0.0007
     32  C32       -5.7030  -29.7980    5.8520 C.2   200  RAR200      0.1118
     33  N33       -6.5250  -28.6920    5.8050 N.2   200  RAR200     -0.1675
     34  C34       -6.3090  -27.6980    4.8720 C.1   200  RAR200      0.1877
     35  N35       -7.1950  -26.5780    4.7630 N.pl3 200  RAR200     -0.0345
     36  N36       -5.2970  -27.8060    4.0130 N.2   200  RAR200     -0.3170
@<TRIPOS>BOND
     1    27    26   ar
     2    27    28   ar
     3    26    25   ar
     4    28    29   ar
     5    25    19    1
     6    25    24   ar
     7    19    18    1
     8    29    24   ar
     9    24    20    1
    10    18    17    1
    11     1     2    1
    12    22    23    1
    13    22    21    1
    14    20    17    1
    15    20    21    1
    16    17    16   am
    17    36     2    2
    18    36    34    2
    19     2     3    1
    20    35    34    1
    21    34    33    2
    22    16    15    1
    23    16    30    2
    24     4     3    1
    25     4     5    1
    26     3    32    2
    27    15    14    2
    28    31     5   ar
    29    31    13   ar
    30    33    32    1
    31     5     6   ar
    32    14    13    1
    33    13    10   ar
    34     6     7   ar
    35    10     7   ar
    36    10    11    1
    37     7     8    1
    38    11    12    1
    39     8     9    1
