@<TRIPOS>MOLECULE
3m0b_RUR_A_1.pdb
 43 50 0 0 0
SMALL
GASTEIGER

@<TRIPOS>ATOM
      1  CHA       -0.9860  -20.2010   -5.6800 C.2   200  RUR200      0.0000
      2  CHB       -2.8890  -24.5270   -6.4510 C.2   200  RUR200      0.0000
      3  CHC       -0.5460  -26.2270   -2.5850 C.2   200  RUR200      0.0000
      4  CHD        0.8160  -21.7460   -1.3900 C.2   200  RUR200      0.0000
      5  C1A       -1.5100  -21.2640   -6.3920 C.ar  200  RUR200      0.0000
      6  C2A       -1.7560  -21.3700   -7.8070 C.ar  200  RUR200      0.0000
      7  C3A       -2.2720  -22.5810   -8.0150 C.ar  200  RUR200      0.0000
      8  C4A       -2.4050  -23.2690   -6.7520 C.ar  200  RUR200      0.0000
      9  CMA       -2.6770  -23.1750   -9.3480 C.3   200  RUR200      0.0000
     10  CAA       -1.4020  -20.3000   -8.8530 C.3   200  RUR200      0.0000
     11  CBA       -2.2590  -19.0480   -8.8340 C.3   200  RUR200      0.0000
     12  CGA       -3.4760  -19.2380   -9.6680 C.2   200  RUR200      0.0000
     13  O1A       -3.4800  -20.0280  -10.5640 O.co2 200  RUR200      0.0000
     14  O2A       -4.4680  -18.6090   -9.4460 O.co2 200  RUR200      0.0000
     15  C1B       -2.4450  -25.4530   -5.5210 C.2   200  RUR200      0.0000
     16  C2B       -2.6480  -26.8680   -5.4290 C.2   200  RUR200      0.0000
     17  C3B       -1.9930  -27.3110   -4.3550 C.2   200  RUR200      0.0000
     18  C4B       -1.3360  -26.2250   -3.7180 C.2   200  RUR200      0.0000
     19  CMB       -3.5100  -27.6660   -6.3920 C.3   200  RUR200      0.0000
     20  CAB       -1.9030  -28.7230   -3.8160 C.2   200  RUR200      0.0000
     21  CBB       -1.8110  -29.7330   -4.6430 C.2   200  RUR200      0.0000
     22  C1C        0.0470  -25.2410   -1.8300 C.ar  200  RUR200      0.0000
     23  C2C        0.7820  -25.2880   -0.6020 C.ar  200  RUR200      0.0000
     24  C3C        1.1530  -24.0460   -0.2850 C.ar  200  RUR200      0.0000
     25  C4C        0.6840  -23.1260   -1.2730 C.ar  200  RUR200      0.0000
     26  CMC        1.0690  -26.5530    0.1940 C.3   200  RUR200      0.0000
     27  CAC        1.9430  -23.5980    0.9280 C.2   200  RUR200      0.0000
     28  CBC        3.2410  -23.7570    0.9710 C.2   200  RUR200      0.0000
     29  C1D        0.5590  -20.8370   -2.4150 C.2   200  RUR200      0.0000
     30  C2D        0.9350  -19.4540   -2.5510 C.2   200  RUR200      0.0000
     31  C3D        0.3740  -18.9540   -3.8880 C.2   200  RUR200      0.0000
     32  C4D       -0.3050  -20.0860   -4.4730 C.2   200  RUR200      0.0000
     33  CMD        1.7480  -18.6640   -1.5450 C.3   200  RUR200      0.0000
     34  CAD        0.5310  -17.5640   -4.5100 C.3   200  RUR200      0.0000
     35  CBD       -0.3680  -16.5200   -3.9260 C.3   200  RUR200      0.0000
     36  CGD        0.0280  -15.1900   -4.4820 C.2   200  RUR200      0.0000
     37  O1D        1.2090  -14.9520   -4.7010 O.co2 200  RUR200      0.0000
     38  O2D       -0.8460  -14.3770   -4.7090 O.co2 200  RUR200      0.0000
     39 RU         -0.8040  -23.1520   -4.0270 Ru    200  RUR200      0.0000
     40  NA        -1.9530  -22.4010   -5.8480 N.ar  200  RUR200      0.0000
     41  NB        -1.6620  -25.1920   -4.4810 N.2   200  RUR200      0.0000
     42  NC         0.0630  -23.9420   -2.0970 N.ar  200  RUR200      0.0000
     43  ND        -0.1440  -21.0510   -3.5430 N.2   200  RUR200      0.0000
@<TRIPOS>BOND
     1    13    12   ar
     2    12    14   ar
     3    12    11    1
     4     9     7    1
     5    10    11    1
     6    10     6    1
     7     7     6   ar
     8     7     8   ar
     9     6     5   ar
    10     8     2    2
    11     8    40   ar
    12     2    15    1
    13     5    40   ar
    14     5     1    2
    15    19    16    1
    16    40    39    1
    17     1    32    1
    18    15    16    1
    19    15    41    2
    20    16    17    2
    21    38    36   ar
    22    37    36   ar
    23    21    20    2
    24    34    35    1
    25    34    31    1
    26    36    35    1
    27    41    39    1
    28    41    18    1
    29    32    31    1
    30    32    43    2
    31    17    20    1
    32    17    18    1
    33    39    43    1
    34    39    42    1
    35    31    30    2
    36    18     3    2
    37    43    29    1
    38     3    22    1
    39    30    29    1
    40    30    33    1
    41    29     4    2
    42    42    22   ar
    43    42    25   ar
    44    22    23   ar
    45     4    25    1
    46    25    24   ar
    47    23    24   ar
    48    23    26    1
    49    24    27    1
    50    27    28    2
