@<TRIPOS>MOLECULE
3m0e_ATP_A_1.pdb
 31 33 0 0 0
SMALL
GASTEIGER

@<TRIPOS>ATOM
      1  PG       171.5950  151.7380   34.7170 P.3   400  ATP400      0.5373
      2  O1G      171.6370  152.7760   35.7990 O.3   400  ATP400     -0.1143
      3  O2G      171.8440  152.2590   33.3230 O.2   400  ATP400     -0.2221
      4  O3G      172.3700  150.5090   35.1420 O.3   400  ATP400     -0.1143
      5  PB       168.7180  151.8270   34.1140 P.3   400  ATP400      0.2277
      6  O1B      168.8580  152.5910   32.8180 O.2   400  ATP400     -0.5168
      7  O2B      168.1060  152.4590   35.3150 O.3   400  ATP400     -0.4368
      8  O3B      170.0920  151.1140   34.6070 O.3   400  ATP400     -0.2258
      9  PA       167.4470  150.0010   32.3200 P.3   400  ATP400      0.2189
     10  O1A      168.6700  149.6640   31.4960 O.2   400  ATP400     -0.5170
     11  O2A      166.4380  150.9520   31.7190 O.3   400  ATP400     -0.4371
     12  O3A      167.8810  150.4910   33.7990 O.3   400  ATP400     -0.2700
     13  O5'      166.8040  148.5830   32.7200 O.3   400  ATP400     -0.3112
     14  C5'      167.6310  147.4990   33.1620 C.3   400  ATP400      0.1813
     15  C4'      167.0230  146.1710   32.7120 C.3   400  ATP400      0.1821
     16  O4'      165.7630  145.9320   33.3630 O.3   400  ATP400     -0.3135
     17  C3'      166.7360  146.2360   31.2260 C.3   400  ATP400      0.2184
     18  O3'      166.9920  144.9700   30.6080 O.3   400  ATP400     -0.2174
     19  C2'      165.2570  146.5300   31.1800 C.3   400  ATP400      0.2570
     20  O2'      164.7060  146.0560   29.9600 O.3   400  ATP400     -0.2130
     21  C1'      164.7180  145.8140   32.3990 C.3   400  ATP400      0.3186
     22  N9       163.5330  146.5360   32.8790 N.pl3 400  ATP400     -0.1439
     23  C8       163.5800  147.7060   33.5200 C.3   400  ATP400      0.3377
     24  N7       162.3470  148.1600   33.8270 N.2   400  ATP400     -0.2095
     25  C5       161.4800  147.2560   33.3650 C.2   400  ATP400      0.2526
     26  C6       160.0090  147.1340   33.3820 C.2   400  ATP400      0.4393
     27  N6       159.2340  148.1110   33.9540 N.pl3 400  ATP400      0.2180
     28  N1       159.4960  146.0240   32.7950 N.2   400  ATP400      0.0021
     29  C2       160.2800  145.0870   32.2280 C.3   400  ATP400      0.5254
     30  N3       161.6210  145.1370   32.1840 N.2   400  ATP400     -0.0055
     31  C4       162.2650  146.1840   32.7370 C.2   400  ATP400      0.3518
@<TRIPOS>BOND
     1    20    19    1
     2    18    17    1
     3    19    17    1
     4    19    21    1
     5    17    15    1
     6    10     9    2
     7    11     9    1
     8    30    29    1
     9    30    31    2
    10    29    28    1
    11     9    13    1
    12     9    12    1
    13    21    22    1
    14    21    16    1
    15    15    14    1
    16    15    16    1
    17    13    14    1
    18    31    22    1
    19    31    25    1
    20    28    26    2
    21     6     5    2
    22    22    23    1
    23     3     1    2
    24    25    26    1
    25    25    24    2
    26    26    27    1
    27    23    24    1
    28    12     5    1
    29     5     8    1
    30     5     7    1
    31     8     1    1
    32     1     4    1
    33     1     2    1
