@<TRIPOS>MOLECULE
3m0f_GSH_A_1.pdb
 20 19 0 0 0
SMALL
GASTEIGER

@<TRIPOS>ATOM
      1  N1        23.2320   17.4940   21.6490 N.3   220  GSH220     -0.1208
      2  CA1       22.0870   18.2390   22.1160 C.3   220  GSH220      0.1948
      3  C1        21.7950   19.3180   21.0750 C.2   220  GSH220      0.3819
      4  O11       20.5990   19.5540   21.0120 O.co2 220  GSH220     -0.2441
      5  O12       22.7560   19.8460   20.3410 O.co2 220  GSH220     -0.2441
      6  CB1       22.3120   18.8280   23.5440 C.3   220  GSH220      0.0402
      7  CG1       21.0150   19.6050   24.0320 C.3   220  GSH220      0.0889
      8  CD1       20.9420   19.8120   25.5260 C.2   220  GSH220      0.2418
      9  OE1       21.9370   19.2800   26.3840 O.2   220  GSH220     -0.2733
     10  N2        19.9020   20.5030   25.9580 N.am  220  GSH220     -0.1968
     11  CA2       19.6190   20.8350   27.3630 C.3   220  GSH220      0.1843
     12  C2        18.6450   19.8390   28.0030 C.2   220  GSH220      0.2627
     13  O2        17.6420   19.3800   27.1730 O.2   220  GSH220     -0.2714
     14  CB2       18.9510   22.2170   27.3620 C.3   220  GSH220      0.0997
     15  SG2       20.3640   23.3800   27.1420 S.3   220  GSH220     -0.0797
     16  N3        18.7250   19.3930   29.3000 N.am  220  GSH220     -0.1917
     17  CA3       17.7110   18.4350   29.7330 C.3   220  GSH220      0.2285
     18  C3        18.4320   17.2110   30.2530 C.2   220  GSH220      0.3865
     19  O31       17.9400   16.7150   31.2390 O.co2 220  GSH220     -0.2437
     20  O32       19.4650   16.7790   29.6660 O.co2 220  GSH220     -0.2437
@<TRIPOS>BOND
     1     5     3   ar
     2     4     3   ar
     3     3     2    1
     4     1     2    1
     5     2     6    1
     6     6     7    1
     7     7     8    1
     8     8    10   am
     9     8     9    2
    10    10    11    1
    11    15    14    1
    12    13    12    2
    13    14    11    1
    14    11    12    1
    15    12    16   am
    16    16    17    1
    17    20    18   ar
    18    17    18    1
    19    18    19   ar
