@<TRIPOS>MOLECULE
3m0h_RNS_A_1.pdb
 11 10 0 0 0
SMALL
GASTEIGER

@<TRIPOS>ATOM
      1  C1       -41.6610    4.5780   13.2140 C.2   2001  RNS2001     0.2427
      2  C2       -41.9380    3.2520   12.5240 C.3   2001  RNS2001     0.2486
      3  C3       -42.8880    3.4410   11.3430 C.3   2001  RNS2001     0.2224
      4  C4       -42.4950    4.6220   10.4440 C.3   2001  RNS2001     0.2152
      5  C5       -43.3550    4.6140    9.1830 C.3   2001  RNS2001     0.1849
      6  C6       -43.0290    5.8360    8.3360 C.3   2001  RNS2001     0.0383
      7  O1       -40.6550    4.6980   13.9190 O.2   2001  RNS2001    -0.2854
      8  O2       -40.7210    2.6770   12.0780 O.3   2001  RNS2001    -0.2118
      9  O3       -42.9300    2.2430   10.5790 O.3   2001  RNS2001    -0.2171
     10  O4       -41.1210    4.5410   10.0890 O.3   2001  RNS2001    -0.2176
     11  O5       -44.7280    4.6400    9.5420 O.3   2001  RNS2001    -0.2203
@<TRIPOS>BOND
     1     6     5    1
     2     5    11    1
     3     5     4    1
     4    10     4    1
     5     4     3    1
     6     9     3    1
     7     3     2    1
     8     8     2    1
     9     2     1    1
    10     1     7    2
