@<TRIPOS>MOLECULE
3m0i_ZST_A_1.pdb
 29 32 0 0 0
SMALL
GASTEIGER

@<TRIPOS>ATOM
      1  C1        20.3710    9.5140  -12.1880 C.ar  600  ZST600      0.2767
      2  O1        20.8630    8.3850  -12.2240 O.2   600  ZST600     -0.2655
      3  C2        20.7180   10.4320  -11.0490 C.ar  600  ZST600      0.0588
      4  C3        20.1440   11.7040  -11.0390 C.ar  600  ZST600      0.0204
      5  C4        19.2220   12.0570  -12.1730 C.ar  600  ZST600      0.0902
      6  C5        21.5930   10.0610  -10.0230 C.ar  600  ZST600      0.0048
      7  C6        21.8700   10.9510   -8.9860 C.ar  600  ZST600      0.0002
      8  C7        21.2850   12.2100   -8.9730 C.ar  600  ZST600      0.0000
      9  C8        20.3650   12.5730   -9.9680 C.ar  600  ZST600      0.0014
     10  N1        19.5320    9.9780  -13.1000 N.ar  600  ZST600     -0.2090
     11  N2        18.9670   11.2220  -13.1180 N.ar  600  ZST600     -0.1702
     12  C9        18.9150    9.0820  -14.0750 C.3   600  ZST600      0.1960
     13  C10       17.6550    8.4700  -13.5410 C.2   600  ZST600      0.1632
     14  C11       15.8420    7.7020  -12.0940 C.2   600  ZST600      0.0572
     15  C12       15.7510    7.3690  -13.4420 C.2   600  ZST600      0.1371
     16  C13       14.8870    7.3630  -11.1210 C.2   600  ZST600     -0.0124
     17  C14       13.7960    6.6360  -11.5940 C.3   600  ZST600      0.0569
     18  C15       13.6860    6.2950  -12.9420 C.2   600  ZST600      0.0561
     19  C16       14.6520    6.6510  -13.8890 C.2   600  ZST600      0.0325
     20  N3        16.7880    7.8170  -14.2140 N.2   600  ZST600     -0.3972
     21  S1        17.2770    8.6430  -11.8180 S.3   600  ZST600     -0.0556
     22  C17       18.5650   13.3990  -12.2530 C.3   600  ZST600      0.1613
     23  C18       17.3470   13.4870  -11.3980 C.2   600  ZST600      0.3709
     24  O2        16.9310   14.6720  -11.1750 O.co2 600  ZST600     -0.2452
     25  O3        16.8010   12.4550  -10.9520 O.co2 600  ZST600     -0.2452
     26  C19       12.4560    5.5280  -13.3970 C.3   600  ZST600      0.4153
     27  F1        11.3240    6.2510  -13.0220 F     600  ZST600     -0.1662
     28  F2        12.3130    4.3010  -12.9510 F     600  ZST600     -0.1662
     29  F3        12.3950    5.5500  -14.7620 F     600  ZST600     -0.1662
@<TRIPOS>BOND
     1    29    26    1
     2    20    13    2
     3    20    15    2
     4    12    13    1
     5    12    10    1
     6    19    15    1
     7    19    18    2
     8    13    21    1
     9    15    14    1
    10    26    27    1
    11    26    28    1
    12    26    18    1
    13    11    10   ar
    14    11     5   ar
    15    10     1   ar
    16    18    17    1
    17    22     5    1
    18    22    23    1
    19     2     1    2
    20     1     3   ar
    21     5     4   ar
    22    14    21    1
    23    14    16    2
    24    17    16    1
    25    23    24   ar
    26    23    25   ar
    27     3     4   ar
    28     3     6   ar
    29     4     9   ar
    30     6     7   ar
    31     9     8   ar
    32     7     8   ar
