@<TRIPOS>MOLECULE
3m0i_NAP_A_1.pdb
 48 52 0 0 0
SMALL
GASTEIGER

@<TRIPOS>ATOM
      1  PA        21.7320   21.0400  -18.6360 P.3   500  NAP500      0.2189
      2  O1A       21.1050   20.6410  -19.9160 O.2   500  NAP500     -0.5170
      3  O2A       21.2170   22.1990  -17.9000 O.3   500  NAP500     -0.4371
      4  O5B       23.3170   21.1180  -18.9340 O.3   500  NAP500     -0.3112
      5  C5B       24.2050   21.4600  -17.8520 C.3   500  NAP500      0.1813
      6  C4B       25.6120   21.3360  -18.4440 C.3   500  NAP500      0.1820
      7  O4B       25.8240   22.3610  -19.4030 O.3   500  NAP500     -0.3136
      8  C3B       26.7420   21.4960  -17.4080 C.3   500  NAP500      0.2157
      9  O3B       27.8020   20.6190  -17.7840 O.3   500  NAP500     -0.2175
     10  C2B       27.1250   22.9820  -17.5960 C.3   500  NAP500      0.2314
     11  O2B       28.4840   23.1660  -17.2310 O.3   500  NAP500     -0.2630
     12  C1B       26.9320   23.1690  -19.0900 C.3   500  NAP500      0.3158
     13  N9A       26.6090   24.5260  -19.4430 N.pl3 500  NAP500     -0.1439
     14  C8A       25.7220   25.3830  -18.8150 C.3   500  NAP500      0.3377
     15  N7A       25.6240   26.5530  -19.3760 N.2   500  NAP500     -0.2095
     16  C5A       26.4790   26.4690  -20.4590 C.2   500  NAP500      0.2526
     17  C6A       26.7930   27.4610  -21.4190 C.2   500  NAP500      0.4393
     18  N6A       26.2950   28.6870  -21.4490 N.pl3 500  NAP500      0.2180
     19  N1A       27.7450   27.0710  -22.3780 N.2   500  NAP500      0.0021
     20  C2A       28.3200   25.8040  -22.3680 C.3   500  NAP500      0.5254
     21  N3A       28.0170   24.8360  -21.4370 N.2   500  NAP500     -0.0055
     22  C4A       27.0910   25.2390  -20.4810 C.2   500  NAP500      0.3518
     23  O3        21.7220   19.7200  -17.6960 O.3   500  NAP500     -0.2703
     24  PN        20.9720   19.1450  -16.4220 P.3   500  NAP500      0.2189
     25  O1N       21.7100   19.5380  -15.2050 O.3   500  NAP500     -0.4371
     26  O2N       20.7290   17.6810  -16.6890 O.2   500  NAP500     -0.5170
     27  O5D       19.5090   19.7950  -16.4350 O.3   500  NAP500     -0.3112
     28  C5D       19.2060   21.0990  -15.8290 C.3   500  NAP500      0.1813
     29  C4D       18.5790   20.9080  -14.4690 C.3   500  NAP500      0.1799
     30  O4D       17.2900   20.2260  -14.5980 O.3   500  NAP500     -0.3327
     31  C3D       19.3090   19.9950  -13.4480 C.3   500  NAP500      0.2158
     32  O3D       20.4810   20.5660  -12.9330 O.3   500  NAP500     -0.2175
     33  C2D       18.1680   19.7180  -12.4600 C.3   500  NAP500      0.2309
     34  O2D       18.0130   20.8920  -11.6630 O.3   500  NAP500     -0.2158
     35  C1D       16.9960   19.5260  -13.3890 C.3   500  NAP500      0.2263
     36  N1N       16.8060   18.0690  -13.7770 N.pl3 500  NAP500     -0.2787
     37  C2N       15.7090   17.4420  -13.2080 C.3   500  NAP500      0.1244
     38  C3N       15.5320   16.0780  -13.4770 C.2   500  NAP500      0.0544
     39  C7N       14.3210   15.3290  -12.9230 C.2   500  NAP500      0.2818
     40  O7N       14.2990   14.1030  -12.9760 O.2   500  NAP500     -0.2670
     41  N7N       13.3210   16.1140  -12.5370 N.am  500  NAP500     -0.0839
     42  C4N       16.4580   15.3450  -14.2860 C.2   500  NAP500      0.0033
     43  C5N       17.5480   16.0360  -14.8460 C.2   500  NAP500      0.0157
     44  C6N       17.7120   17.4060  -14.6420 C.2   500  NAP500      0.0633
     45  P2B       28.9810   23.9230  -15.8820 P.3   500  NAP500      0.5328
     46  O1X       30.3210   23.2550  -15.5900 O.3   500  NAP500     -0.1145
     47  O2X       29.1200   25.3750  -16.2510 O.2   500  NAP500     -0.2224
     48  O3X       27.9270   23.6620  -14.8220 O.3   500  NAP500     -0.1145
@<TRIPOS>BOND
     1    19    20    1
     2    19    17    2
     3    20    21    1
     4    18    17    1
     5    21    22    2
     6    17    16    1
     7    22    16    1
     8    22    13    1
     9    16    15    2
    10     2     1    2
    11    13    12    1
    12    13    14    1
    13     7    12    1
    14     7     6    1
    15    15    14    1
    16    12    10    1
    17     4     1    1
    18     4     5    1
    19     1     3    1
    20     1    23    1
    21     6     5    1
    22     6     8    1
    23     9     8    1
    24    23    24    1
    25    10     8    1
    26    10    11    1
    27    11    45    1
    28    26    24    2
    29    27    24    1
    30    27    28    1
    31    24    25    1
    32    47    45    2
    33    45    46    1
    34    45    48    1
    35    28    29    1
    36    43    44    2
    37    43    42    1
    38    44    36    1
    39    30    29    1
    40    30    35    1
    41    29    31    1
    42    42    38    2
    43    36    35    1
    44    36    37    1
    45    38    37    1
    46    38    39    1
    47    31    32    1
    48    31    33    1
    49    35    33    1
    50    40    39    2
    51    39    41   am
    52    33    34    1
