@<TRIPOS>MOLECULE
3m0j_OAF_A_1.pdb
 12 11 0 0 0
SMALL
GASTEIGER

@<TRIPOS>ATOM
      1  O2        16.2010    7.7480  -23.5100 O.co2 501  OAF501     -0.2370
      2  C1        15.5650    7.2290  -22.6460 C.2   501  OAF501      0.4536
      3  O1        14.2190    6.9470  -22.8390 O.co2 501  OAF501     -0.2370
      4  C2        16.1370    7.0650  -21.2350 C.3   501  OAF501      0.5050
      5  O4        17.4890    6.6590  -21.3030 O.2   501  OAF501     -0.2562
      6  O3        15.4240    6.0690  -20.5540 O.2   501  OAF501     -0.2562
      7  C3        15.9880    8.4470  -20.5490 C.3   501  OAF501      0.4401
      8  F1        16.9850    9.2800  -20.9810 F     501  OAF501     -0.1835
      9  F2        14.7880    9.0370  -20.8230 F     501  OAF501     -0.1835
     10  C4        16.0570    8.2640  -19.0400 C.2   501  OAF501      0.4330
     11  O5        15.0600    8.0940  -18.4090 O.co2 501  OAF501     -0.2393
     12  O6        17.2960    8.4520  -18.4310 O.co2 501  OAF501     -0.2393
@<TRIPOS>BOND
     1     1     2   ar
     2     3     2   ar
     3     2     4    1
     4     5     4    1
     5     4     6    1
     6     4     7    1
     7     8     7    1
     8     9     7    1
     9     7    10    1
    10    10    12   ar
    11    10    11   ar
