@<TRIPOS>MOLECULE
3m0l_PSJ_A_1.pdb
 12 11 0 0 0
SMALL
GASTEIGER

@<TRIPOS>ATOM
      1  C1       -41.7850    4.7670   13.2550 C.3   601  PSJ601      0.2486
      2  O1       -40.6240    4.6190   14.0550 O.3   601  PSJ601     -0.2118
      3  C2       -41.9470    3.5540   12.3540 C.2   601  PSJ601      0.2165
      4  O2       -40.9850    2.8240   12.0980 O.2   601  PSJ601     -0.2905
      5  C3       -43.2530    3.3900   11.5870 C.3   601  PSJ601      0.2440
      6  O3       -43.1970    2.2140   10.7900 O.3   601  PSJ601     -0.2122
      7  C4       -43.4920    4.6120   10.6920 C.3   601  PSJ601      0.2221
      8  O4       -44.8290    4.5950   10.2010 O.3   601  PSJ601     -0.2171
      9  C5       -42.5040    4.6380    9.5210 C.3   601  PSJ601      0.2179
     10  O5       -41.1690    4.5950   10.0120 O.3   601  PSJ601     -0.2175
     11  C6       -42.7080    5.9040    8.6990 C.3   601  PSJ601      0.2175
     12  O6       -42.3450    7.0410    9.4670 O.3   601  PSJ601     -0.2175
@<TRIPOS>BOND
     1    11    12    1
     2    11     9    1
     3     9    10    1
     4     9     7    1
     5     8     7    1
     6     7     5    1
     7     6     5    1
     8     5     3    1
     9     4     3    2
    10     3     1    1
    11     1     2    1
