@<TRIPOS>MOLECULE
3m0m_AOS_A_1.pdb
 12 11 0 0 0
SMALL
GASTEIGER

@<TRIPOS>ATOM
      1  C1       -41.8120    4.5580   13.2680 C.2   3001  AOS3001     0.2427
      2  O1       -40.8410    4.6790   14.0300 O.2   3001  AOS3001    -0.2854
      3  C2       -42.0600    3.2160   12.6010 C.3   3001  AOS3001     0.2486
      4  O2       -40.8820    2.7630   11.9660 O.3   3001  AOS3001    -0.2118
      5  C3       -43.2390    3.2570   11.6120 C.3   3001  AOS3001     0.2225
      6  O3       -43.1530    2.1510   10.7250 O.3   3001  AOS3001    -0.2171
      7  C4       -43.4090    4.5570   10.8100 C.3   3001  AOS3001     0.2179
      8  O4       -44.7460    4.6240   10.3260 O.3   3001  AOS3001    -0.2175
      9  C5       -42.4480    4.6450    9.6210 C.3   3001  AOS3001     0.2175
     10  O5       -41.1020    4.5730   10.0670 O.3   3001  AOS3001    -0.2175
     11  C6       -42.6730    5.9530    8.8700 C.3   3001  AOS3001     0.2175
     12  O6       -42.3470    7.0520    9.7070 O.3   3001  AOS3001    -0.2175
@<TRIPOS>BOND
     1    11     9    1
     2    11    12    1
     3     9    10    1
     4     9     7    1
     5     8     7    1
     6     6     5    1
     7     7     5    1
     8     5     3    1
     9     4     3    1
    10     3     1    1
    11     1     2    2
