@<TRIPOS>MOLECULE
3m0n_PE0_A_1.pdb
 12 13 0 0 0
SMALL
GASTEIGER

@<TRIPOS>ATOM
      1  C1       -15.5560   12.5520   26.0610 C.2   202  PE0202      0.2510
      2  C4       -14.5300   12.8430   25.1480 C.1   202  PE0202      0.2445
      3  O4       -13.6990   13.7370   25.3570 O.2   202  PE0202     -0.2063
      4  N2       -14.4600   12.1070   23.9680 N.2   202  PE0202     -0.2474
      5  C3       -15.4050   11.0950   23.7110 C.1   202  PE0202      0.2608
      6  N6       -15.3230   10.4010   22.5810 N.pl3 202  PE0202     -0.0220
      7  N1       -16.3770   10.8330   24.6090 N.2   202  PE0202     -0.2679
      8  C2       -16.4700   11.5350   25.7640 C.1   202  PE0202      0.1318
      9  N3       -17.4500   11.2580   26.6450 N.2   202  PE0202     -0.1781
     10  C6       -17.5510   11.9380   27.7810 C.2   202  PE0202      0.1312
     11  C5       -16.6380   12.9530   28.0740 C.2   202  PE0202      0.1220
     12  N4       -15.6720   13.2360   27.2180 N.2   202  PE0202     -0.2195
@<TRIPOS>BOND
     1     6     5    1
     2     5     4    2
     3     5     7    2
     4     4     2    2
     5     7     8    2
     6     2     3    2
     7     2     1    1
     8     8     1    1
     9     8     9    2
    10     1    12    2
    11     9    10    1
    12    12    11    1
    13    10    11    2
