@<TRIPOS>MOLECULE
3m0v_RNS_A_1.pdb
 11 10 0 0 0
SMALL
GASTEIGER

@<TRIPOS>ATOM
      1  C1       -41.7320    4.5620   13.4450 C.2   2001  RNS2001     0.2427
      2  C2       -42.0000    3.2740   12.6810 C.3   2001  RNS2001     0.2486
      3  C3       -43.0650    3.4860   11.6060 C.3   2001  RNS2001     0.2224
      4  C4       -42.7480    4.6880   10.7100 C.3   2001  RNS2001     0.2152
      5  C5       -43.6810    4.7200    9.5010 C.3   2001  RNS2001     0.1849
      6  C6       -43.3460    5.9240    8.6330 C.3   2001  RNS2001     0.0383
      7  O1       -40.7180    4.6540   14.1440 O.2   2001  RNS2001    -0.2854
      8  O2       -40.8020    2.8060   12.0890 O.3   2001  RNS2001    -0.2118
      9  O3       -43.1670    2.3090   10.8160 O.3   2001  RNS2001    -0.2171
     10  O4       -41.4010    4.6180   10.2610 O.3   2001  RNS2001    -0.2176
     11  O5       -45.0320    4.8010    9.9300 O.3   2001  RNS2001    -0.2203
@<TRIPOS>BOND
     1     6     5    1
     2     5    11    1
     3     5     4    1
     4    10     4    1
     5     4     3    1
     6     9     3    1
     7     3     2    1
     8     8     2    1
     9     2     1    1
    10     1     7    2
