@<TRIPOS>MOLECULE
3m0w_P77_A_1.pdb
 25 28 0 0 0
SMALL
GASTEIGER

@<TRIPOS>ATOM
      1  S         18.0690  -10.1990   48.9330 S.3   203  P77203     -0.0844
      2 CL         23.8260  -12.5610   49.4150 Cl    203  P77203     -0.0822
      3  C1        22.1660  -11.9060   49.2840 C.ar  203  P77203      0.0589
      4  N1        20.0120   -9.3970   50.8850 N.pl3 203  P77203     -0.2860
      5  C2        21.3270  -12.3870   48.2880 C.ar  203  P77203      0.0120
      6  N2        21.1270   -6.2730   48.8130 N.3   203  P77203     -0.2703
      7  C3        20.0460  -11.8820   48.1540 C.ar  203  P77203      0.0086
      8  N3        21.9280   -4.3550   46.9160 N.3   203  P77203     -0.2691
      9  C4        19.6060  -10.9040   49.0250 C.ar  203  P77203      0.0431
     10  C5        20.5050  -10.4250   50.0730 C.ar  203  P77203      0.0585
     11  C6        21.7810  -10.9250   50.1790 C.ar  203  P77203      0.0267
     12  C7        17.7150  -10.1170   50.5910 C.ar  203  P77203      0.0431
     13  C8        16.4610  -10.4040   51.1180 C.ar  203  P77203      0.0077
     14  C9        16.2350  -10.2850   52.4880 C.ar  203  P77203      0.0006
     15  C10       17.2520   -9.9010   53.3580 C.ar  203  P77203      0.0013
     16  C11       18.5230   -9.5990   52.8600 C.ar  203  P77203      0.0153
     17  C12       18.7860   -9.7050   51.5010 C.ar  203  P77203      0.0576
     18  C13       21.0650   -8.7270   51.6790 C.3   203  P77203      0.0970
     19  C14       21.6990   -7.7120   50.7060 C.3   203  P77203      0.0391
     20  C15       20.6080   -6.8530   50.0590 C.3   203  P77203      0.0739
     21  C16       20.1040   -5.4820   48.0900 C.3   203  P77203      0.0897
     22  C17       20.6970   -5.1320   46.7130 C.3   203  P77203      0.0897
     23  C18       22.9440   -5.1260   47.6640 C.3   203  P77203      0.0897
     24  C19       22.3920   -5.5220   49.0300 C.3   203  P77203      0.0897
     25  C20       22.4760   -3.9480   45.6260 C.3   203  P77203      0.0897
@<TRIPOS>BOND
     1    25     8    1
     2    22     8    1
     3    22    21    1
     4     8    23    1
     5    23    24    1
     6    21     6    1
     7     7     5   ar
     8     7     9   ar
     9     5     3   ar
    10     6    24    1
    11     6    20    1
    12     1     9    1
    13     1    12    1
    14     9    10   ar
    15     3     2    1
    16     3    11   ar
    17    20    19    1
    18    10    11   ar
    19    10     4    1
    20    12    13   ar
    21    12    17   ar
    22    19    18    1
    23     4    17    1
    24     4    18    1
    25    13    14   ar
    26    17    16   ar
    27    14    15   ar
    28    16    15   ar
