@<TRIPOS>MOLECULE
3m0x_PSJ_A_1.pdb
 12 11 0 0 0
SMALL
GASTEIGER

@<TRIPOS>ATOM
      1  C1         4.3810   -4.7800   13.4110 C.3   601  PSJ601      0.2486
      2  O1         3.1250   -4.7270   14.0560 O.3   601  PSJ601     -0.2118
      3  C2         4.4810   -3.6720   12.3750 C.2   601  PSJ601      0.2165
      4  O2         3.5870   -2.8290   12.2610 O.2   601  PSJ601     -0.2905
      5  C3         5.8100   -3.4640   11.6700 C.3   601  PSJ601      0.2440
      6  O3         5.7500   -2.2860   10.8780 O.3   601  PSJ601     -0.2122
      7  C4         6.1380   -4.6800   10.7880 C.3   601  PSJ601      0.2221
      8  O4         7.4730   -4.5810   10.3170 O.3   601  PSJ601     -0.2171
      9  C5         5.1800   -4.8030    9.6040 C.3   601  PSJ601      0.2179
     10  O5         3.8430   -4.7570   10.0750 O.3   601  PSJ601     -0.2175
     11  C6         5.4170   -6.1260    8.8820 C.3   601  PSJ601      0.2175
     12  O6         4.9850   -7.2020    9.6980 O.3   601  PSJ601     -0.2175
@<TRIPOS>BOND
     1    11     9    1
     2    11    12    1
     3     9    10    1
     4     9     7    1
     5     8     7    1
     6     7     5    1
     7     6     5    1
     8     5     3    1
     9     4     3    2
    10     3     1    1
    11     1     2    1
