@<TRIPOS>MOLECULE
3m0y_RNS_A_1.pdb
 11 10 0 0 0
SMALL
GASTEIGER

@<TRIPOS>ATOM
      1  C1        15.0050   32.7030   68.0810 C.2   2001  RNS2001     0.2427
      2  C2        14.7050   31.3950   67.3550 C.3   2001  RNS2001     0.2486
      3  C3        13.6350   31.6120   66.2840 C.3   2001  RNS2001     0.2224
      4  C4        13.9450   32.8600   65.4530 C.3   2001  RNS2001     0.2152
      5  C5        13.0860   32.8940   64.1940 C.3   2001  RNS2001     0.1849
      6  C6        13.4200   34.1360   63.3790 C.3   2001  RNS2001     0.0383
      7  O1        15.9840   32.7810   68.8290 O.2   2001  RNS2001    -0.2854
      8  O2        15.8900   30.8970   66.7590 O.3   2001  RNS2001    -0.2118
      9  O3        13.5760   30.4750   65.4360 O.3   2001  RNS2001    -0.2171
     10  O4        15.3220   32.8750   65.0940 O.3   2001  RNS2001    -0.2176
     11  O5        11.7130   32.9020   64.5450 O.3   2001  RNS2001    -0.2203
@<TRIPOS>BOND
     1     6     5    1
     2     5    11    1
     3     5     4    1
     4    10     4    1
     5     9     3    1
     6     4     3    1
     7     3     2    1
     8     8     2    1
     9     2     1    1
    10     1     7    2
