@<TRIPOS>MOLECULE
3m11_AKI_A_1.pdb
 40 45 0 0 0
SMALL
GASTEIGER

@<TRIPOS>ATOM
      1  N1         3.8610   31.3560    9.0250 N.2     1  AKI1       -0.1873
      2  C2         4.6360   30.4240    9.5570 C.3     1  AKI1        0.3939
      3  N3         5.3550   29.6010    8.8100 N.2     1  AKI1       -0.0365
      4  C4         5.3220   29.6850    7.4730 C.2     1  AKI1        0.3467
      5  C5         4.5200   30.6500    6.8830 C.3     1  AKI1        0.2098
      6  C6         3.7780   31.4990    7.6950 C.2     1  AKI1        0.2206
      7  CAA        6.0140   30.5940    2.3700 C.ar    1  AKI1       -0.0000
      8  CAB        5.4790   31.1880    3.5080 C.ar    1  AKI1       -0.0002
      9  CAC        4.7880   30.4160    4.4350 C.ar    1  AKI1       -0.0000
     10  CAD        4.6330   29.0510    4.2250 C.ar    1  AKI1       -0.0002
     11  CAE        5.1680   28.4570    3.0870 C.ar    1  AKI1       -0.0000
     12  CAF        5.8590   29.2290    2.1600 C.ar    1  AKI1       -0.0000
     13  CAG        4.2530   31.0090    5.5720 C.2     1  AKI1        0.0326
     14  CAH        3.3580   32.0640    5.5960 C.2     1  AKI1        0.1437
     15  OAI        3.0660   32.3650    6.8970 O.2     1  AKI1       -0.4395
     16  CAL        2.8410   32.7110    4.4800 C.ar    1  AKI1        0.0343
     17  CAM        3.0300   32.1710    3.2140 C.ar    1  AKI1        0.0030
     18  CAN        2.5130   32.8190    2.0980 C.ar    1  AKI1        0.0001
     19  CAO        1.8070   34.0060    2.2490 C.ar    1  AKI1        0.0000
     20  CAP        1.6170   34.5460    3.5150 C.ar    1  AKI1        0.0001
     21  CAQ        2.1340   33.8990    4.6310 C.ar    1  AKI1        0.0030
     22  CAV        6.8750   27.8250    7.3630 C.3     1  AKI1        0.2555
     23  CAW        8.2600   28.3990    7.6670 C.3     1  AKI1        0.0817
     24  CAX        9.1770   27.3310    8.2680 C.ar    1  AKI1       -0.0178
     25  CAY        8.8950   26.7970    9.5200 C.ar    1  AKI1       -0.0028
     26  CAZ        9.7280   25.8270   10.0650 C.ar    1  AKI1        0.0163
     27  CBA       10.8420   25.3910    9.3590 C.ar    1  AKI1        0.0750
     28  CBB       11.1240   25.9240    8.1070 C.ar    1  AKI1        0.0163
     29  CBC       10.2920   26.8940    7.5610 C.ar    1  AKI1       -0.0028
     30  NBD       11.6390   24.4620    9.8810 N.am    1  AKI1       -0.1607
     31  CBE       11.7550   23.2760    9.2910 C.2     1  AKI1        0.3477
     32  NBF       12.5700   22.3990    9.8700 N.am    1  AKI1       -0.1607
     33  CBG       12.7350   21.1920    9.3370 C.ar    1  AKI1        0.0750
     34  CBH       13.9480   20.5280    9.4840 C.ar    1  AKI1        0.0167
     35  CBI       14.1210   19.2660    8.9270 C.ar    1  AKI1        0.0013
     36  CBJ       13.0820   18.6690    8.2220 C.ar    1  AKI1        0.0001
     37  CBK       11.8700   19.3330    8.0750 C.ar    1  AKI1        0.0013
     38  CBL       11.6970   20.5940    8.6330 C.ar    1  AKI1        0.0167
     39  OBM       11.1400   23.0040    8.2610 O.2     1  AKI1       -0.2484
     40  NBN        6.0450   28.8570    6.7250 N.pl3   1  AKI1       -0.0345
@<TRIPOS>BOND
     1    18    19   ar
     2    18    17   ar
     3    12     7   ar
     4    12    11   ar
     5    19    20   ar
     6     7     8   ar
     7    11    10   ar
     8    17    16   ar
     9     8     9   ar
    10    20    21   ar
    11    10     9   ar
    12     9    13    1
    13    16    21   ar
    14    16    14    1
    15    13    14    2
    16    13     5    1
    17    14    15    1
    18    40    22    1
    19    40     4    1
    20     5     4    1
    21     5     6    1
    22    15     6    1
    23    22    23    1
    24     4     3    2
    25    29    28   ar
    26    29    24   ar
    27    23    24    1
    28     6     1    2
    29    37    36   ar
    30    37    38   ar
    31    28    27   ar
    32    36    35   ar
    33    39    31    2
    34    24    25   ar
    35    38    33   ar
    36     3     2    1
    37    35    34   ar
    38     1     2    1
    39    31    32   am
    40    31    30   am
    41    33    34   ar
    42    33    32    1
    43    27    30    1
    44    27    26   ar
    45    25    26   ar
