@<TRIPOS>MOLECULE
3m14_BEV_A_1.pdb
 10 10 0 0 0
SMALL
GASTEIGER

@<TRIPOS>ATOM
      1  N1        15.9200    1.4210   16.0030 N.3   505  BEV505      0.0564
      2  C6        16.6980    4.9760   15.3530 C.2   505  BEV505      0.1952
      3  C8        17.4490    6.8170   14.0160 C.3   505  BEV505      0.1396
      4  S2        15.6260    2.9250   16.5570 S.O2  505  BEV505      0.1651
      5  O3        14.3370    3.3120   16.1140 O.2   505  BEV505     -0.1336
      6  O4        15.8430    2.9780   18.0020 O.2   505  BEV505     -0.1336
      7  N5        16.8490    3.8520   15.9520 N.pl3 505  BEV505     -0.0577
      8  N7        17.7630    5.6740   14.8260 N.2   505  BEV505     -0.2474
      9  C9        16.0550    7.2780   14.4060 C.3   505  BEV505      0.0913
     10  S10       15.2010    5.7630   14.8620 S.3   505  BEV505     -0.0751
@<TRIPOS>BOND
     1     3     9    1
     2     3     8    1
     3     9    10    1
     4     8     2    2
     5    10     2    1
     6     2     7    1
     7     7     4    1
     8     1     4    1
     9     5     4    2
    10     4     6    2
