@<TRIPOS>MOLECULE
3m15_HEM_A_1.pdb
 43 50 0 0 0
SMALL
GASTEIGER

@<TRIPOS>ATOM
      1  CHA       20.1880   10.3160   25.4200 C.2   150  HEM150      0.0000
      2  CHB       22.7520    6.5650   26.9450 C.2   150  HEM150      0.0000
      3  CHC       20.1060    3.7250   24.2090 C.2   150  HEM150      0.0000
      4  CHD       17.7560    7.4800   22.2830 C.2   150  HEM150      0.0000
      5  C1A       21.0750    9.5510   26.1200 C.2   150  HEM150      0.0000
      6  C2A       21.9880    9.9940   27.1800 C.2   150  HEM150      0.0000
      7  C3A       22.6870    8.9360   27.5920 C.2   150  HEM150      0.0000
      8  C4A       22.2420    7.8050   26.8200 C.2   150  HEM150      0.0000
      9  CMA       23.7670    8.8990   28.6860 C.3   150  HEM150      0.0000
     10  CAA       22.1190   11.4160   27.7600 C.3   150  HEM150      0.0000
     11  CBA       22.9560   12.2440   26.8130 C.3   150  HEM150      0.0000
     12  CGA       23.1040   13.6140   27.4160 C.2   150  HEM150      0.0000
     13  O1A       22.6230   14.6090   26.8030 O.co2 150  HEM150      0.0000
     14  O2A       23.7100   13.7060   28.5070 O.co2 150  HEM150      0.0000
     15  C1B       22.2650    5.4590   26.3440 C.ar  150  HEM150      0.0000
     16  C2B       22.7140    4.1070   26.5830 C.ar  150  HEM150      0.0000
     17  C3B       21.9620    3.3100   25.8360 C.ar  150  HEM150      0.0000
     18  C4B       21.0390    4.1520   25.1080 C.ar  150  HEM150      0.0000
     19  CMB       23.8240    3.7090   27.5540 C.3   150  HEM150      0.0000
     20  CAB       22.0420    1.7620   25.7340 C.2   150  HEM150      0.0000
     21  CBB       21.8330    0.9830   26.8050 C.2   150  HEM150      0.0000
     22  C1C       19.2810    4.4990   23.4500 C.2   150  HEM150      0.0000
     23  C2C       18.3900    3.9740   22.4460 C.2   150  HEM150      0.0000
     24  C3C       17.7160    5.0040   21.9110 C.2   150  HEM150      0.0000
     25  C4C       18.1930    6.2060   22.5500 C.2   150  HEM150      0.0000
     26  CMC       18.2930    2.4860   22.1130 C.3   150  HEM150      0.0000
     27  CAC       16.6520    5.0020   20.8020 C.2   150  HEM150      0.0000
     28  CBC       15.9360    3.9220   20.4510 C.2   150  HEM150      0.0000
     29  C1D       18.1830    8.6160   22.9380 C.ar  150  HEM150      0.0000
     30  C2D       17.7410    9.9610   22.6670 C.ar  150  HEM150      0.0000
     31  C3D       18.5020   10.8240   23.6400 C.ar  150  HEM150      0.0000
     32  C4D       19.3400    9.9270   24.4080 C.ar  150  HEM150      0.0000
     33  CMD       16.7190   10.4720   21.6200 C.3   150  HEM150      0.0000
     34  CAD       18.3740   12.3430   23.7770 C.3   150  HEM150      0.0000
     35  CBD       17.5570   12.5470   25.0490 C.3   150  HEM150      0.0000
     36  CGD       17.0920   13.9660   25.1310 C.2   150  HEM150      0.0000
     37  O1D       16.0690   14.2120   25.7920 O.co2 150  HEM150      0.0000
     38  O2D       17.7350   14.8570   24.5300 O.co2 150  HEM150      0.0000
     39  NA        21.2540    8.1970   25.9330 N.2   150  HEM150      0.0000
     40  NB        21.2480    5.4640   25.4420 N.ar  150  HEM150      0.0000
     41  NC        19.1530    5.8630   23.4890 N.2   150  HEM150      0.0000
     42  ND        19.1190    8.6360   23.9620 N.ar  150  HEM150      0.0000
     43 FE         20.1740    7.0500   24.7240 Fe    150  HEM150      0.0000
@<TRIPOS>BOND
     1    28    27    2
     2    27    24    1
     3    33    30    1
     4    24    23    2
     5    24    25    1
     6    26    23    1
     7     4    25    1
     8     4    29    2
     9    23    22    1
    10    25    41    2
    11    30    29   ar
    12    30    31   ar
    13    29    42   ar
    14    22    41    1
    15    22     3    2
    16    41    43    1
    17    31    34    1
    18    31    32   ar
    19    34    35    1
    20    42    32   ar
    21    42    43    1
    22     3    18    1
    23    32     1    2
    24    38    36   ar
    25    43    40    1
    26    43    39    1
    27    35    36    1
    28    18    40   ar
    29    18    17   ar
    30    36    37   ar
    31     1     5    1
    32    40    15   ar
    33    20    17    1
    34    20    21    2
    35    17    16   ar
    36    39     5    2
    37    39     8    1
    38     5     6    1
    39    15    16   ar
    40    15     2    1
    41    16    19    1
    42    13    12   ar
    43    11    12    1
    44    11    10    1
    45     8     2    2
    46     8     7    1
    47     6     7    2
    48     6    10    1
    49    12    14   ar
    50     7     9    1
