@<TRIPOS>MOLECULE
3m1c_XYL_A_1.pdb
 10 9 0 0 0
SMALL
GASTEIGER

@<TRIPOS>ATOM
      1  C1        16.4850   15.0920  122.7810 C.3     1  XYL1        0.2175
      2  C2        15.1520   15.8600  122.8460 C.3     1  XYL1        0.2175
      3  C3        14.3350   15.7470  124.1670 C.3     1  XYL1        0.2175
      4  C4        13.8030   14.3540  124.6060 C.3     1  XYL1        0.2175
      5  C5        12.8630   13.6970  123.5950 C.3     1  XYL1        0.2175
      6  O1        16.3280   13.6940  122.9290 O.3     1  XYL1       -0.2175
      7  O2        15.4490   17.2440  122.6120 O.3     1  XYL1       -0.2175
      8  O3        13.2300   16.6650  124.1380 O.3     1  XYL1       -0.2175
      9  O4        14.8560   13.4510  124.9630 O.3     1  XYL1       -0.2175
     10  O5        12.4540   12.4450  124.1470 O.3     1  XYL1       -0.2175
@<TRIPOS>BOND
     1     7     2    1
     2     1     2    1
     3     1     6    1
     4     2     3    1
     5     5    10    1
     6     5     4    1
     7     8     3    1
     8     3     4    1
     9     4     9    1
