@<TRIPOS>MOLECULE
3m1f_ATP_A_1.pdb
 31 33 0 0 0
SMALL
GASTEIGER

@<TRIPOS>ATOM
      1  PG        18.4320    4.3870   18.0310 P.3   400  ATP400      0.5373
      2  O1G       19.4320    5.2090   18.8050 O.3   400  ATP400     -0.1143
      3  O2G       18.8030    4.2220   16.5800 O.2   400  ATP400     -0.2221
      4  O3G       17.9900    3.1330   18.7290 O.3   400  ATP400     -0.1143
      5  PB        16.2160    5.6180   16.6980 P.3   400  ATP400      0.2277
      6  O1B       16.3670    4.5150   15.6830 O.2   400  ATP400     -0.5168
      7  O2B       14.8210    5.9340   17.1750 O.3   400  ATP400     -0.4368
      8  O3B       17.0960    5.2900   18.0170 O.3   400  ATP400     -0.2258
      9  PA        16.6470    7.7420   14.7860 P.3   400  ATP400      0.2189
     10  O1A       17.6880    7.3500   13.7550 O.2   400  ATP400     -0.5170
     11  O2A       15.1830    7.5900   14.4270 O.3   400  ATP400     -0.4371
     12  O3A       16.9560    6.9690   16.1790 O.3   400  ATP400     -0.2700
     13  O5'       16.9150    9.2790   15.1690 O.3   400  ATP400     -0.3112
     14  C5'       16.1930    9.9180   16.2170 C.3   400  ATP400      0.1813
     15  C4'       17.0760   11.0260   16.7850 C.3   400  ATP400      0.1821
     16  O4'       17.6480   11.8160   15.7350 O.3   400  ATP400     -0.3135
     17  C3'       16.3050   11.9660   17.7000 C.3   400  ATP400      0.2184
     18  O3'       16.9620   11.9780   18.9710 O.3   400  ATP400     -0.2174
     19  C2'       16.4030   13.3300   17.0430 C.3   400  ATP400      0.2570
     20  O2'       16.6560   14.3680   17.9850 O.3   400  ATP400     -0.2130
     21  C1'       17.5910   13.1970   16.1120 C.3   400  ATP400      0.3186
     22  N9        17.4180   14.0990   14.9500 N.pl3 400  ATP400     -0.1439
     23  C8        16.4490   14.0170   14.0170 C.3   400  ATP400      0.3377
     24  N7        16.5830   15.0060   13.0940 N.2   400  ATP400     -0.2095
     25  C5        17.6560   15.7400   13.4400 C.2   400  ATP400      0.2526
     26  C6        18.3550   16.9240   12.9010 C.2   400  ATP400      0.4393
     27  N6        17.9040   17.5280   11.7770 N.pl3 400  ATP400      0.2180
     28  N1        19.4430   17.3780   13.5680 N.2   400  ATP400      0.0021
     29  C2        19.8890   16.7780   14.6860 C.3   400  ATP400      0.5254
     30  N3        19.3040   15.6960   15.2290 N.2   400  ATP400     -0.0055
     31  C4        18.2020   15.1420   14.6670 C.2   400  ATP400      0.3518
@<TRIPOS>BOND
     1    27    26    1
     2    26    25    1
     3    26    28    2
     4    24    25    2
     5    24    23    1
     6    25    31    1
     7    28    29    1
     8    10     9    2
     9    23    22    1
    10    11     9    1
    11    31    22    1
    12    31    30    2
    13    29    30    1
    14     9    13    1
    15     9    12    1
    16    22    21    1
    17    13    14    1
    18     6     5    2
    19    16    21    1
    20    16    15    1
    21    21    19    1
    22    12     5    1
    23    14    15    1
    24     3     1    2
    25     5     7    1
    26     5     8    1
    27    15    17    1
    28    19    17    1
    29    19    20    1
    30    17    18    1
    31     8     1    1
    32     1     4    1
    33     1     2    1
