@<TRIPOS>MOLECULE
3m1i_GTP_A_1.pdb
 32 34 0 0 0
SMALL
GASTEIGER

@<TRIPOS>ATOM
      1  PG       -15.8150  -46.1960  -28.9440 P.3   1177  GTP1177     0.5373
      2  O1G      -17.0290  -46.2580  -28.0540 O.3   1177  GTP1177    -0.1143
      3  O2G      -14.8780  -44.9430  -28.7400 O.3   1177  GTP1177    -0.1143
      4  O3G      -16.1660  -46.4580  -30.4050 O.2   1177  GTP1177    -0.2221
      5  O3B      -14.9740  -47.4300  -28.2670 O.3   1177  GTP1177    -0.2258
      6  PB       -13.4100  -47.8230  -28.5910 P.3   1177  GTP1177     0.2277
      7  O1B      -13.3640  -48.8920  -29.6470 O.2   1177  GTP1177    -0.5168
      8  O2B      -12.6670  -46.5430  -28.9620 O.3   1177  GTP1177    -0.4368
      9  O3A      -12.9890  -48.3910  -27.2580 O.3   1177  GTP1177    -0.2700
     10  PA       -11.7820  -48.0050  -26.2910 P.3   1177  GTP1177     0.2189
     11  O1A      -10.4390  -48.1490  -26.9440 O.2   1177  GTP1177    -0.5170
     12  O2A      -12.0320  -46.6830  -25.5660 O.3   1177  GTP1177    -0.4371
     13  O5'      -11.7580  -49.0300  -25.1580 O.3   1177  GTP1177    -0.3112
     14  C5'      -12.0440  -50.3650  -25.1490 C.3   1177  GTP1177     0.1813
     15  C4'      -11.8500  -50.9560  -23.7520 C.3   1177  GTP1177     0.1799
     16  O4'      -11.1700  -52.1990  -24.0110 O.3   1177  GTP1177    -0.3326
     17  C3'      -10.9250  -50.2010  -22.7740 C.3   1177  GTP1177     0.2158
     18  O3'      -11.2860  -50.5730  -21.4210 O.3   1177  GTP1177    -0.2175
     19  C2'       -9.5760  -50.8910  -22.9750 C.3   1177  GTP1177     0.2310
     20  O2'       -8.8410  -50.9180  -21.7920 O.3   1177  GTP1177    -0.2158
     21  C1'       -9.9380  -52.3390  -23.3050 C.3   1177  GTP1177     0.2293
     22  N9        -8.9490  -52.9010  -24.2880 N.pl3 1177  GTP1177    -0.2354
     23  C8        -8.5350  -52.3160  -25.4770 C.3   1177  GTP1177     0.2246
     24  N7        -7.6490  -53.1060  -26.0940 N.2   1177  GTP1177    -0.2322
     25  C5        -7.5980  -54.2610  -25.3620 C.2   1177  GTP1177     0.2182
     26  C6        -6.8740  -55.4180  -25.5110 C.1   1177  GTP1177     0.2372
     27  O6        -6.1030  -55.6680  -26.4670 O.2   1177  GTP1177    -0.2069
     28  N1        -6.9610  -56.3770  -24.5560 N.2   1177  GTP1177    -0.2485
     29  C2        -7.8070  -56.2460  -23.4180 C.1   1177  GTP1177     0.2531
     30  N2        -7.8750  -57.2890  -22.5690 N.pl3 1177  GTP1177    -0.0226
     31  N3        -8.5120  -55.1000  -23.2460 N.2   1177  GTP1177    -0.3074
     32  C4        -8.4050  -54.1220  -24.2060 C.2   1177  GTP1177     0.2300
@<TRIPOS>BOND
     1     4     1    2
     2     7     6    2
     3     8     6    1
     4     1     3    1
     5     1     5    1
     6     1     2    1
     7     6     5    1
     8     6     9    1
     9     9    10    1
    10    11    10    2
    11    27    26    2
    12    10    12    1
    13    10    13    1
    14    24    23    1
    15    24    25    2
    16    26    25    1
    17    26    28    2
    18    23    22    1
    19    25    32    1
    20    13    14    1
    21    14    15    1
    22    28    29    2
    23    22    32    1
    24    22    21    1
    25    32    31    2
    26    16    15    1
    27    16    21    1
    28    15    17    1
    29    29    31    2
    30    29    30    1
    31    21    19    1
    32    19    17    1
    33    19    20    1
    34    17    18    1
