@<TRIPOS>MOLECULE
3m1o_CJZ_A_1.pdb
 19 20 0 0 0
SMALL
GASTEIGER

@<TRIPOS>ATOM
      1  OAA        0.9740   -0.5410   -3.6250 O.co2 128  CJZ128     -0.2405
      2  OAB       -0.0040    0.0280   -1.7240 O.co2 128  CJZ128     -0.2405
      3  OAC        0.1060    0.1390  -11.2520 O.3   128  CJZ128     -0.2848
      4 CLAD       -0.3340    2.7730   -9.9930 Cl    128  CJZ128     -0.0788
      5 CLAE        0.4410   -2.5730  -10.1340 Cl    128  CJZ128     -0.0788
      6  CAF       -3.0640    1.9980   -5.1760 C.ar  128  CJZ128      0.0013
      7  CAG       -3.0370    2.0720   -3.7880 C.ar  128  CJZ128      0.0003
      8  CAH       -2.0830    1.2840   -5.8530 C.ar  128  CJZ128      0.0167
      9  CAI       -2.0290    1.4310   -3.0770 C.ar  128  CJZ128      0.0079
     10  CAJ       -0.2190    1.2170   -7.7800 C.ar  128  CJZ128      0.0312
     11  CAK        0.1270   -1.1650   -7.8430 C.ar  128  CJZ128      0.0312
     12  NAL       -0.1350   -0.0410   -5.7900 N.pl3 128  CJZ128     -0.2122
     13  CAM        0.0620    0.0120   -2.9720 C.2   128  CJZ128      0.3890
     14  CAN       -0.0770    0.0030   -7.1180 C.ar  128  CJZ128      0.0724
     15  CAO       -0.1570    1.2630   -9.1680 C.ar  128  CJZ128      0.0986
     16  CAP        0.1880   -1.1190   -9.2310 C.ar  128  CJZ128      0.0986
     17  CAQ        0.0460    0.0950   -9.8940 C.ar  128  CJZ128      0.2166
     18  CAR       -1.0740    0.6430   -5.1420 C.ar  128  CJZ128      0.0768
     19  CAS       -1.0470    0.7170   -3.7540 C.ar  128  CJZ128      0.0950
@<TRIPOS>BOND
     1     3    17    1
     2     5    16    1
     3     4    15    1
     4    17    16   ar
     5    17    15   ar
     6    16    11   ar
     7    15    10   ar
     8    11    14   ar
     9    10    14   ar
    10    14    12    1
    11     8     6   ar
    12     8    18   ar
    13    12    18    1
    14     6     7   ar
    15    18    19   ar
    16     7     9   ar
    17    19     9   ar
    18    19    13    1
    19     1    13   ar
    20    13     2   ar
