@<TRIPOS>MOLECULE
3m1s_DW1_A_1.pdb
 31 37 0 0 0
SMALL
GASTEIGER

@<TRIPOS>ATOM
      1  O11       42.6720   79.6840   30.1730 O.3   421  DW1421      0.0000
      2  C10       43.6010   80.0090   30.7560 C.3   421  DW1421      0.0000
      3 RU         45.0650   80.5500   31.7320 Ru    421  DW1421      0.0000
      4  C12       45.5520   82.4750   30.8590 C.2   421  DW1421      0.0000
      5  C13       46.0240   81.4430   30.0160 C.3   421  DW1421      0.0000
      6  C14       46.9990   80.7230   30.7110 C.2   421  DW1421      0.0000
      7  C16       47.1400   81.3190   31.9730 C.2   421  DW1421      0.0000
      8  C17       46.2530   82.4000   32.0710 C.2   421  DW1421      0.0000
      9  N20       45.4500   78.5910   32.5090 N.pl3 421  DW1421      0.0000
     10  C6        46.1920   77.6250   31.9590 C.2   421  DW1421      0.0000
     11  C5        46.3950   76.4150   32.6290 C.2   421  DW1421      0.0000
     12  C4        45.8080   76.2460   33.8810 C.2   421  DW1421      0.0000
     13  N18       43.9740   80.6570   33.5550 N.pl3 421  DW1421      0.0000
     14  C22       43.2040   81.4500   34.3420 C.3   421  DW1421      0.0000
     15  C27       42.8980   80.7510   35.5150 C.2   421  DW1421      0.0000
     16  C26       42.1260   81.3290   36.5250 C.2   421  DW1421      0.0000
     17  C25       41.6420   82.6180   36.3090 C.2   421  DW1421      0.0000
     18  C24       41.9780   83.2830   35.1230 C.2   421  DW1421      0.0000
     19  C23       42.7610   82.7150   34.1170 C.2   421  DW1421      0.0000
     20  O15       40.8550   83.2010   37.2580 O.2   421  DW1421      0.0000
     21  C28       43.5090   79.5030   35.4230 C.ar  421  DW1421      0.0000
     22  C21       44.1580   79.4790   34.2200 C.ar  421  DW1421      0.0000
     23  C7        44.8970   78.4320   33.7260 C.ar  421  DW1421      0.0000
     24  C3        45.0370   77.2710   34.4460 C.ar  421  DW1421      0.0000
     25  C29       43.6340   78.3430   36.1860 C.ar  421  DW1421      0.0000
     26  C2        44.3890   77.2570   35.6880 C.ar  421  DW1421      0.0000
     27  C30       43.1420   77.9460   37.4430 C.1   421  DW1421      0.0000
     28  O8        42.4310   78.6290   38.1740 O.2   421  DW1421      0.0000
     29  N19       43.5520   76.6670   37.7710 N.2   421  DW1421      0.0000
     30  C1        44.3060   76.2950   36.6820 C.1   421  DW1421      0.0000
     31  O9        44.8270   75.2170   36.6500 O.2   421  DW1421      0.0000
@<TRIPOS>BOND
     1     5     6    1
     2     5     4    1
     3     5     3    1
     4     1     2    1
     5     6     7    2
     6     2     3    1
     7     4     8    2
     8     3     9    1
     9     3    13    1
    10    10     9    1
    11    10    11    2
    12     7     8    1
    13     9    23    1
    14    11    12    1
    15    13    22    1
    16    13    14    1
    17    23    22   ar
    18    23    24   ar
    19    12    24    2
    20    19    14    1
    21    19    18    2
    22    22    21   ar
    23    14    15    1
    24    24    26   ar
    25    18    17    1
    26    21    15    2
    27    21    25   ar
    28    15    16    1
    29    26    25   ar
    30    26    30    1
    31    25    27    1
    32    17    16    2
    33    17    20    1
    34    31    30    2
    35    30    29    2
    36    27    29    2
    37    27    28    2
