@<TRIPOS>MOLECULE
3m1v_TP7_A_1.pdb
 21 20 0 0 0
SMALL
GASTEIGER

@<TRIPOS>ATOM
      1  N         23.5530   37.6800  -18.1650 N.am  553  TP7553     -0.1930
      2  P         22.2220   42.1330  -17.8190 P.3   553  TP7553      0.5326
      3  O1P       23.4910   42.9260  -17.4850 O.3   553  TP7553     -0.1145
      4  O2P       21.6080   42.4110  -19.1820 O.2   553  TP7553     -0.2224
      5  O3P       21.3010   42.3330  -16.7110 O.3   553  TP7553     -0.1145
      6  O4P       22.6200   40.5740  -17.7800 O.3   553  TP7553     -0.2704
      7  CB        21.7240   39.5040  -18.1540 C.3   553  TP7553      0.1572
      8  C         23.2060   39.1020  -20.0790 C.2   553  TP7553      0.3867
      9  O         22.5340   39.2850  -21.1040 O.co2 553  TP7553     -0.2437
     10  OXT       24.3860   39.4630  -19.9080 O.co2 553  TP7553     -0.2437
     11  CA        22.5390   38.4420  -18.9150 C.3   553  TP7553      0.2251
     12  CG        21.0640   38.8740  -16.9060 C.3   553  TP7553      0.0351
     13  O1        22.2240   35.8690  -17.8150 O.2   553  TP7553     -0.2733
     14  C1        23.2910   36.4560  -17.6840 C.2   553  TP7553      0.2419
     15  C2        24.4440   35.7960  -16.9710 C.3   553  TP7553      0.0868
     16  C3        24.2350   34.3180  -16.9000 C.3   553  TP7553      0.0096
     17  C4        25.5660   33.6110  -16.6620 C.3   553  TP7553      0.0005
     18  C5        26.1930   33.9280  -15.3170 C.3   553  TP7553      0.0009
     19  C6        25.2560   33.3750  -14.2380 C.3   553  TP7553      0.0125
     20  C7        25.1200   31.8550  -14.2250 C.3   553  TP7553      0.0687
     21  S7        24.0060   31.2400  -12.9010 S.3   553  TP7553     -0.0821
@<TRIPOS>BOND
     1     9     8   ar
     2     8    10   ar
     3     8    11    1
     4     4     2    2
     5    11     1    1
     6    11     7    1
     7     1    14   am
     8     7     6    1
     9     7    12    1
    10     2     6    1
    11     2     3    1
    12     2     5    1
    13    13    14    2
    14    14    15    1
    15    15    16    1
    16    16    17    1
    17    17    18    1
    18    18    19    1
    19    19    20    1
    20    20    21    1
