@<TRIPOS>MOLECULE
3m1z_BMP_A_1.pdb
 22 23 0 0 0
SMALL
GASTEIGER

@<TRIPOS>ATOM
      1  P         25.0360   -2.3230    8.3140 P.3   229  BMP229      0.5327
      2  OP1       24.2780   -3.0740    7.2830 O.2   229  BMP229     -0.2224
      3  OP2       25.7780   -3.2760    9.3480 O.3   229  BMP229     -0.1145
      4  OP3       26.0350   -1.2910    7.6760 O.3   229  BMP229     -0.1145
      5  O5'       24.0330   -1.5370    9.2970 O.3   229  BMP229     -0.2675
      6  C5'       22.8610   -0.9350    8.7430 C.3   229  BMP229      0.1859
      7  C4'       22.2090   -0.1730    9.9070 C.3   229  BMP229      0.1801
      8  O4'       21.1420    0.6580    9.4040 O.3   229  BMP229     -0.3319
      9  C3'       21.5690   -1.0980   10.9570 C.3   229  BMP229      0.2158
     10  O3'       21.5380   -0.4530   12.2480 O.3   229  BMP229     -0.2175
     11  C2'       20.1270   -1.2430   10.4220 C.3   229  BMP229      0.2320
     12  O2'       19.2490   -1.5230   11.5120 O.3   229  BMP229     -0.2157
     13  C1'       19.8580    0.1640    9.8480 C.3   229  BMP229      0.2425
     14  N1        18.9080    0.2070    8.7300 N.am  229  BMP229     -0.1473
     15  C2        19.0810   -0.5140    7.6060 C.1   229  BMP229      0.2863
     16  O2        19.9940   -1.3270    7.5120 O.2   229  BMP229     -0.1918
     17  N3        18.1530   -0.4480    6.6350 N.2   229  BMP229     -0.2489
     18  C4        17.1700    0.4730    6.6430 C.1   229  BMP229      0.2018
     19  O4        16.3820    0.5150    5.7000 O.2   229  BMP229     -0.2129
     20  C5        16.9850    1.2530    7.7970 C.3   229  BMP229      0.2213
     21  C6        17.9250    1.1530    8.7810 C.2   229  BMP229      0.2591
     22  O1        17.9150    1.9960    9.8180 O.2   229  BMP229     -0.2725
@<TRIPOS>BOND
     1    19    18    2
     2    17    18    2
     3    17    15    2
     4    18    20    1
     5     2     1    2
     6    16    15    2
     7    15    14   am
     8     4     1    1
     9    20    21    1
    10     1     5    1
    11     1     3    1
    12    14    21   am
    13    14    13    1
    14     6     5    1
    15     6     7    1
    16    21    22    2
    17     8    13    1
    18     8     7    1
    19    13    11    1
    20     7     9    1
    21    11     9    1
    22    11    12    1
    23     9    10    1
