@<TRIPOS>MOLECULE
3m23_HEM_A_1.pdb
 43 50 0 0 0
SMALL
GASTEIGER

@<TRIPOS>ATOM
      1  CHA       28.2030   93.3590   49.7630 C.2   296  HEM296      0.0000
      2  CHB       30.8290   93.2570   53.8800 C.2   296  HEM296      0.0000
      3  CHC       28.5730   89.1870   55.2240 C.2   296  HEM296      0.0000
      4  CHD       25.6790   89.4850   51.3470 C.2   296  HEM296      0.0000
      5  C1A       29.0750   93.6950   50.7800 C.2   296  HEM296      0.0000
      6  C2A       29.9120   94.8510   50.7920 C.2   296  HEM296      0.0000
      7  C3A       30.6680   94.8480   51.9390 C.2   296  HEM296      0.0000
      8  C4A       30.3060   93.6280   52.6300 C.2   296  HEM296      0.0000
      9  CMA       31.7000   95.8650   52.3900 C.3   296  HEM296      0.0000
     10  CAA       29.9550   95.8470   49.6600 C.3   296  HEM296      0.0000
     11  CBA       28.8200   96.8830   49.8470 C.3   296  HEM296      0.0000
     12  CGA       28.9000   97.8330   48.6470 C.2   296  HEM296      0.0000
     13  O1A       29.9470   98.5410   48.4800 O.co2 296  HEM296      0.0000
     14  O2A       27.8960   97.8420   47.9040 O.co2 296  HEM296      0.0000
     15  C1B       30.5060   92.1100   54.5890 C.ar  296  HEM296      0.0000
     16  C2B       31.1140   91.6580   55.7980 C.ar  296  HEM296      0.0000
     17  C3B       30.5320   90.4900   56.1490 C.ar  296  HEM296      0.0000
     18  C4B       29.4950   90.2180   55.1620 C.ar  296  HEM296      0.0000
     19  CMB       32.1910   92.4670   56.5050 C.3   296  HEM296      0.0000
     20  CAB       30.7960   89.6500   57.2940 C.3   296  HEM296      0.0000
     21  CBB       32.0580   89.4950   57.9170 C.3   296  HEM296      0.0000
     22  C1C       27.5240   88.9560   54.3240 C.2   296  HEM296      0.0000
     23  C2C       26.4850   87.9610   54.4840 C.2   296  HEM296      0.0000
     24  C3C       25.6640   88.0600   53.3990 C.2   296  HEM296      0.0000
     25  C4C       26.1750   89.1160   52.5800 C.2   296  HEM296      0.0000
     26  CMC       26.4150   87.1120   55.7350 C.3   296  HEM296      0.0000
     27  CAC       24.3930   87.4220   53.1480 C.3   296  HEM296      0.0000
     28  CBC       24.1730   86.0670   53.3920 C.3   296  HEM296      0.0000
     29  C1D       26.1770   90.5260   50.5270 C.ar  296  HEM296      0.0000
     30  C2D       25.7450   90.8170   49.1760 C.ar  296  HEM296      0.0000
     31  C3D       26.4810   91.8680   48.7210 C.ar  296  HEM296      0.0000
     32  C4D       27.3390   92.2600   49.8140 C.ar  296  HEM296      0.0000
     33  CMD       24.7060   89.9790   48.4390 C.3   296  HEM296      0.0000
     34  CAD       26.4260   92.5620   47.3790 C.3   296  HEM296      0.0000
     35  CBD       25.4630   93.7520   47.4410 C.3   296  HEM296      0.0000
     36  CGD       25.3340   94.4760   46.1090 C.2   296  HEM296      0.0000
     37  O1D       24.6140   95.5350   46.0980 O.co2 296  HEM296      0.0000
     38  O2D       25.8610   94.0540   45.0490 O.co2 296  HEM296      0.0000
     39  NA        29.3230   92.9580   51.9450 N.2   296  HEM296      0.0000
     40  NB        29.5030   91.2130   54.2000 N.ar  296  HEM296      0.0000
     41  NC        27.3230   89.6860   53.1570 N.2   296  HEM296      0.0000
     42  ND        27.2150   91.3890   50.8840 N.ar  296  HEM296      0.0000
     43 FE         28.2820   91.3490   52.5720 Fe    296  HEM296      0.0000
@<TRIPOS>BOND
     1    38    36   ar
     2    37    36   ar
     3    36    35    1
     4    34    35    1
     5    34    31    1
     6    14    12   ar
     7    33    30    1
     8    13    12   ar
     9    12    11    1
    10    31    30   ar
    11    31    32   ar
    12    30    29   ar
    13    10    11    1
    14    10     6    1
    15     1    32    2
    16     1     5    1
    17    32    42   ar
    18    29    42   ar
    19    29     4    2
    20     5     6    1
    21     5    39    2
    22     6     7    2
    23    42    43    1
    24     4    25    1
    25     7     9    1
    26     7     8    1
    27    39    43    1
    28    39     8    1
    29    43    41    1
    30    43    40    1
    31    25    41    2
    32    25    24    1
    33     8     2    2
    34    27    28    1
    35    27    24    1
    36    41    22    1
    37    24    23    2
    38     2    15    1
    39    40    15   ar
    40    40    18   ar
    41    22    23    1
    42    22     3    2
    43    23    26    1
    44    15    16   ar
    45    18     3    1
    46    18    17   ar
    47    16    17   ar
    48    16    19    1
    49    17    20    1
    50    20    21    1
