@<TRIPOS>MOLECULE
3m25_HEM_A_1.pdb
 43 50 0 0 0
SMALL
GASTEIGER

@<TRIPOS>ATOM
      1  CHA       28.2050   93.0560   49.4490 C.2   296  HEM296      0.0000
      2  CHB       30.8090   92.9570   53.5560 C.2   296  HEM296      0.0000
      3  CHC       28.5600   88.9000   54.8960 C.2   296  HEM296      0.0000
      4  CHD       25.6560   89.1850   51.0240 C.2   296  HEM296      0.0000
      5  C1A       29.0730   93.3830   50.4580 C.2   296  HEM296      0.0000
      6  C2A       29.9020   94.5460   50.4860 C.2   296  HEM296      0.0000
      7  C3A       30.6870   94.5430   51.6130 C.2   296  HEM296      0.0000
      8  C4A       30.2990   93.3460   52.3180 C.2   296  HEM296      0.0000
      9  CMA       31.7170   95.5730   52.0710 C.3   296  HEM296      0.0000
     10  CAA       29.9270   95.5300   49.3620 C.3   296  HEM296      0.0000
     11  CBA       28.8250   96.5720   49.5480 C.3   296  HEM296      0.0000
     12  CGA       28.8890   97.5200   48.3570 C.2   296  HEM296      0.0000
     13  O1A       29.9320   98.2320   48.1860 O.co2 296  HEM296      0.0000
     14  O2A       27.8950   97.5470   47.6140 O.co2 296  HEM296      0.0000
     15  C1B       30.4920   91.8070   54.2550 C.ar  296  HEM296      0.0000
     16  C2B       31.1040   91.3620   55.4610 C.ar  296  HEM296      0.0000
     17  C3B       30.5220   90.1970   55.8060 C.ar  296  HEM296      0.0000
     18  C4B       29.4740   89.9220   54.8240 C.ar  296  HEM296      0.0000
     19  CMB       32.1770   92.1690   56.1670 C.3   296  HEM296      0.0000
     20  CAB       30.7660   89.3530   56.9470 C.3   296  HEM296      0.0000
     21  CBB       32.0280   89.2000   57.5860 C.3   296  HEM296      0.0000
     22  C1C       27.5240   88.6550   53.9810 C.2   296  HEM296      0.0000
     23  C2C       26.4820   87.6680   54.1570 C.2   296  HEM296      0.0000
     24  C3C       25.6410   87.7810   53.0980 C.2   296  HEM296      0.0000
     25  C4C       26.1660   88.8300   52.2570 C.2   296  HEM296      0.0000
     26  CMC       26.4070   86.8330   55.4160 C.3   296  HEM296      0.0000
     27  CAC       24.3780   87.1350   52.8350 C.3   296  HEM296      0.0000
     28  CBC       24.1810   85.7870   53.0820 C.3   296  HEM296      0.0000
     29  C1D       26.1660   90.2300   50.2190 C.ar  296  HEM296      0.0000
     30  C2D       25.7270   90.5250   48.8650 C.ar  296  HEM296      0.0000
     31  C3D       26.4580   91.5900   48.4380 C.ar  296  HEM296      0.0000
     32  C4D       27.3340   91.9600   49.5300 C.ar  296  HEM296      0.0000
     33  CMD       24.6830   89.6920   48.1520 C.3   296  HEM296      0.0000
     34  CAD       26.4120   92.2710   47.0980 C.3   296  HEM296      0.0000
     35  CBD       25.4680   93.4700   47.1460 C.3   296  HEM296      0.0000
     36  CGD       25.3230   94.1940   45.8230 C.2   296  HEM296      0.0000
     37  O1D       24.6130   95.2490   45.8190 O.co2 296  HEM296      0.0000
     38  O2D       25.8570   93.7730   44.7760 O.co2 296  HEM296      0.0000
     39  NA        29.3200   92.6600   51.6220 N.2   296  HEM296      0.0000
     40  NB        29.4940   90.9180   53.8740 N.ar  296  HEM296      0.0000
     41  NC        27.3170   89.4020   52.8240 N.2   296  HEM296      0.0000
     42  ND        27.2020   91.1000   50.5840 N.ar  296  HEM296      0.0000
     43 FE         28.2820   91.0530   52.2500 Fe    296  HEM296      0.0000
@<TRIPOS>BOND
     1    38    36   ar
     2    37    36   ar
     3    36    35    1
     4    34    35    1
     5    34    31    1
     6    14    12   ar
     7    33    30    1
     8    13    12   ar
     9    12    11    1
    10    31    30   ar
    11    31    32   ar
    12    30    29   ar
    13    10    11    1
    14    10     6    1
    15     1    32    2
    16     1     5    1
    17    32    42   ar
    18    29    42   ar
    19    29     4    2
    20     5     6    1
    21     5    39    2
    22     6     7    2
    23    42    43    1
    24     4    25    1
    25     7     9    1
    26     7     8    1
    27    39    43    1
    28    39     8    1
    29    43    41    1
    30    43    40    1
    31    25    41    2
    32    25    24    1
    33     8     2    2
    34    41    22    1
    35    27    28    1
    36    27    24    1
    37    24    23    2
    38     2    15    1
    39    40    15   ar
    40    40    18   ar
    41    22    23    1
    42    22     3    2
    43    23    26    1
    44    15    16   ar
    45    18     3    1
    46    18    17   ar
    47    16    17   ar
    48    16    19    1
    49    17    20    1
    50    20    21    1
