@<TRIPOS>MOLECULE
3m26_HEM_A_1.pdb
 43 50 0 0 0
SMALL
GASTEIGER

@<TRIPOS>ATOM
      1  CHA       28.1570   93.2230   49.6150 C.2   296  HEM296      0.0000
      2  CHB       30.7660   93.1200   53.7280 C.2   296  HEM296      0.0000
      3  CHC       28.5200   89.0490   55.0730 C.2   296  HEM296      0.0000
      4  CHD       25.6190   89.3500   51.1930 C.2   296  HEM296      0.0000
      5  C1A       29.0220   93.5510   50.6430 C.2   296  HEM296      0.0000
      6  C2A       29.8500   94.7080   50.6630 C.2   296  HEM296      0.0000
      7  C3A       30.6370   94.7030   51.7870 C.2   296  HEM296      0.0000
      8  C4A       30.2690   93.4880   52.4780 C.2   296  HEM296      0.0000
      9  CMA       31.6740   95.7230   52.2390 C.3   296  HEM296      0.0000
     10  CAA       29.8860   95.7030   49.5340 C.3   296  HEM296      0.0000
     11  CBA       28.7760   96.7480   49.7250 C.3   296  HEM296      0.0000
     12  CGA       28.8620   97.6850   48.5350 C.2   296  HEM296      0.0000
     13  O1A       29.8920   98.4060   48.3570 O.co2 296  HEM296      0.0000
     14  O2A       27.8650   97.7140   47.7760 O.co2 296  HEM296      0.0000
     15  C1B       30.4460   91.9740   54.4380 C.ar  296  HEM296      0.0000
     16  C2B       31.0600   91.5210   55.6440 C.ar  296  HEM296      0.0000
     17  C3B       30.4730   90.3640   55.9970 C.ar  296  HEM296      0.0000
     18  C4B       29.4430   90.0700   54.9960 C.ar  296  HEM296      0.0000
     19  CMB       32.1370   92.3360   56.3500 C.3   296  HEM296      0.0000
     20  CAB       30.7270   89.5310   57.1450 C.3   296  HEM296      0.0000
     21  CBB       31.9820   89.3790   57.7920 C.3   296  HEM296      0.0000
     22  C1C       27.4710   88.8330   54.1660 C.2   296  HEM296      0.0000
     23  C2C       26.4450   87.8330   54.3470 C.2   296  HEM296      0.0000
     24  C3C       25.6040   87.9400   53.2800 C.2   296  HEM296      0.0000
     25  C4C       26.1210   88.9810   52.4300 C.2   296  HEM296      0.0000
     26  CMC       26.3710   86.9850   55.6010 C.3   296  HEM296      0.0000
     27  CAC       24.3510   87.2780   53.0180 C.3   296  HEM296      0.0000
     28  CBC       24.1360   85.9220   53.2430 C.3   296  HEM296      0.0000
     29  C1D       26.1360   90.3840   50.3790 C.ar  296  HEM296      0.0000
     30  C2D       25.6910   90.6810   49.0250 C.ar  296  HEM296      0.0000
     31  C3D       26.4120   91.7440   48.5930 C.ar  296  HEM296      0.0000
     32  C4D       27.2800   92.1270   49.6950 C.ar  296  HEM296      0.0000
     33  CMD       24.6500   89.8400   48.3130 C.3   296  HEM296      0.0000
     34  CAD       26.3810   92.4440   47.2480 C.3   296  HEM296      0.0000
     35  CBD       25.4270   93.6350   47.3120 C.3   296  HEM296      0.0000
     36  CGD       25.2800   94.3520   45.9830 C.2   296  HEM296      0.0000
     37  O1D       24.5750   95.4120   45.9640 O.co2 296  HEM296      0.0000
     38  O2D       25.8140   93.9400   44.9270 O.co2 296  HEM296      0.0000
     39  NA        29.2700   92.8080   51.7930 N.2   296  HEM296      0.0000
     40  NB        29.4460   91.0880   54.0520 N.ar  296  HEM296      0.0000
     41  NC        27.2720   89.5690   53.0020 N.2   296  HEM296      0.0000
     42  ND        27.1570   91.2590   50.7560 N.ar  296  HEM296      0.0000
     43 FE         28.2420   91.2070   52.4200 Fe    296  HEM296      0.0000
@<TRIPOS>BOND
     1    38    36   ar
     2    37    36   ar
     3    36    35    1
     4    34    35    1
     5    34    31    1
     6    14    12   ar
     7    33    30    1
     8    13    12   ar
     9    12    11    1
    10    31    30   ar
    11    31    32   ar
    12    30    29   ar
    13    10    11    1
    14    10     6    1
    15     1    32    2
    16     1     5    1
    17    32    42   ar
    18    29    42   ar
    19    29     4    2
    20     5     6    1
    21     5    39    2
    22     6     7    2
    23    42    43    1
    24     4    25    1
    25     7     9    1
    26     7     8    1
    27    39    43    1
    28    39     8    1
    29    43    41    1
    30    43    40    1
    31    25    41    2
    32    25    24    1
    33     8     2    2
    34    41    22    1
    35    27    28    1
    36    27    24    1
    37    24    23    2
    38     2    15    1
    39    40    15   ar
    40    40    18   ar
    41    22    23    1
    42    22     3    2
    43    23    26    1
    44    15    16   ar
    45    18     3    1
    46    18    17   ar
    47    16    17   ar
    48    16    19    1
    49    17    20    1
    50    20    21    1
