@<TRIPOS>MOLECULE
3m27_HEM_A_1.pdb
 43 50 0 0 0
SMALL
GASTEIGER

@<TRIPOS>ATOM
      1  CHA       28.4220   93.8550   50.4450 C.2   296  HEM296      0.0000
      2  CHB       31.0520   93.7290   54.5850 C.2   296  HEM296      0.0000
      3  CHC       28.7820   89.6520   55.9640 C.2   296  HEM296      0.0000
      4  CHD       25.8670   89.9670   52.0360 C.2   296  HEM296      0.0000
      5  C1A       29.2990   94.1790   51.4810 C.2   296  HEM296      0.0000
      6  C2A       30.1310   95.3470   51.4880 C.2   296  HEM296      0.0000
      7  C3A       30.9190   95.3370   52.6200 C.2   296  HEM296      0.0000
      8  C4A       30.5430   94.1290   53.3380 C.2   296  HEM296      0.0000
      9  CMA       31.9520   96.3730   53.0770 C.3   296  HEM296      0.0000
     10  CAA       30.1590   96.3380   50.3460 C.3   296  HEM296      0.0000
     11  CBA       29.0710   97.4240   50.5400 C.3   296  HEM296      0.0000
     12  CGA       29.1320   98.3580   49.3400 C.2   296  HEM296      0.0000
     13  O1A       30.1700   99.0750   49.1390 O.co2 296  HEM296      0.0000
     14  O2A       28.1380   98.3990   48.5580 O.co2 296  HEM296      0.0000
     15  C1B       30.7240   92.5880   55.3210 C.ar  296  HEM296      0.0000
     16  C2B       31.3500   92.1440   56.5400 C.ar  296  HEM296      0.0000
     17  C3B       30.7600   90.9680   56.8890 C.ar  296  HEM296      0.0000
     18  C4B       29.7120   90.6860   55.8810 C.ar  296  HEM296      0.0000
     19  CMB       32.4420   92.9420   57.2500 C.3   296  HEM296      0.0000
     20  CAB       31.0130   90.1390   58.0570 C.3   296  HEM296      0.0000
     21  CBB       32.2630   89.9950   58.7280 C.3   296  HEM296      0.0000
     22  C1C       27.7320   89.4390   55.0310 C.2   296  HEM296      0.0000
     23  C2C       26.6970   88.4440   55.2070 C.2   296  HEM296      0.0000
     24  C3C       25.8510   88.5430   54.1380 C.2   296  HEM296      0.0000
     25  C4C       26.3570   89.6030   53.2950 C.2   296  HEM296      0.0000
     26  CMC       26.6380   87.5990   56.4820 C.3   296  HEM296      0.0000
     27  CAC       24.5950   87.8660   53.8730 C.3   296  HEM296      0.0000
     28  CBC       24.3710   86.5220   54.1200 C.3   296  HEM296      0.0000
     29  C1D       26.3760   91.0170   51.2090 C.ar  296  HEM296      0.0000
     30  C2D       25.9360   91.3070   49.8320 C.ar  296  HEM296      0.0000
     31  C3D       26.6770   92.3640   49.3820 C.ar  296  HEM296      0.0000
     32  C4D       27.5490   92.7370   50.4920 C.ar  296  HEM296      0.0000
     33  CMD       24.8900   90.4580   49.1120 C.3   296  HEM296      0.0000
     34  CAD       26.6050   93.0740   48.0340 C.3   296  HEM296      0.0000
     35  CBD       25.6480   94.2750   48.0670 C.3   296  HEM296      0.0000
     36  CGD       25.5150   94.9900   46.7350 C.2   296  HEM296      0.0000
     37  O1D       24.8090   96.0610   46.7270 O.co2 296  HEM296      0.0000
     38  O2D       26.0510   94.5870   45.6660 O.co2 296  HEM296      0.0000
     39  NA        29.5560   93.4440   52.6430 N.2   296  HEM296      0.0000
     40  NB        29.7260   91.6910   54.9250 N.ar  296  HEM296      0.0000
     41  NC        27.5290   90.1760   53.8640 N.2   296  HEM296      0.0000
     42  ND        27.4180   91.8840   51.5810 N.ar  296  HEM296      0.0000
     43 FE         28.5120   91.8270   53.2680 Fe    296  HEM296      0.0000
@<TRIPOS>BOND
     1    38    36   ar
     2    37    36   ar
     3    36    35    1
     4    34    35    1
     5    34    31    1
     6    14    12   ar
     7    33    30    1
     8    13    12   ar
     9    12    11    1
    10    31    30   ar
    11    31    32   ar
    12    30    29   ar
    13    10    11    1
    14    10     6    1
    15     1    32    2
    16     1     5    1
    17    32    42   ar
    18    29    42   ar
    19    29     4    2
    20     5     6    1
    21     5    39    2
    22     6     7    2
    23    42    43    1
    24     4    25    1
    25     7     9    1
    26     7     8    1
    27    39    43    1
    28    39     8    1
    29    43    41    1
    30    43    40    1
    31    25    41    2
    32    25    24    1
    33     8     2    2
    34    41    22    1
    35    27    28    1
    36    27    24    1
    37    24    23    2
    38     2    15    1
    39    40    15   ar
    40    40    18   ar
    41    22    23    1
    42    22     3    2
    43    23    26    1
    44    15    16   ar
    45    18     3    1
    46    18    17   ar
    47    16    17   ar
    48    16    19    1
    49    17    20    1
    50    20    21    1
