@<TRIPOS>MOLECULE
3m28_HEM_A_1.pdb
 43 50 0 0 0
SMALL
GASTEIGER

@<TRIPOS>ATOM
      1  CHA       28.1030   93.0760   49.4490 C.2   296  HEM296      0.0000
      2  CHB       30.7250   92.9540   53.5450 C.2   296  HEM296      0.0000
      3  CHC       28.4720   88.9030   54.8910 C.2   296  HEM296      0.0000
      4  CHD       25.5830   89.1990   51.0160 C.2   296  HEM296      0.0000
      5  C1A       28.9750   93.3950   50.4640 C.2   296  HEM296      0.0000
      6  C2A       29.7970   94.5570   50.4930 C.2   296  HEM296      0.0000
      7  C3A       30.5900   94.5450   51.6140 C.2   296  HEM296      0.0000
      8  C4A       30.2160   93.3290   52.2980 C.2   296  HEM296      0.0000
      9  CMA       31.6190   95.5730   52.0500 C.3   296  HEM296      0.0000
     10  CAA       29.8400   95.5420   49.3580 C.3   296  HEM296      0.0000
     11  CBA       28.7340   96.5880   49.5600 C.3   296  HEM296      0.0000
     12  CGA       28.8090   97.5370   48.3830 C.2   296  HEM296      0.0000
     13  O1A       29.8380   98.2420   48.1910 O.co2 296  HEM296      0.0000
     14  O2A       27.8170   97.5590   47.6200 O.co2 296  HEM296      0.0000
     15  C1B       30.4060   91.8060   54.2450 C.ar  296  HEM296      0.0000
     16  C2B       31.0090   91.3620   55.4540 C.ar  296  HEM296      0.0000
     17  C3B       30.4320   90.2010   55.8070 C.ar  296  HEM296      0.0000
     18  C4B       29.3910   89.9270   54.8100 C.ar  296  HEM296      0.0000
     19  CMB       32.0880   92.1780   56.1430 C.3   296  HEM296      0.0000
     20  CAB       30.6800   89.3750   56.9500 C.3   296  HEM296      0.0000
     21  CBB       31.9280   89.2010   57.6080 C.3   296  HEM296      0.0000
     22  C1C       27.4340   88.6720   53.9820 C.2   296  HEM296      0.0000
     23  C2C       26.4010   87.6800   54.1570 C.2   296  HEM296      0.0000
     24  C3C       25.5620   87.7900   53.0850 C.2   296  HEM296      0.0000
     25  C4C       26.0840   88.8380   52.2480 C.2   296  HEM296      0.0000
     26  CMC       26.3110   86.8470   55.4180 C.3   296  HEM296      0.0000
     27  CAC       24.3020   87.1440   52.8240 C.3   296  HEM296      0.0000
     28  CBC       24.0990   85.7840   53.0720 C.3   296  HEM296      0.0000
     29  C1D       26.0810   90.2430   50.2180 C.ar  296  HEM296      0.0000
     30  C2D       25.6330   90.5300   48.8690 C.ar  296  HEM296      0.0000
     31  C3D       26.3650   91.5850   48.4320 C.ar  296  HEM296      0.0000
     32  C4D       27.2370   91.9710   49.5180 C.ar  296  HEM296      0.0000
     33  CMD       24.6050   89.6910   48.1480 C.3   296  HEM296      0.0000
     34  CAD       26.3350   92.2940   47.1000 C.3   296  HEM296      0.0000
     35  CBD       25.3680   93.4790   47.1430 C.3   296  HEM296      0.0000
     36  CGD       25.2330   94.2090   45.8250 C.2   296  HEM296      0.0000
     37  O1D       24.5310   95.2640   45.8120 O.co2 296  HEM296      0.0000
     38  O2D       25.7640   93.7910   44.7720 O.co2 296  HEM296      0.0000
     39  NA        29.2270   92.6530   51.6060 N.2   296  HEM296      0.0000
     40  NB        29.4090   90.9170   53.8520 N.ar  296  HEM296      0.0000
     41  NC        27.2340   89.4120   52.8220 N.2   296  HEM296      0.0000
     42  ND        27.1140   91.1070   50.5800 N.ar  296  HEM296      0.0000
     43 FE         28.2050   91.0490   52.2380 Fe    296  HEM296      0.0000
@<TRIPOS>BOND
     1    38    36   ar
     2    37    36   ar
     3    36    35    1
     4    34    35    1
     5    34    31    1
     6    14    12   ar
     7    33    30    1
     8    13    12   ar
     9    12    11    1
    10    31    30   ar
    11    31    32   ar
    12    30    29   ar
    13    10    11    1
    14    10     6    1
    15     1    32    2
    16     1     5    1
    17    32    42   ar
    18    29    42   ar
    19    29     4    2
    20     5     6    1
    21     5    39    2
    22     6     7    2
    23    42    43    1
    24     4    25    1
    25    39    43    1
    26    39     8    1
    27     7     9    1
    28     7     8    1
    29    43    41    1
    30    43    40    1
    31    25    41    2
    32    25    24    1
    33     8     2    2
    34    41    22    1
    35    27    28    1
    36    27    24    1
    37    24    23    2
    38     2    15    1
    39    40    15   ar
    40    40    18   ar
    41    22    23    1
    42    22     3    2
    43    23    26    1
    44    15    16   ar
    45    18     3    1
    46    18    17   ar
    47    16    17   ar
    48    16    19    1
    49    17    20    1
    50    20    21    1
