@<TRIPOS>MOLECULE
3m29_HEM_A_1.pdb
 43 50 0 0 0
SMALL
GASTEIGER

@<TRIPOS>ATOM
      1  CHA       28.0770   92.9520   49.3340 C.2   296  HEM296      0.0000
      2  CHB       30.6810   92.8490   53.4180 C.2   296  HEM296      0.0000
      3  CHC       28.4350   88.7920   54.7570 C.2   296  HEM296      0.0000
      4  CHD       25.5540   89.0680   50.8940 C.2   296  HEM296      0.0000
      5  C1A       28.9480   93.2830   50.3480 C.2   296  HEM296      0.0000
      6  C2A       29.7760   94.4390   50.3620 C.2   296  HEM296      0.0000
      7  C3A       30.5590   94.4290   51.4850 C.2   296  HEM296      0.0000
      8  C4A       30.2000   93.2030   52.1560 C.2   296  HEM296      0.0000
      9  CMA       31.6050   95.4450   51.9100 C.3   296  HEM296      0.0000
     10  CAA       29.7940   95.4100   49.2170 C.3   296  HEM296      0.0000
     11  CBA       28.7030   96.4750   49.4400 C.3   296  HEM296      0.0000
     12  CGA       28.7710   97.4070   48.2490 C.2   296  HEM296      0.0000
     13  O1A       29.8140   98.1130   48.0690 O.co2 296  HEM296      0.0000
     14  O2A       27.7790   97.4400   47.5070 O.co2 296  HEM296      0.0000
     15  C1B       30.3760   91.6920   54.1100 C.ar  296  HEM296      0.0000
     16  C2B       30.9870   91.2530   55.3170 C.ar  296  HEM296      0.0000
     17  C3B       30.3870   90.0970   55.6760 C.ar  296  HEM296      0.0000
     18  C4B       29.3530   89.8120   54.6740 C.ar  296  HEM296      0.0000
     19  CMB       32.0640   92.0640   56.0150 C.3   296  HEM296      0.0000
     20  CAB       30.6240   89.2480   56.8110 C.3   296  HEM296      0.0000
     21  CBB       31.8780   89.1080   57.4670 C.3   296  HEM296      0.0000
     22  C1C       27.3980   88.5760   53.8530 C.2   296  HEM296      0.0000
     23  C2C       26.3730   87.5740   54.0340 C.2   296  HEM296      0.0000
     24  C3C       25.5400   87.6670   52.9620 C.2   296  HEM296      0.0000
     25  C4C       26.0510   88.7160   52.1300 C.2   296  HEM296      0.0000
     26  CMC       26.3090   86.7250   55.2820 C.3   296  HEM296      0.0000
     27  CAC       24.2750   87.0210   52.7220 C.3   296  HEM296      0.0000
     28  CBC       24.0750   85.6630   52.9390 C.3   296  HEM296      0.0000
     29  C1D       26.0430   90.1290   50.0990 C.ar  296  HEM296      0.0000
     30  C2D       25.6060   90.4070   48.7410 C.ar  296  HEM296      0.0000
     31  C3D       26.3380   91.4670   48.3080 C.ar  296  HEM296      0.0000
     32  C4D       27.2040   91.8580   49.3960 C.ar  296  HEM296      0.0000
     33  CMD       24.5630   89.5740   48.0300 C.3   296  HEM296      0.0000
     34  CAD       26.2910   92.1770   46.9740 C.3   296  HEM296      0.0000
     35  CBD       25.3390   93.3740   47.0430 C.3   296  HEM296      0.0000
     36  CGD       25.2030   94.0880   45.7150 C.2   296  HEM296      0.0000
     37  O1D       24.5040   95.1500   45.7120 O.co2 296  HEM296      0.0000
     38  O2D       25.7360   93.6740   44.6680 O.co2 296  HEM296      0.0000
     39  NA        29.2000   92.5340   51.4860 N.2   296  HEM296      0.0000
     40  NB        29.3700   90.8110   53.7330 N.ar  296  HEM296      0.0000
     41  NC        27.2010   89.3010   52.6900 N.2   296  HEM296      0.0000
     42  ND        27.0730   90.9960   50.4590 N.ar  296  HEM296      0.0000
     43 FE         28.1770   90.9330   52.1070 Fe    296  HEM296      0.0000
@<TRIPOS>BOND
     1    38    36   ar
     2    37    36   ar
     3    36    35    1
     4    34    35    1
     5    34    31    1
     6    14    12   ar
     7    33    30    1
     8    13    12   ar
     9    12    11    1
    10    31    30   ar
    11    31    32   ar
    12    30    29   ar
    13    10    11    1
    14    10     6    1
    15     1    32    2
    16     1     5    1
    17    32    42   ar
    18    29    42   ar
    19    29     4    2
    20     5     6    1
    21     5    39    2
    22     6     7    2
    23    42    43    1
    24     4    25    1
    25     7     9    1
    26     7     8    1
    27    39    43    1
    28    39     8    1
    29    43    41    1
    30    43    40    1
    31    25    41    2
    32    25    24    1
    33     8     2    2
    34    41    22    1
    35    27    28    1
    36    27    24    1
    37    24    23    2
    38     2    15    1
    39    40    15   ar
    40    40    18   ar
    41    22    23    1
    42    22     3    2
    43    23    26    1
    44    15    16   ar
    45    18     3    1
    46    18    17   ar
    47    16    17   ar
    48    16    19    1
    49    17    20    1
    50    20    21    1
