@<TRIPOS>MOLECULE
3m2a_HEM_A_1.pdb
 43 50 0 0 0
SMALL
GASTEIGER

@<TRIPOS>ATOM
      1  CHA       28.1010   93.0480   49.4230 C.2   296  HEM296      0.0000
      2  CHB       30.7100   92.9350   53.5140 C.2   296  HEM296      0.0000
      3  CHC       28.4640   88.8780   54.8620 C.2   296  HEM296      0.0000
      4  CHD       25.5660   89.1860   50.9990 C.2   296  HEM296      0.0000
      5  C1A       28.9640   93.3700   50.4420 C.2   296  HEM296      0.0000
      6  C2A       29.7940   94.5320   50.4540 C.2   296  HEM296      0.0000
      7  C3A       30.5850   94.5280   51.5750 C.2   296  HEM296      0.0000
      8  C4A       30.2130   93.3180   52.2670 C.2   296  HEM296      0.0000
      9  CMA       31.6180   95.5410   52.0220 C.3   296  HEM296      0.0000
     10  CAA       29.8180   95.5210   49.3220 C.3   296  HEM296      0.0000
     11  CBA       28.7230   96.5740   49.5230 C.3   296  HEM296      0.0000
     12  CGA       28.8060   97.5230   48.3480 C.2   296  HEM296      0.0000
     13  O1A       29.8450   98.2310   48.1660 O.co2 296  HEM296      0.0000
     14  O2A       27.8020   97.5450   47.6010 O.co2 296  HEM296      0.0000
     15  C1B       30.3970   91.7900   54.2160 C.ar  296  HEM296      0.0000
     16  C2B       31.0030   91.3460   55.4260 C.ar  296  HEM296      0.0000
     17  C3B       30.4130   90.1820   55.7800 C.ar  296  HEM296      0.0000
     18  C4B       29.3810   89.9070   54.7790 C.ar  296  HEM296      0.0000
     19  CMB       32.0770   92.1630   56.1060 C.3   296  HEM296      0.0000
     20  CAB       30.6640   89.3480   56.9210 C.3   296  HEM296      0.0000
     21  CBB       31.9080   89.2010   57.5880 C.3   296  HEM296      0.0000
     22  C1C       27.4270   88.6580   53.9510 C.2   296  HEM296      0.0000
     23  C2C       26.3950   87.6600   54.1220 C.2   296  HEM296      0.0000
     24  C3C       25.5570   87.7630   53.0530 C.2   296  HEM296      0.0000
     25  C4C       26.0780   88.8080   52.2220 C.2   296  HEM296      0.0000
     26  CMC       26.3190   86.8320   55.3870 C.3   296  HEM296      0.0000
     27  CAC       24.2970   87.1140   52.8100 C.3   296  HEM296      0.0000
     28  CBC       24.1020   85.7500   53.0420 C.3   296  HEM296      0.0000
     29  C1D       26.0740   90.2300   50.1900 C.ar  296  HEM296      0.0000
     30  C2D       25.6340   90.5180   48.8370 C.ar  296  HEM296      0.0000
     31  C3D       26.3630   91.5800   48.4040 C.ar  296  HEM296      0.0000
     32  C4D       27.2360   91.9540   49.4920 C.ar  296  HEM296      0.0000
     33  CMD       24.6020   89.6730   48.1350 C.3   296  HEM296      0.0000
     34  CAD       26.3250   92.2800   47.0670 C.3   296  HEM296      0.0000
     35  CBD       25.3630   93.4700   47.1330 C.3   296  HEM296      0.0000
     36  CGD       25.2220   94.1900   45.8070 C.2   296  HEM296      0.0000
     37  O1D       24.5240   95.2540   45.8080 O.co2 296  HEM296      0.0000
     38  O2D       25.7520   93.7720   44.7530 O.co2 296  HEM296      0.0000
     39  NA        29.2210   92.6330   51.5910 N.2   296  HEM296      0.0000
     40  NB        29.3970   90.9040   53.8300 N.ar  296  HEM296      0.0000
     41  NC        27.2240   89.3870   52.7950 N.2   296  HEM296      0.0000
     42  ND        27.1020   91.0970   50.5590 N.ar  296  HEM296      0.0000
     43 FE         28.2010   91.0220   52.2060 Fe    296  HEM296      0.0000
@<TRIPOS>BOND
     1    38    36   ar
     2    36    37   ar
     3    36    35    1
     4    34    35    1
     5    34    31    1
     6    14    12   ar
     7    33    30    1
     8    13    12   ar
     9    12    11    1
    10    31    30   ar
    11    31    32   ar
    12    30    29   ar
    13    10    11    1
    14    10     6    1
    15     1    32    2
    16     1     5    1
    17    32    42   ar
    18    29    42   ar
    19    29     4    2
    20     5     6    1
    21     5    39    2
    22     6     7    2
    23    42    43    1
    24     4    25    1
    25     7     9    1
    26     7     8    1
    27    39    43    1
    28    39     8    1
    29    43    41    1
    30    43    40    1
    31    25    41    2
    32    25    24    1
    33     8     2    2
    34    41    22    1
    35    27    28    1
    36    27    24    1
    37    24    23    2
    38     2    15    1
    39    40    15   ar
    40    40    18   ar
    41    22    23    1
    42    22     3    2
    43    23    26    1
    44    15    16   ar
    45    18     3    1
    46    18    17   ar
    47    16    17   ar
    48    16    19    1
    49    17    20    1
    50    20    21    1
