@<TRIPOS>MOLECULE
3m2b_HEM_A_1.pdb
 43 50 0 0 0
SMALL
GASTEIGER

@<TRIPOS>ATOM
      1  CHA       28.0840   93.0140   49.3810 C.2   296  HEM296      0.0000
      2  CHB       30.7140   92.8800   53.4580 C.2   296  HEM296      0.0000
      3  CHC       28.4370   88.8450   54.8200 C.2   296  HEM296      0.0000
      4  CHD       25.5680   89.1260   50.9410 C.2   296  HEM296      0.0000
      5  C1A       28.9490   93.3400   50.3980 C.2   296  HEM296      0.0000
      6  C2A       29.7780   94.4980   50.4210 C.2   296  HEM296      0.0000
      7  C3A       30.5710   94.4830   51.5330 C.2   296  HEM296      0.0000
      8  C4A       30.2060   93.2680   52.2170 C.2   296  HEM296      0.0000
      9  CMA       31.6020   95.5020   51.9710 C.3   296  HEM296      0.0000
     10  CAA       29.8110   95.4710   49.2820 C.3   296  HEM296      0.0000
     11  CBA       28.7120   96.5290   49.4880 C.3   296  HEM296      0.0000
     12  CGA       28.7890   97.4670   48.3050 C.2   296  HEM296      0.0000
     13  O1A       29.8180   98.1860   48.1220 O.co2 296  HEM296      0.0000
     14  O2A       27.8040   97.5010   47.5470 O.co2 296  HEM296      0.0000
     15  C1B       30.3820   91.7450   54.1640 C.ar  296  HEM296      0.0000
     16  C2B       30.9900   91.3050   55.3750 C.ar  296  HEM296      0.0000
     17  C3B       30.4010   90.1460   55.7250 C.ar  296  HEM296      0.0000
     18  C4B       29.3700   89.8590   54.7250 C.ar  296  HEM296      0.0000
     19  CMB       32.0710   92.1170   56.0750 C.3   296  HEM296      0.0000
     20  CAB       30.6480   89.3150   56.8700 C.3   296  HEM296      0.0000
     21  CBB       31.8980   89.1650   57.5280 C.3   296  HEM296      0.0000
     22  C1C       27.4120   88.6130   53.9030 C.2   296  HEM296      0.0000
     23  C2C       26.3780   87.6230   54.0850 C.2   296  HEM296      0.0000
     24  C3C       25.5500   87.7290   53.0140 C.2   296  HEM296      0.0000
     25  C4C       26.0700   88.7680   52.1680 C.2   296  HEM296      0.0000
     26  CMC       26.3050   86.7870   55.3380 C.3   296  HEM296      0.0000
     27  CAC       24.2880   87.0680   52.7640 C.3   296  HEM296      0.0000
     28  CBC       24.0790   85.7230   53.0020 C.3   296  HEM296      0.0000
     29  C1D       26.0520   90.1860   50.1510 C.ar  296  HEM296      0.0000
     30  C2D       25.6080   90.4760   48.7940 C.ar  296  HEM296      0.0000
     31  C3D       26.3440   91.5290   48.3580 C.ar  296  HEM296      0.0000
     32  C4D       27.2180   91.9020   49.4430 C.ar  296  HEM296      0.0000
     33  CMD       24.5740   89.6190   48.0960 C.3   296  HEM296      0.0000
     34  CAD       26.3070   92.2290   47.0250 C.3   296  HEM296      0.0000
     35  CBD       25.3570   93.4260   47.0830 C.3   296  HEM296      0.0000
     36  CGD       25.2100   94.1560   45.7660 C.2   296  HEM296      0.0000
     37  O1D       24.5050   95.2040   45.7620 O.co2 296  HEM296      0.0000
     38  O2D       25.7380   93.7410   44.7140 O.co2 296  HEM296      0.0000
     39  NA        29.2130   92.5870   51.5360 N.2   296  HEM296      0.0000
     40  NB        29.3870   90.8550   53.7720 N.ar  296  HEM296      0.0000
     41  NC        27.2220   89.3320   52.7370 N.2   296  HEM296      0.0000
     42  ND        27.0920   91.0470   50.5090 N.ar  296  HEM296      0.0000
     43 FE         28.1910   90.9800   52.1550 Fe    296  HEM296      0.0000
@<TRIPOS>BOND
     1    38    36   ar
     2    37    36   ar
     3    36    35    1
     4    34    35    1
     5    34    31    1
     6    14    12   ar
     7    33    30    1
     8    13    12   ar
     9    12    11    1
    10    31    30   ar
    11    31    32   ar
    12    30    29   ar
    13    10    11    1
    14    10     6    1
    15     1    32    2
    16     1     5    1
    17    32    42   ar
    18    29    42   ar
    19    29     4    2
    20     5     6    1
    21     5    39    2
    22     6     7    2
    23    42    43    1
    24     4    25    1
    25     7     9    1
    26     7     8    1
    27    39    43    1
    28    39     8    1
    29    43    41    1
    30    43    40    1
    31    25    41    2
    32    25    24    1
    33     8     2    2
    34    41    22    1
    35    27    28    1
    36    27    24    1
    37    24    23    2
    38     2    15    1
    39    40    15   ar
    40    40    18   ar
    41    22    23    1
    42    22     3    2
    43    23    26    1
    44    15    16   ar
    45    18     3    1
    46    18    17   ar
    47    16    17   ar
    48    16    19    1
    49    17    20    1
    50    20    21    1
