@<TRIPOS>MOLECULE
3m2c_HEM_A_1.pdb
 43 50 0 0 0
SMALL
GASTEIGER

@<TRIPOS>ATOM
      1  CHA       28.0870   93.0020   49.3760 C.2   296  HEM296      0.0000
      2  CHB       30.7130   92.8840   53.4620 C.2   296  HEM296      0.0000
      3  CHC       28.4470   88.8480   54.8150 C.2   296  HEM296      0.0000
      4  CHD       25.5540   89.1280   50.9410 C.2   296  HEM296      0.0000
      5  C1A       28.9560   93.3300   50.3890 C.2   296  HEM296      0.0000
      6  C2A       29.7870   94.4890   50.4080 C.2   296  HEM296      0.0000
      7  C3A       30.5740   94.4790   51.5290 C.2   296  HEM296      0.0000
      8  C4A       30.2040   93.2630   52.2190 C.2   296  HEM296      0.0000
      9  CMA       31.6100   95.4960   51.9610 C.3   296  HEM296      0.0000
     10  CAA       29.8110   95.4850   49.2790 C.3   296  HEM296      0.0000
     11  CBA       28.7090   96.5340   49.4980 C.3   296  HEM296      0.0000
     12  CGA       28.7880   97.4840   48.3130 C.2   296  HEM296      0.0000
     13  O1A       29.8270   98.1800   48.1230 O.co2 296  HEM296      0.0000
     14  O2A       27.7930   97.5100   47.5580 O.co2 296  HEM296      0.0000
     15  C1B       30.3970   91.7380   54.1590 C.ar  296  HEM296      0.0000
     16  C2B       31.0000   91.3020   55.3750 C.ar  296  HEM296      0.0000
     17  C3B       30.4060   90.1420   55.7270 C.ar  296  HEM296      0.0000
     18  C4B       29.3610   89.8640   54.7340 C.ar  296  HEM296      0.0000
     19  CMB       32.0610   92.1240   56.0820 C.3   296  HEM296      0.0000
     20  CAB       30.6500   89.3130   56.8710 C.3   296  HEM296      0.0000
     21  CBB       31.8990   89.1690   57.5360 C.3   296  HEM296      0.0000
     22  C1C       27.4050   88.6180   53.9070 C.2   296  HEM296      0.0000
     23  C2C       26.3800   87.6100   54.0760 C.2   296  HEM296      0.0000
     24  C3C       25.5520   87.7210   53.0040 C.2   296  HEM296      0.0000
     25  C4C       26.0690   88.7690   52.1740 C.2   296  HEM296      0.0000
     26  CMC       26.3030   86.7860   55.3420 C.3   296  HEM296      0.0000
     27  CAC       24.2900   87.0760   52.7630 C.3   296  HEM296      0.0000
     28  CBC       24.0820   85.7200   53.0130 C.3   296  HEM296      0.0000
     29  C1D       26.0590   90.1780   50.1450 C.ar  296  HEM296      0.0000
     30  C2D       25.6190   90.4750   48.7990 C.ar  296  HEM296      0.0000
     31  C3D       26.3320   91.5360   48.3620 C.ar  296  HEM296      0.0000
     32  C4D       27.2130   91.9060   49.4490 C.ar  296  HEM296      0.0000
     33  CMD       24.5920   89.6220   48.0890 C.3   296  HEM296      0.0000
     34  CAD       26.3010   92.2300   47.0200 C.3   296  HEM296      0.0000
     35  CBD       25.3540   93.4230   47.0950 C.3   296  HEM296      0.0000
     36  CGD       25.2110   94.1500   45.7690 C.2   296  HEM296      0.0000
     37  O1D       24.5030   95.2040   45.7630 O.co2 296  HEM296      0.0000
     38  O2D       25.7410   93.7390   44.7150 O.co2 296  HEM296      0.0000
     39  NA        29.2090   92.5840   51.5370 N.2   296  HEM296      0.0000
     40  NB        29.3960   90.8570   53.7690 N.ar  296  HEM296      0.0000
     41  NC        27.2120   89.3540   52.7520 N.2   296  HEM296      0.0000
     42  ND        27.0850   91.0500   50.5140 N.ar  296  HEM296      0.0000
     43 FE         28.1950   90.9750   52.1540 Fe    296  HEM296      0.0000
@<TRIPOS>BOND
     1    38    36   ar
     2    37    36   ar
     3    36    35    1
     4    34    35    1
     5    34    31    1
     6    14    12   ar
     7    33    30    1
     8    13    12   ar
     9    12    11    1
    10    31    30   ar
    11    31    32   ar
    12    30    29   ar
    13    10    11    1
    14    10     6    1
    15     1    32    2
    16     1     5    1
    17    32    42   ar
    18    29    42   ar
    19    29     4    2
    20     5     6    1
    21     5    39    2
    22     6     7    2
    23    42    43    1
    24     4    25    1
    25     7     9    1
    26     7     8    1
    27    39    43    1
    28    39     8    1
    29    43    41    1
    30    43    40    1
    31    25    41    2
    32    25    24    1
    33     8     2    2
    34    41    22    1
    35    27    24    1
    36    27    28    1
    37    24    23    2
    38     2    15    1
    39    40    15   ar
    40    40    18   ar
    41    22    23    1
    42    22     3    2
    43    23    26    1
    44    15    16   ar
    45    18     3    1
    46    18    17   ar
    47    16    17   ar
    48    16    19    1
    49    17    20    1
    50    20    21    1
