@<TRIPOS>MOLECULE
3m2d_HEM_A_1.pdb
 43 50 0 0 0
SMALL
GASTEIGER

@<TRIPOS>ATOM
      1  CHA       28.1120   93.1500   49.5300 C.2   296  HEM296      0.0000
      2  CHB       30.7400   93.0130   53.6140 C.2   296  HEM296      0.0000
      3  CHC       28.4890   88.9670   54.9700 C.2   296  HEM296      0.0000
      4  CHD       25.6010   89.2530   51.0880 C.2   296  HEM296      0.0000
      5  C1A       28.9950   93.4670   50.5430 C.2   296  HEM296      0.0000
      6  C2A       29.8120   94.6310   50.5620 C.2   296  HEM296      0.0000
      7  C3A       30.6090   94.6080   51.6750 C.2   296  HEM296      0.0000
      8  C4A       30.2380   93.3980   52.3710 C.2   296  HEM296      0.0000
      9  CMA       31.6360   95.6370   52.1190 C.3   296  HEM296      0.0000
     10  CAA       29.8370   95.6150   49.4260 C.3   296  HEM296      0.0000
     11  CBA       28.7460   96.6800   49.6470 C.3   296  HEM296      0.0000
     12  CGA       28.8240   97.6120   48.4490 C.2   296  HEM296      0.0000
     13  O1A       29.8710   98.3080   48.2580 O.co2 296  HEM296      0.0000
     14  O2A       27.8370   97.6420   47.6860 O.co2 296  HEM296      0.0000
     15  C1B       30.4240   91.8770   54.3240 C.ar  296  HEM296      0.0000
     16  C2B       31.0200   91.4360   55.5420 C.ar  296  HEM296      0.0000
     17  C3B       30.4390   90.2690   55.8920 C.ar  296  HEM296      0.0000
     18  C4B       29.4100   89.9900   54.8840 C.ar  296  HEM296      0.0000
     19  CMB       32.1150   92.2460   56.2330 C.3   296  HEM296      0.0000
     20  CAB       30.6850   89.4340   57.0360 C.3   296  HEM296      0.0000
     21  CBB       31.9410   89.2910   57.6900 C.3   296  HEM296      0.0000
     22  C1C       27.4440   88.7440   54.0590 C.2   296  HEM296      0.0000
     23  C2C       26.4100   87.7530   54.2360 C.2   296  HEM296      0.0000
     24  C3C       25.5850   87.8470   53.1650 C.2   296  HEM296      0.0000
     25  C4C       26.1000   88.8860   52.3190 C.2   296  HEM296      0.0000
     26  CMC       26.3440   86.9080   55.4860 C.3   296  HEM296      0.0000
     27  CAC       24.3310   87.1980   52.9020 C.3   296  HEM296      0.0000
     28  CBC       24.1030   85.8450   53.1580 C.3   296  HEM296      0.0000
     29  C1D       26.0960   90.3100   50.2870 C.ar  296  HEM296      0.0000
     30  C2D       25.6500   90.6030   48.9360 C.ar  296  HEM296      0.0000
     31  C3D       26.3710   91.6670   48.5080 C.ar  296  HEM296      0.0000
     32  C4D       27.2450   92.0460   49.6010 C.ar  296  HEM296      0.0000
     33  CMD       24.6130   89.7630   48.2240 C.3   296  HEM296      0.0000
     34  CAD       26.3410   92.3690   47.1710 C.3   296  HEM296      0.0000
     35  CBD       25.3810   93.5570   47.2140 C.3   296  HEM296      0.0000
     36  CGD       25.2500   94.2820   45.8900 C.2   296  HEM296      0.0000
     37  O1D       24.5460   95.3420   45.9010 O.co2 296  HEM296      0.0000
     38  O2D       25.7710   93.8700   44.8410 O.co2 296  HEM296      0.0000
     39  NA        29.2480   92.7170   51.6900 N.2   296  HEM296      0.0000
     40  NB        29.4300   90.9790   53.9360 N.ar  296  HEM296      0.0000
     41  NC        27.2520   89.4670   52.8900 N.2   296  HEM296      0.0000
     42  ND        27.1170   91.1760   50.6590 N.ar  296  HEM296      0.0000
     43 FE         28.2340   91.1020   52.3030 Fe    296  HEM296      0.0000
@<TRIPOS>BOND
     1    38    36   ar
     2    36    37   ar
     3    36    35    1
     4    34    35    1
     5    34    31    1
     6    14    12   ar
     7    33    30    1
     8    13    12   ar
     9    12    11    1
    10    31    30   ar
    11    31    32   ar
    12    30    29   ar
    13    10    11    1
    14    10     6    1
    15     1    32    2
    16     1     5    1
    17    32    42   ar
    18    29    42   ar
    19    29     4    2
    20     5     6    1
    21     5    39    2
    22     6     7    2
    23    42    43    1
    24     4    25    1
    25     7     9    1
    26     7     8    1
    27    39    43    1
    28    39     8    1
    29    43    41    1
    30    43    40    1
    31    25    41    2
    32    25    24    1
    33     8     2    2
    34    41    22    1
    35    27    28    1
    36    27    24    1
    37    24    23    2
    38     2    15    1
    39    40    15   ar
    40    40    18   ar
    41    22    23    1
    42    22     3    2
    43    23    26    1
    44    15    16   ar
    45    18     3    1
    46    18    17   ar
    47    16    17   ar
    48    16    19    1
    49    17    20    1
    50    20    21    1
