@<TRIPOS>MOLECULE
3m2e_HEM_A_1.pdb
 43 50 0 0 0
SMALL
GASTEIGER

@<TRIPOS>ATOM
      1  CHA       28.2700   93.5260   50.0130 C.2   296  HEM296      0.0000
      2  CHB       30.9060   93.4160   54.1270 C.2   296  HEM296      0.0000
      3  CHC       28.6360   89.3450   55.4830 C.2   296  HEM296      0.0000
      4  CHD       25.7320   89.6450   51.5900 C.2   296  HEM296      0.0000
      5  C1A       29.1420   93.8510   51.0360 C.2   296  HEM296      0.0000
      6  C2A       29.9710   95.0210   51.0480 C.2   296  HEM296      0.0000
      7  C3A       30.7640   95.0100   52.1770 C.2   296  HEM296      0.0000
      8  C4A       30.3890   93.7940   52.8740 C.2   296  HEM296      0.0000
      9  CMA       31.8090   96.0310   52.6090 C.3   296  HEM296      0.0000
     10  CAA       29.9950   96.0110   49.9070 C.3   296  HEM296      0.0000
     11  CBA       28.9060   97.0780   50.1050 C.3   296  HEM296      0.0000
     12  CGA       28.9730   98.0280   48.9180 C.2   296  HEM296      0.0000
     13  O1A       30.0230   98.7340   48.7240 O.co2 296  HEM296      0.0000
     14  O2A       27.9800   98.0550   48.1460 O.co2 296  HEM296      0.0000
     15  C1B       30.5840   92.2630   54.8340 C.ar  296  HEM296      0.0000
     16  C2B       31.1890   91.8270   56.0550 C.ar  296  HEM296      0.0000
     17  C3B       30.5980   90.6580   56.4150 C.ar  296  HEM296      0.0000
     18  C4B       29.5570   90.3740   55.4060 C.ar  296  HEM296      0.0000
     19  CMB       32.2750   92.6220   56.7660 C.3   296  HEM296      0.0000
     20  CAB       30.8560   89.8290   57.5700 C.3   296  HEM296      0.0000
     21  CBB       32.0910   89.6790   58.2460 C.3   296  HEM296      0.0000
     22  C1C       27.5920   89.1140   54.5670 C.2   296  HEM296      0.0000
     23  C2C       26.5600   88.1190   54.7360 C.2   296  HEM296      0.0000
     24  C3C       25.7140   88.2290   53.6790 C.2   296  HEM296      0.0000
     25  C4C       26.2250   89.2780   52.8320 C.2   296  HEM296      0.0000
     26  CMC       26.4780   87.2970   56.0180 C.3   296  HEM296      0.0000
     27  CAC       24.4460   87.5740   53.4230 C.3   296  HEM296      0.0000
     28  CBC       24.2330   86.2210   53.6760 C.3   296  HEM296      0.0000
     29  C1D       26.2290   90.6950   50.7740 C.ar  296  HEM296      0.0000
     30  C2D       25.7910   90.9830   49.4150 C.ar  296  HEM296      0.0000
     31  C3D       26.5160   92.0420   48.9730 C.ar  296  HEM296      0.0000
     32  C4D       27.3850   92.4280   50.0750 C.ar  296  HEM296      0.0000
     33  CMD       24.7430   90.1460   48.6950 C.3   296  HEM296      0.0000
     34  CAD       26.4630   92.7470   47.6290 C.3   296  HEM296      0.0000
     35  CBD       25.5080   93.9500   47.6660 C.3   296  HEM296      0.0000
     36  CGD       25.3770   94.6760   46.3360 C.2   296  HEM296      0.0000
     37  O1D       24.6700   95.7440   46.3350 O.co2 296  HEM296      0.0000
     38  O2D       25.9080   94.2670   45.2750 O.co2 296  HEM296      0.0000
     39  NA        29.4020   93.1070   52.1850 N.2   296  HEM296      0.0000
     40  NB        29.5780   91.3710   54.4460 N.ar  296  HEM296      0.0000
     41  NC        27.3920   89.8470   53.4030 N.2   296  HEM296      0.0000
     42  ND        27.2610   91.5750   51.1450 N.ar  296  HEM296      0.0000
     43 FE         28.3780   91.4870   52.8020 Fe    296  HEM296      0.0000
@<TRIPOS>BOND
     1    38    36   ar
     2    37    36   ar
     3    36    35    1
     4    34    35    1
     5    34    31    1
     6    14    12   ar
     7    33    30    1
     8    13    12   ar
     9    12    11    1
    10    31    30   ar
    11    31    32   ar
    12    30    29   ar
    13    10    11    1
    14    10     6    1
    15     1    32    2
    16     1     5    1
    17    32    42   ar
    18    29    42   ar
    19    29     4    2
    20     5     6    1
    21     5    39    2
    22     6     7    2
    23    42    43    1
    24     4    25    1
    25     7     9    1
    26     7     8    1
    27    39    43    1
    28    39     8    1
    29    43    41    1
    30    43    40    1
    31    25    41    2
    32    25    24    1
    33     8     2    2
    34    41    22    1
    35    27    28    1
    36    27    24    1
    37    24    23    2
    38     2    15    1
    39    40    15   ar
    40    40    18   ar
    41    22    23    1
    42    22     3    2
    43    23    26    1
    44    15    16   ar
    45    18     3    1
    46    18    17   ar
    47    16    17   ar
    48    16    19    1
    49    17    20    1
    50    20    21    1
