@<TRIPOS>MOLECULE
3m2f_HEM_A_1.pdb
 43 50 0 0 0
SMALL
GASTEIGER

@<TRIPOS>ATOM
      1  CHA       28.1260   93.1340   49.5230 C.2   296  HEM296      0.0000
      2  CHB       30.7560   93.0020   53.6040 C.2   296  HEM296      0.0000
      3  CHC       28.4950   88.9550   54.9620 C.2   296  HEM296      0.0000
      4  CHD       25.5870   89.2660   51.0870 C.2   296  HEM296      0.0000
      5  C1A       28.9930   93.4510   50.5370 C.2   296  HEM296      0.0000
      6  C2A       29.8200   94.6110   50.5670 C.2   296  HEM296      0.0000
      7  C3A       30.6190   94.5970   51.6810 C.2   296  HEM296      0.0000
      8  C4A       30.2390   93.3890   52.3680 C.2   296  HEM296      0.0000
      9  CMA       31.6470   95.6230   52.1150 C.3   296  HEM296      0.0000
     10  CAA       29.8600   95.6040   49.4330 C.3   296  HEM296      0.0000
     11  CBA       28.7540   96.6540   49.6410 C.3   296  HEM296      0.0000
     12  CGA       28.8350   97.6000   48.4580 C.2   296  HEM296      0.0000
     13  O1A       29.8660   98.3110   48.2510 O.co2 296  HEM296      0.0000
     14  O2A       27.8360   97.6250   47.7000 O.co2 296  HEM296      0.0000
     15  C1B       30.4290   91.8680   54.3150 C.ar  296  HEM296      0.0000
     16  C2B       31.0430   91.4300   55.5280 C.ar  296  HEM296      0.0000
     17  C3B       30.4460   90.2700   55.8790 C.ar  296  HEM296      0.0000
     18  C4B       29.4040   89.9920   54.8880 C.ar  296  HEM296      0.0000
     19  CMB       32.1220   92.2260   56.2210 C.3   296  HEM296      0.0000
     20  CAB       30.6830   89.4460   57.0300 C.3   296  HEM296      0.0000
     21  CBB       31.9320   89.2790   57.6920 C.3   296  HEM296      0.0000
     22  C1C       27.4490   88.7280   54.0530 C.2   296  HEM296      0.0000
     23  C2C       26.4140   87.7390   54.2370 C.2   296  HEM296      0.0000
     24  C3C       25.5830   87.8450   53.1580 C.2   296  HEM296      0.0000
     25  C4C       26.1020   88.8890   52.3120 C.2   296  HEM296      0.0000
     26  CMC       26.3360   86.9030   55.4960 C.3   296  HEM296      0.0000
     27  CAC       24.3270   87.1860   52.8940 C.3   296  HEM296      0.0000
     28  CBC       24.1020   85.8310   53.1520 C.3   296  HEM296      0.0000
     29  C1D       26.0940   90.3080   50.2820 C.ar  296  HEM296      0.0000
     30  C2D       25.6590   90.5980   48.9250 C.ar  296  HEM296      0.0000
     31  C3D       26.3840   91.6600   48.4940 C.ar  296  HEM296      0.0000
     32  C4D       27.2510   92.0350   49.5900 C.ar  296  HEM296      0.0000
     33  CMD       24.6200   89.7540   48.2270 C.3   296  HEM296      0.0000
     34  CAD       26.3440   92.3590   47.1540 C.3   296  HEM296      0.0000
     35  CBD       25.3830   93.5400   47.2110 C.3   296  HEM296      0.0000
     36  CGD       25.2430   94.2770   45.8930 C.2   296  HEM296      0.0000
     37  O1D       24.5370   95.3380   45.8870 O.co2 296  HEM296      0.0000
     38  O2D       25.7830   93.8670   44.8360 O.co2 296  HEM296      0.0000
     39  NA        29.2440   92.7020   51.6800 N.2   296  HEM296      0.0000
     40  NB        29.4290   90.9760   53.9250 N.ar  296  HEM296      0.0000
     41  NC        27.2520   89.4590   52.8900 N.2   296  HEM296      0.0000
     42  ND        27.1230   91.1720   50.6600 N.ar  296  HEM296      0.0000
     43 FE         28.2370   91.0920   52.2970 Fe    296  HEM296      0.0000
@<TRIPOS>BOND
     1    38    36   ar
     2    37    36   ar
     3    36    35    1
     4    34    35    1
     5    34    31    1
     6    14    12   ar
     7    33    30    1
     8    13    12   ar
     9    12    11    1
    10    31    30   ar
    11    31    32   ar
    12    30    29   ar
    13    10    11    1
    14    10     6    1
    15     1    32    2
    16     1     5    1
    17    32    42   ar
    18    29    42   ar
    19    29     4    2
    20     5     6    1
    21     5    39    2
    22     6     7    2
    23    42    43    1
    24     4    25    1
    25    39    43    1
    26    39     8    1
    27     7     9    1
    28     7     8    1
    29    43    41    1
    30    43    40    1
    31    25    41    2
    32    25    24    1
    33     8     2    2
    34    41    22    1
    35    27    28    1
    36    27    24    1
    37    24    23    2
    38     2    15    1
    39    40    15   ar
    40    40    18   ar
    41    22    23    1
    42    22     3    2
    43    23    26    1
    44    15    16   ar
    45    18     3    1
    46    18    17   ar
    47    16    17   ar
    48    16    19    1
    49    17    20    1
    50    20    21    1
