@<TRIPOS>MOLECULE
3m2g_HEM_A_1.pdb
 43 50 0 0 0
SMALL
GASTEIGER

@<TRIPOS>ATOM
      1  CHA       28.1470   93.2150   49.6310 C.2   296  HEM296      0.0000
      2  CHB       30.7850   93.0850   53.7260 C.2   296  HEM296      0.0000
      3  CHC       28.5230   89.0270   55.0750 C.2   296  HEM296      0.0000
      4  CHD       25.6230   89.3390   51.1920 C.2   296  HEM296      0.0000
      5  C1A       29.0260   93.5310   50.6440 C.2   296  HEM296      0.0000
      6  C2A       29.8540   94.6900   50.6540 C.2   296  HEM296      0.0000
      7  C3A       30.6480   94.6700   51.7790 C.2   296  HEM296      0.0000
      8  C4A       30.2810   93.4560   52.4640 C.2   296  HEM296      0.0000
      9  CMA       31.6900   95.6980   52.2120 C.3   296  HEM296      0.0000
     10  CAA       29.8900   95.6930   49.5280 C.3   296  HEM296      0.0000
     11  CBA       28.7920   96.7390   49.7280 C.3   296  HEM296      0.0000
     12  CGA       28.8580   97.6870   48.5380 C.2   296  HEM296      0.0000
     13  O1A       29.9010   98.3870   48.3470 O.co2 296  HEM296      0.0000
     14  O2A       27.8690   97.7190   47.7870 O.co2 296  HEM296      0.0000
     15  C1B       30.4680   91.9260   54.4120 C.ar  296  HEM296      0.0000
     16  C2B       31.0650   91.4930   55.6370 C.ar  296  HEM296      0.0000
     17  C3B       30.4730   90.3350   56.0030 C.ar  296  HEM296      0.0000
     18  C4B       29.4360   90.0600   54.9950 C.ar  296  HEM296      0.0000
     19  CMB       32.1380   92.3090   56.3480 C.3   296  HEM296      0.0000
     20  CAB       30.7290   89.4990   57.1460 C.3   296  HEM296      0.0000
     21  CBB       31.9710   89.3590   57.8170 C.3   296  HEM296      0.0000
     22  C1C       27.4790   88.8030   54.1630 C.2   296  HEM296      0.0000
     23  C2C       26.4370   87.8110   54.3430 C.2   296  HEM296      0.0000
     24  C3C       25.6080   87.9210   53.2700 C.2   296  HEM296      0.0000
     25  C4C       26.1260   88.9610   52.4270 C.2   296  HEM296      0.0000
     26  CMC       26.3720   86.9740   55.6060 C.3   296  HEM296      0.0000
     27  CAC       24.3460   87.2740   53.0040 C.3   296  HEM296      0.0000
     28  CBC       24.1380   85.9240   53.2580 C.3   296  HEM296      0.0000
     29  C1D       26.1280   90.3790   50.3850 C.ar  296  HEM296      0.0000
     30  C2D       25.6830   90.6710   49.0300 C.ar  296  HEM296      0.0000
     31  C3D       26.4080   91.7320   48.6000 C.ar  296  HEM296      0.0000
     32  C4D       27.2720   92.1230   49.6980 C.ar  296  HEM296      0.0000
     33  CMD       24.6370   89.8350   48.3260 C.3   296  HEM296      0.0000
     34  CAD       26.3690   92.4300   47.2610 C.3   296  HEM296      0.0000
     35  CBD       25.4210   93.6240   47.3130 C.3   296  HEM296      0.0000
     36  CGD       25.2750   94.3470   45.9890 C.2   296  HEM296      0.0000
     37  O1D       24.5700   95.4190   45.9860 O.co2 296  HEM296      0.0000
     38  O2D       25.7990   93.9490   44.9250 O.co2 296  HEM296      0.0000
     39  NA        29.2800   92.7840   51.7890 N.2   296  HEM296      0.0000
     40  NB        29.4670   91.0430   54.0320 N.ar  296  HEM296      0.0000
     41  NC        27.2780   89.5320   53.0040 N.2   296  HEM296      0.0000
     42  ND        27.1490   91.2530   50.7610 N.ar  296  HEM296      0.0000
     43 FE         28.2670   91.1680   52.4010 Fe    296  HEM296      0.0000
@<TRIPOS>BOND
     1    38    36   ar
     2    37    36   ar
     3    36    35    1
     4    34    35    1
     5    34    31    1
     6    14    12   ar
     7    33    30    1
     8    13    12   ar
     9    12    11    1
    10    31    30   ar
    11    31    32   ar
    12    30    29   ar
    13    10    11    1
    14    10     6    1
    15     1    32    2
    16     1     5    1
    17    32    42   ar
    18    29    42   ar
    19    29     4    2
    20     5     6    1
    21     5    39    2
    22     6     7    2
    23    42    43    1
    24     4    25    1
    25     7     9    1
    26     7     8    1
    27    39    43    1
    28    39     8    1
    29    43    41    1
    30    43    40    1
    31    25    41    2
    32    25    24    1
    33     8     2    2
    34    27    28    1
    35    27    24    1
    36    41    22    1
    37    24    23    2
    38     2    15    1
    39    40    15   ar
    40    40    18   ar
    41    22    23    1
    42    22     3    2
    43    23    26    1
    44    15    16   ar
    45    18     3    1
    46    18    17   ar
    47    16    17   ar
    48    16    19    1
    49    17    20    1
    50    20    21    1
