@<TRIPOS>MOLECULE
3m2h_HEM_A_1.pdb
 43 50 0 0 0
SMALL
GASTEIGER

@<TRIPOS>ATOM
      1  CHA       28.1670   93.3990   49.6580 C.2   296  HEM296      0.0000
      2  CHB       30.8090   93.2750   53.6980 C.2   296  HEM296      0.0000
      3  CHC       28.5420   89.2430   55.0630 C.2   296  HEM296      0.0000
      4  CHD       25.6470   89.5600   51.1880 C.2   296  HEM296      0.0000
      5  C1A       29.0650   93.7370   50.6460 C.2   296  HEM296      0.0000
      6  C2A       29.8900   94.8970   50.6320 C.2   296  HEM296      0.0000
      7  C3A       30.6710   94.8650   51.7660 C.2   296  HEM296      0.0000
      8  C4A       30.2720   93.6930   52.4780 C.2   296  HEM296      0.0000
      9  CMA       31.7160   95.8600   52.2240 C.3   296  HEM296      0.0000
     10  CAA       29.9100   95.8960   49.5120 C.3   296  HEM296      0.0000
     11  CBA       28.8040   96.9640   49.7380 C.3   296  HEM296      0.0000
     12  CGA       28.8780   97.8970   48.5400 C.2   296  HEM296      0.0000
     13  O1A       29.9120   98.5960   48.3620 O.co2 296  HEM296      0.0000
     14  O2A       27.9070   97.9170   47.7790 O.co2 296  HEM296      0.0000
     15  C1B       30.4840   92.1330   54.4290 C.ar  296  HEM296      0.0000
     16  C2B       31.0970   91.6850   55.6350 C.ar  296  HEM296      0.0000
     17  C3B       30.4870   90.5280   56.0040 C.ar  296  HEM296      0.0000
     18  C4B       29.4470   90.2710   55.0230 C.ar  296  HEM296      0.0000
     19  CMB       32.1550   92.5100   56.3490 C.3   296  HEM296      0.0000
     20  CAB       30.7440   89.6740   57.1350 C.3   296  HEM296      0.0000
     21  CBB       31.9970   89.5730   57.7930 C.3   296  HEM296      0.0000
     22  C1C       27.4950   88.9910   54.1710 C.2   296  HEM296      0.0000
     23  C2C       26.4740   88.0050   54.3290 C.2   296  HEM296      0.0000
     24  C3C       25.6250   88.1120   53.2490 C.2   296  HEM296      0.0000
     25  C4C       26.1550   89.1700   52.4200 C.2   296  HEM296      0.0000
     26  CMC       26.3970   87.1260   55.5660 C.3   296  HEM296      0.0000
     27  CAC       24.3660   87.4740   53.0090 C.3   296  HEM296      0.0000
     28  CBC       24.1210   86.1390   53.2670 C.3   296  HEM296      0.0000
     29  C1D       26.1500   90.5810   50.3770 C.ar  296  HEM296      0.0000
     30  C2D       25.6900   90.8830   49.0480 C.ar  296  HEM296      0.0000
     31  C3D       26.4150   91.9230   48.6100 C.ar  296  HEM296      0.0000
     32  C4D       27.2820   92.3080   49.6870 C.ar  296  HEM296      0.0000
     33  CMD       24.6630   90.0110   48.3210 C.3   296  HEM296      0.0000
     34  CAD       26.3500   92.6220   47.2860 C.3   296  HEM296      0.0000
     35  CBD       25.4180   93.8350   47.2840 C.3   296  HEM296      0.0000
     36  CGD       25.2940   94.5620   45.9690 C.2   296  HEM296      0.0000
     37  O1D       24.5860   95.6240   45.9880 O.co2 296  HEM296      0.0000
     38  O2D       25.8270   94.1180   44.9300 O.co2 296  HEM296      0.0000
     39  NA        29.2850   92.9920   51.7990 N.2   296  HEM296      0.0000
     40  NB        29.4760   91.2450   54.0400 N.ar  296  HEM296      0.0000
     41  NC        27.2920   89.7360   53.0020 N.2   296  HEM296      0.0000
     42  ND        27.1520   91.4350   50.7590 N.ar  296  HEM296      0.0000
     43 FE         28.3030   91.3410   52.3910 Fe    296  HEM296      0.0000
@<TRIPOS>BOND
     1    38    36   ar
     2    36    37   ar
     3    36    35    1
     4    35    34    1
     5    34    31    1
     6    14    12   ar
     7    33    30    1
     8    13    12   ar
     9    12    11    1
    10    31    30   ar
    11    31    32   ar
    12    30    29   ar
    13    10    11    1
    14    10     6    1
    15     1    32    2
    16     1     5    1
    17    32    42   ar
    18    29    42   ar
    19    29     4    2
    20     6     5    1
    21     6     7    2
    22     5    39    2
    23    42    43    1
    24     4    25    1
    25     7     9    1
    26     7     8    1
    27    39    43    1
    28    39     8    1
    29    43    41    1
    30    43    40    1
    31    25    41    2
    32    25    24    1
    33     8     2    2
    34    41    22    1
    35    27    24    1
    36    27    28    1
    37    24    23    2
    38     2    15    1
    39    40    15   ar
    40    40    18   ar
    41    22    23    1
    42    22     3    2
    43    23    26    1
    44    15    16   ar
    45    18     3    1
    46    18    17   ar
    47    16    17   ar
    48    16    19    1
    49    17    20    1
    50    20    21    1
