@<TRIPOS>MOLECULE
3m2i_HEM_A_1.pdb
 43 50 0 0 0
SMALL
GASTEIGER

@<TRIPOS>ATOM
      1  CHA       28.1160   93.1460   49.5390 C.2   296  HEM296      0.0000
      2  CHB       30.7900   93.0130   53.5840 C.2   296  HEM296      0.0000
      3  CHC       28.5130   88.9860   54.9470 C.2   296  HEM296      0.0000
      4  CHD       25.6160   89.2820   51.0910 C.2   296  HEM296      0.0000
      5  C1A       29.0040   93.4730   50.5360 C.2   296  HEM296      0.0000
      6  C2A       29.8460   94.6310   50.5490 C.2   296  HEM296      0.0000
      7  C3A       30.6270   94.6200   51.6780 C.2   296  HEM296      0.0000
      8  C4A       30.2450   93.4100   52.3670 C.2   296  HEM296      0.0000
      9  CMA       31.6720   95.6220   52.1140 C.3   296  HEM296      0.0000
     10  CAA       29.8870   95.6190   49.4200 C.3   296  HEM296      0.0000
     11  CBA       28.7670   96.6680   49.6130 C.3   296  HEM296      0.0000
     12  CGA       28.8560   97.6240   48.4280 C.2   296  HEM296      0.0000
     13  O1A       29.9070   98.3310   48.2550 O.co2 296  HEM296      0.0000
     14  O2A       27.8490   97.6510   47.6890 O.co2 296  HEM296      0.0000
     15  C1B       30.4640   91.8760   54.3050 C.ar  296  HEM296      0.0000
     16  C2B       31.0690   91.4390   55.5170 C.ar  296  HEM296      0.0000
     17  C3B       30.4710   90.2850   55.8900 C.ar  296  HEM296      0.0000
     18  C4B       29.4320   90.0130   54.8970 C.ar  296  HEM296      0.0000
     19  CMB       32.1460   92.2420   56.2210 C.3   296  HEM296      0.0000
     20  CAB       30.7220   89.4640   57.0350 C.3   296  HEM296      0.0000
     21  CBB       31.9710   89.2990   57.6830 C.3   296  HEM296      0.0000
     22  C1C       27.4570   88.7360   54.0480 C.2   296  HEM296      0.0000
     23  C2C       26.4300   87.7620   54.2170 C.2   296  HEM296      0.0000
     24  C3C       25.5970   87.8490   53.1420 C.2   296  HEM296      0.0000
     25  C4C       26.1170   88.8940   52.3100 C.2   296  HEM296      0.0000
     26  CMC       26.3440   86.9070   55.4670 C.3   296  HEM296      0.0000
     27  CAC       24.3290   87.2090   52.8890 C.3   296  HEM296      0.0000
     28  CBC       24.1040   85.8540   53.1290 C.3   296  HEM296      0.0000
     29  C1D       26.1090   90.3170   50.2780 C.ar  296  HEM296      0.0000
     30  C2D       25.6680   90.6000   48.9330 C.ar  296  HEM296      0.0000
     31  C3D       26.4010   91.6510   48.4960 C.ar  296  HEM296      0.0000
     32  C4D       27.2540   92.0500   49.5750 C.ar  296  HEM296      0.0000
     33  CMD       24.6290   89.7540   48.2080 C.3   296  HEM296      0.0000
     34  CAD       26.3400   92.3710   47.1640 C.3   296  HEM296      0.0000
     35  CBD       25.3890   93.5640   47.2190 C.3   296  HEM296      0.0000
     36  CGD       25.2590   94.2860   45.8880 C.2   296  HEM296      0.0000
     37  O1D       24.5590   95.3440   45.8810 O.co2 296  HEM296      0.0000
     38  O2D       25.7900   93.8750   44.8340 O.co2 296  HEM296      0.0000
     39  NA        29.2510   92.7320   51.6870 N.2   296  HEM296      0.0000
     40  NB        29.4560   90.9870   53.9230 N.ar  296  HEM296      0.0000
     41  NC        27.2690   89.4670   52.8770 N.2   296  HEM296      0.0000
     42  ND        27.1300   91.1780   50.6440 N.ar  296  HEM296      0.0000
     43 FE         28.2810   91.0770   52.2690 Fe    296  HEM296      0.0000
@<TRIPOS>BOND
     1    38    36   ar
     2    37    36   ar
     3    36    35    1
     4    34    35    1
     5    34    31    1
     6    14    12   ar
     7    33    30    1
     8    13    12   ar
     9    12    11    1
    10    31    30   ar
    11    31    32   ar
    12    30    29   ar
    13    10    11    1
    14    10     6    1
    15     1    32    2
    16     1     5    1
    17    32    42   ar
    18    29    42   ar
    19    29     4    2
    20     5     6    1
    21     5    39    2
    22     6     7    2
    23    42    43    1
    24     4    25    1
    25     7     9    1
    26     7     8    1
    27    39    43    1
    28    39     8    1
    29    43    41    1
    30    43    40    1
    31    25    41    2
    32    25    24    1
    33     8     2    2
    34    41    22    1
    35    27    28    1
    36    27    24    1
    37    24    23    2
    38     2    15    1
    39    40    15   ar
    40    40    18   ar
    41    22    23    1
    42    22     3    2
    43    23    26    1
    44    15    16   ar
    45    18     3    1
    46    18    17   ar
    47    16    17   ar
    48    16    19    1
    49    17    20    1
    50    20    21    1
