@<TRIPOS>MOLECULE
3m2j_F5M_A_1.pdb
 32 36 0 0 0
SMALL
GASTEIGER

@<TRIPOS>ATOM
      1  C1        17.7400   12.6680   20.0030 C.ar  292  F5M292      0.1988
      2  O1        18.3630   13.4210   20.9070 O.3   292  F5M292     -0.2865
      3  C2        18.2800   11.9410   19.1040 C.ar  292  F5M292      0.0795
      4  O2        19.0240   10.4330   17.3040 O.3   292  F5M292     -0.4536
      5  C3        18.1420   11.1230   18.1040 C.ar  292  F5M292      0.1484
      6  O3        19.7660    8.2260   13.2430 O.2   292  F5M292     -0.2868
      7  C4        18.5140    9.6030   16.3060 C.2   292  F5M292      0.1448
      8  O4        14.7290    6.5550   16.5160 O.co2 292  F5M292     -0.2406
      9  C5        19.4450    8.9220   15.5170 C.2   292  F5M292      0.0788
     10  O5        14.5560    7.4540   18.5930 O.co2 292  F5M292     -0.2406
     11  C6        19.0550    7.9790   14.4570 C.2   292  F5M292      0.1949
     12  C7        17.5940    7.8870   14.2540 C.2   292  F5M292      0.0208
     13  C8        16.6840    8.5780   15.0500 C.3   292  F5M292      0.0587
     14  C9        17.1160    9.4320   16.0760 C.2   292  F5M292      0.0171
     15  C10       16.0900   10.1340   16.9300 C.2   292  F5M292      0.0024
     16  C11       16.6650   11.0260   17.9460 C.ar  292  F5M292      0.0346
     17  C12       16.1410   11.7740   18.8610 C.ar  292  F5M292      0.0063
     18  C13       16.2530   12.5480   19.8640 C.ar  292  F5M292      0.0422
     19  C14       14.6210    9.9910   16.6520 C.ar  292  F5M292      0.0064
     20  C15       13.9890   11.1110   16.1560 C.ar  292  F5M292      0.0015
     21  C16       12.6430   11.1080   15.8040 C.ar  292  F5M292      0.0153
     22  C17       11.8190    9.9920   15.9230 C.ar  292  F5M292      0.0608
     23  C18       12.4090    8.8050   16.4270 C.ar  292  F5M292      0.0219
     24  C19       13.7830    8.7560   16.7760 C.ar  292  F5M292      0.0810
     25  C20       14.4040    7.4980   17.3210 C.2   292  F5M292      0.3878
     26  NAB       10.4950   10.1670   15.5460 N.am  292  F5M292     -0.2081
     27  CAZ        9.5440    9.2720   15.4390 C.2   292  F5M292      0.2356
     28  CBA        8.1840    9.8800   15.1560 C.3   292  F5M292      0.0956
     29  CBB        8.5490   11.2810   14.6820 C.3   292  F5M292      0.0956
     30  CBC       10.0130   11.3130   15.0880 C.2   292  F5M292      0.2356
     31  OBJ       10.6770   12.3380   15.0600 O.2   292  F5M292     -0.2741
     32  OBK        9.7740    8.0330   15.3470 O.2   292  F5M292     -0.2741
@<TRIPOS>BOND
     1     6    11    1
     2    12    11    2
     3    12    13    1
     4    11     9    1
     5    29    30    1
     6    29    28    1
     7    13    14    1
     8    31    30    2
     9    30    26   am
    10    28    27    1
    11    32    27    2
    12    27    26   am
    13     9     7    2
    14    26    22    1
    15    21    22   ar
    16    21    20   ar
    17    22    23   ar
    18    14     7    1
    19    14    15    2
    20    20    19   ar
    21     7     4    1
    22    23    24   ar
    23     8    25   ar
    24    19    24   ar
    25    19    15    1
    26    24    25    1
    27    15    16    1
    28     4     5    1
    29    25    10   ar
    30    16     5   ar
    31    16    17   ar
    32     5     3   ar
    33    17    18   ar
    34     3     1   ar
    35    18     1   ar
    36     1     2    1
