@<TRIPOS>MOLECULE
3m2k_PCZ_A_1.pdb
 26 27 0 0 0
SMALL
GASTEIGER

@<TRIPOS>ATOM
      1  O1       -11.7320  -33.0900  -16.1890 O.2     1  PCZ1       -0.2863
      2  C1       -11.2210  -33.3640  -17.2260 C.2     1  PCZ1        0.2316
      3  C2       -11.1460  -34.7750  -17.6910 C.3     1  PCZ1        0.1923
      4  C3       -11.3550  -34.4180  -19.1640 C.3     1  PCZ1        0.1777
      5  C5       -14.1410  -33.3480  -20.2710 C.3     1  PCZ1        0.0574
      6  C51      -15.3290  -32.8380  -20.7760 C.3     1  PCZ1        0.0074
      7  C52      -13.9480  -34.6730  -20.0190 C.3     1  PCZ1        0.0656
      8  C6       -13.0950  -32.5850  -19.8670 C.2     1  PCZ1        0.1345
      9  C61      -13.1950  -31.1800  -19.9500 C.2     1  PCZ1        0.4007
     10  O62      -12.2920  -30.4530  -19.4310 O.co2   1  PCZ1       -0.2392
     11  O63      -14.1570  -30.5460  -20.4940 O.co2   1  PCZ1       -0.2392
     12  N7       -11.9730  -33.0890  -19.2810 N.2     1  PCZ1       -0.2568
     13  N8       -12.1580  -35.5350  -16.9670 N.am    1  PCZ1       -0.1910
     14  C9       -12.3550  -36.8520  -16.9730 C.2     1  PCZ1        0.2884
     15  O91      -11.8020  -37.6050  -17.6830 O.2     1  PCZ1       -0.2665
     16  C10      -13.4310  -37.3470  -16.1630 C.2     1  PCZ1        0.2002
     17  N11      -13.4290  -37.5510  -14.9110 N.2     1  PCZ1       -0.0759
     18  O12      -12.2950  -37.3940  -14.2990 O.2     1  PCZ1       -0.3729
     19  C13      -12.3450  -37.5680  -12.8510 C.3     1  PCZ1        0.2885
     20  C14      -14.7610  -37.5560  -16.6970 C.2     1  PCZ1        0.1478
     21  C15      -15.0700  -37.3010  -18.0980 C.3     1  PCZ1        0.1266
     22  S16      -16.8590  -37.1570  -17.9910 S.3     1  PCZ1       -0.0564
     23  C17      -17.0270  -37.8830  -16.3350 C.2     1  PCZ1        0.2461
     24  N18      -15.7810  -37.9720  -15.8070 N.2     1  PCZ1       -0.3794
     25  N19      -18.1560  -38.3020  -15.6390 N.pl3   1  PCZ1       -0.0867
     26  S1       -12.4570  -35.4600  -19.9320 S.3     1  PCZ1       -0.1145
@<TRIPOS>BOND
     1     6     5    1
     2    11     9   ar
     3     5     7    1
     4     5     8    1
     5     7    26    1
     6     9     8    1
     7     9    10   ar
     8    26     4    1
     9     8    12    2
    10    12     4    1
    11     4     3    1
    12    21    22    1
    13    21    20    1
    14    22    23    1
    15     3     2    1
    16     3    13    1
    17    15    14    2
    18     2     1    2
    19    14    13   am
    20    14    16    1
    21    20    16    1
    22    20    24    2
    23    23    24    2
    24    23    25    1
    25    16    17    2
    26    17    18    1
    27    18    19    1
