@<TRIPOS>MOLECULE
3m2m_LAT_A_1.pdb
 23 24 0 0 0
SMALL
GASTEIGER

@<TRIPOS>ATOM
      1  C1        18.1610  -15.7940    6.4610 C.3   999  LAT999      0.2695
      2  C2        17.9610  -14.7020    5.4040 C.3   999  LAT999      0.2406
      3  C3        16.6620  -13.9130    5.6180 C.3   999  LAT999      0.2198
      4  C4        15.4800  -14.8670    5.8160 C.3   999  LAT999      0.2144
      5  C5        15.8070  -15.8930    6.9190 C.3   999  LAT999      0.1835
      6  C6        14.6850  -16.9050    7.1630 C.3   999  LAT999      0.2142
      7  O1        19.2170  -16.5840    6.0470 O.3   999  LAT999     -0.3257
      8  O2        19.0750  -13.8150    5.4340 O.3   999  LAT999     -0.2149
      9  O3        16.4220  -13.0880    4.4800 O.3   999  LAT999     -0.2174
     10  O4        15.1940  -15.5300    4.5880 O.3   999  LAT999     -0.2176
     11  O5        16.9960  -16.6310    6.5650 O.3   999  LAT999     -0.3256
     12  O6        15.1850  -18.1900    7.5180 O.3   999  LAT999     -0.2176
     13  C1'       21.6310  -19.5690    7.5920 C.3   999  LAT999      0.3023
     14  C2'       20.5330  -20.0370    6.6170 C.3   999  LAT999      0.2433
     15  C3'       20.0280  -18.8310    5.8400 C.3   999  LAT999      0.2168
     16  C4'       19.5270  -17.7570    6.8100 C.3   999  LAT999      0.1804
     17  C5'       20.6070  -17.4100    7.8660 C.3   999  LAT999      0.1804
     18  C6'       20.0980  -16.4800    8.9650 C.3   999  LAT999      0.2141
     19  O1'       22.1230  -20.6420    8.3210 O.3   999  LAT999     -0.1869
     20  O2'       21.0510  -21.0030    5.7140 O.3   999  LAT999     -0.2148
     21  O3'       18.9900  -19.2130    4.9460 O.3   999  LAT999     -0.2175
     22  O5'       21.0910  -18.6100    8.5190 O.3   999  LAT999     -0.3237
     23  O6'       20.8860  -15.2980    9.0690 O.3   999  LAT999     -0.2176
@<TRIPOS>BOND
     1     9     3    1
     2    10     4    1
     3    21    15    1
     4     2     8    1
     5     2     3    1
     6     2     1    1
     7     3     4    1
     8    20    14    1
     9     4     5    1
    10    15    14    1
    11    15    16    1
    12     7     1    1
    13     7    16    1
    14     1    11    1
    15    11     5    1
    16    14    13    1
    17    16    17    1
    18     5     6    1
    19     6    12    1
    20    13    19    1
    21    13    22    1
    22    17    22    1
    23    17    18    1
    24    18    23    1
