@<TRIPOS>MOLECULE
3m2n_J74_A_1.pdb
 23 24 0 0 0
SMALL
GASTEIGER

@<TRIPOS>ATOM
      1  N1        -0.9160   10.0250   14.6220 N.2   262  J74262     -0.2088
      2  C2        -1.1980    8.8840   15.2410 C.3   262  J74262      0.3922
      3  N3        -1.6940    7.8810   14.5470 N.2   262  J74262     -0.0349
      4  C4        -1.8920    7.9190   13.2180 C.2   262  J74262      0.3685
      5  C5        -1.6740    9.1250   12.5000 C.3   262  J74262      0.3233
      6  C6        -1.1970   10.1790   13.3370 C.2   262  J74262      0.1545
      7  N7        -2.3180    6.8070   12.5050 N.pl3 262  J74262     -0.0330
      8  C8        -4.5780    4.5210   14.4680 C.ar  262  J74262     -0.0178
      9  C9        -3.7150    3.4700   14.7510 C.ar  262  J74262     -0.0028
     10  C10       -4.1460    2.3130   15.4770 C.ar  262  J74262      0.0197
     11  C11       -5.5120    2.2970   15.8490 C.ar  262  J74262      0.1250
     12  C12       -6.3760    3.3220   15.5080 C.ar  262  J74262      0.0197
     13  C13       -5.9330    4.4590   14.8070 C.ar  262  J74262     -0.0028
     14  S14       -6.1070    0.8350   16.7440 S.O2  262  J74262      0.0935
     15  O15       -5.5550    0.9590   18.1660 O.2   262  J74262     -0.1503
     16  O16       -7.6570    0.8710   16.5690 O.2   262  J74262     -0.1503
     17  N17       -5.5320   -0.4950   15.9300 N.3   262  J74262      0.0392
     18  N18       -1.9040    9.2140   11.0500 N.pl3 262  J74262      0.0514
     19  O19       -2.0580    8.1800   10.2820 O.2   262  J74262     -0.1300
     20  O20       -1.9210   10.3360   10.4110 O.2   262  J74262     -0.1300
     21 CL21       -0.8310   11.7390   12.7590 Cl    262  J74262     -0.0636
     22  C22       -2.6270    5.5530   13.1740 C.3   262  J74262      0.2556
     23  C23       -4.0830    5.7580   13.6950 C.3   262  J74262      0.0817
@<TRIPOS>BOND
     1    19    18    2
     2    20    18    2
     3    18     5    1
     4     5     4    1
     5     5     6    1
     6     7    22    1
     7     7     4    1
     8    21     6    1
     9    22    23    1
    10     4     3    2
    11     6     1    2
    12    23     8    1
    13     8     9   ar
    14     8    13   ar
    15     3     2    1
    16     1     2    1
    17     9    10   ar
    18    13    12   ar
    19    10    11   ar
    20    12    11   ar
    21    11    14    1
    22    17    14    1
    23    16    14    2
    24    14    15    2
