@<TRIPOS>MOLECULE
3m2p_UDP_B_1.pdb
 25 26 0 0 0
SMALL
GASTEIGER

@<TRIPOS>ATOM
      1  N1        72.6200   63.6040  107.5700 N.am  7517  UDP7517    -0.1766
      2  C2        73.1250   64.5820  106.7210 C.1   7517  UDP7517     0.2845
      3  N3        74.4730   64.4310  106.1130 N.2   7517  UDP7517    -0.2452
      4  C4        75.2540   63.2540  106.4080 C.1   7517  UDP7517     0.2182
      5  C5        74.7330   62.2540  107.2650 C.2   7517  UDP7517     0.1242
      6  C6        73.4250   62.3870  107.8610 C.2   7517  UDP7517     0.0929
      7  O2        72.4860   65.5640  106.4890 O.2   7517  UDP7517    -0.1918
      8  O4        76.5440   63.0830  105.8410 O.2   7517  UDP7517    -0.2085
      9  C1'       71.2490   63.7380  108.1390 C.3   7517  UDP7517     0.2401
     10  C2'       71.1330   64.5670  109.4300 C.3   7517  UDP7517     0.2319
     11  O2'       70.9900   63.9350  110.7000 O.3   7517  UDP7517    -0.2157
     12  C3'       70.1220   65.7030  108.9460 C.3   7517  UDP7517     0.2158
     13  C4'       69.3330   64.9480  107.7970 C.3   7517  UDP7517     0.1799
     14  O4'       70.4010   64.2530  107.1510 O.3   7517  UDP7517    -0.3320
     15  O3'       69.4000   66.4740  109.8840 O.3   7517  UDP7517    -0.2175
     16  C5'       68.2220   65.6130  106.9140 C.3   7517  UDP7517     0.1813
     17  O5'       68.5320   66.7950  106.1660 O.3   7517  UDP7517    -0.3111
     18  PA        67.3010   67.9220  105.8390 P.3   7517  UDP7517     0.2231
     19  O1A       66.7640   68.6790  107.2390 O.3   7517  UDP7517    -0.4370
     20  O2A       67.8360   68.9440  104.9350 O.2   7517  UDP7517    -0.5169
     21  O3A       66.0460   67.0630  105.1180 O.3   7517  UDP7517    -0.2261
     22  PB        65.3440   67.4810  103.6520 P.3   7517  UDP7517     0.5373
     23  O1B       65.6290   66.2670  102.5360 O.2   7517  UDP7517    -0.2221
     24  O2B       63.7110   67.6640  103.8740 O.3   7517  UDP7517    -0.1143
     25  O3B       65.8940   68.7470  103.1630 O.3   7517  UDP7517    -0.1143
@<TRIPOS>BOND
     1    23    22    2
     2    25    22    1
     3    22    24    1
     4    22    21    1
     5    20    18    2
     6    21    18    1
     7    18    17    1
     8    18    19    1
     9     8     4    2
    10     3     4    2
    11     3     2    2
    12    17    16    1
    13     4     5    1
    14     7     2    2
    15     2     1   am
    16    16    13    1
    17    14    13    1
    18    14     9    1
    19     5     6    2
    20     1     6    1
    21     1     9    1
    22    13    12    1
    23     9    10    1
    24    12    10    1
    25    12    15    1
    26    10    11    1
