@<TRIPOS>MOLECULE
3m2r_TPZ_A_1.pdb
 19 18 0 0 0
SMALL
GASTEIGER

@<TRIPOS>ATOM
      1  C         23.2700   39.1450  -19.9540 C.2   556  TPZ556      0.3867
      2  N         23.4970   37.7410  -17.9840 N.am  556  TPZ556     -0.1930
      3  O         24.4970   39.4170  -19.7770 O.co2 556  TPZ556     -0.2437
      4  P         22.2210   42.1460  -17.7230 P.3   556  TPZ556      0.5326
      5  C1        23.2880   36.5250  -17.5550 C.2   556  TPZ556      0.2419
      6  O1        22.1830   35.9700  -17.7300 O.2   556  TPZ556     -0.2733
      7  C2        24.4310   35.8220  -16.9340 C.3   556  TPZ556      0.0869
      8  C3        24.1690   34.3270  -16.8120 C.3   556  TPZ556      0.0105
      9  C4        25.4510   33.5380  -16.5830 C.3   556  TPZ556      0.0130
     10  C5        26.0390   34.0310  -15.3000 C.3   556  TPZ556      0.0687
     11  S5        24.8650   33.9700  -13.8450 S.3   556  TPZ556     -0.0821
     12  CA        22.5470   38.5130  -18.7750 C.3   556  TPZ556      0.2251
     13  CB        21.7360   39.6040  -18.0650 C.3   556  TPZ556      0.1572
     14  CG        21.0450   39.0380  -16.7910 C.3   556  TPZ556      0.0351
     15  O1P       21.6360   42.3820  -19.1060 O.2   556  TPZ556     -0.2224
     16  O2P       21.2410   42.4290  -16.5690 O.3   556  TPZ556     -0.1145
     17  O3P       23.5730   42.8600  -17.5140 O.3   556  TPZ556     -0.1145
     18  O4P       22.6650   40.6060  -17.6520 O.3   556  TPZ556     -0.2704
     19  OXT       22.6740   39.3540  -21.0140 O.co2 556  TPZ556     -0.2437
@<TRIPOS>BOND
     1    19     1   ar
     2     1     3   ar
     3     1    12    1
     4    15     4    2
     5    12    13    1
     6    12     2    1
     7    13    18    1
     8    13    14    1
     9     2     5   am
    10     6     5    2
    11     4    18    1
    12     4    17    1
    13     4    16    1
    14     5     7    1
    15     7     8    1
    16     8     9    1
    17     9    10    1
    18    10    11    1
