@<TRIPOS>MOLECULE
3m2r_TP7_A_1.pdb
 21 20 0 0 0
SMALL
GASTEIGER

@<TRIPOS>ATOM
      1  N         23.4950   37.7440  -17.9740 N.am  554  TP7554     -0.1930
      2  P         22.2210   42.1460  -17.7230 P.3   554  TP7554      0.5326
      3  O1P       23.5730   42.8610  -17.5170 O.3   554  TP7554     -0.1145
      4  O2P       21.6340   42.3810  -19.1070 O.2   554  TP7554     -0.2224
      5  O3P       21.2410   42.4290  -16.5690 O.3   554  TP7554     -0.1145
      6  O4P       22.6650   40.6050  -17.6510 O.3   554  TP7554     -0.2704
      7  CB        21.7370   39.6020  -18.0680 C.3   554  TP7554      0.1572
      8  C         23.2730   39.1370  -19.9560 C.2   554  TP7554      0.3867
      9  O         22.6770   39.3370  -21.0150 O.co2 554  TP7554     -0.2437
     10  OXT       24.4980   39.4170  -19.7770 O.co2 554  TP7554     -0.2437
     11  CA        22.5490   38.5070  -18.7810 C.3   554  TP7554      0.2251
     12  CG        21.0450   39.0410  -16.7910 C.3   554  TP7554      0.0351
     13  O1        22.2570   35.9230  -17.7700 O.2   554  TP7554     -0.2733
     14  C1        23.2910   36.5270  -17.5340 C.2   554  TP7554      0.2419
     15  C2        24.3730   35.8530  -16.7190 C.3   554  TP7554      0.0868
     16  C3        24.1870   34.3370  -16.8210 C.3   554  TP7554      0.0096
     17  C4        25.4270   33.5560  -16.4040 C.3   554  TP7554      0.0005
     18  C5        25.9630   34.0550  -15.1100 C.3   554  TP7554      0.0009
     19  C6        25.0790   33.6190  -13.9480 C.3   554  TP7554      0.0125
     20  C7        24.8160   32.1180  -13.9950 C.3   554  TP7554      0.0687
     21  S7        23.8490   31.6300  -12.5450 S.3   554  TP7554     -0.0821
@<TRIPOS>BOND
     1     9     8   ar
     2     8    10   ar
     3     8    11    1
     4     4     2    2
     5    11     7    1
     6    11     1    1
     7     7     6    1
     8     7    12    1
     9     1    14   am
    10    13    14    2
    11     2     6    1
    12     2     3    1
    13     2     5    1
    14    14    15    1
    15    16    15    1
    16    16    17    1
    17    17    18    1
    18    18    19    1
    19    20    19    1
    20    20    21    1
