@<TRIPOS>MOLECULE
3m2t_NAD_A_1.pdb
 44 48 0 0 0
SMALL
GASTEIGER

@<TRIPOS>ATOM
      1  PA        38.5110   23.1710  116.3040 P.3   358  NAD358      0.2189
      2  O1A       37.5370   24.0220  117.2490 O.3   358  NAD358     -0.4371
      3  O2A       38.3720   23.6270  114.9800 O.2   358  NAD358     -0.5170
      4  O5B       38.2690   21.5800  116.3620 O.3   358  NAD358     -0.3112
      5  C5B       37.9060   20.8990  117.5050 C.3   358  NAD358      0.1813
      6  C4B       36.7790   19.9350  117.3150 C.3   358  NAD358      0.1821
      7  O4B       36.4560   19.1980  118.4890 O.3   358  NAD358     -0.3135
      8  C3B       35.3910   20.5790  116.8860 C.3   358  NAD358      0.2184
      9  O3B       34.8330   20.3480  115.6610 O.3   358  NAD358     -0.2174
     10  C2B       34.5430   20.4380  118.1510 C.3   358  NAD358      0.2570
     11  O2B       33.1870   20.5980  118.0580 O.3   358  NAD358     -0.2130
     12  C1B       35.1170   19.1930  118.6900 C.3   358  NAD358      0.3186
     13  N9A       34.8260   18.9090  120.0570 N.pl3 358  NAD358     -0.1439
     14  C8A       34.9640   19.6470  121.1000 C.3   358  NAD358      0.3377
     15  N7A       34.5800   18.8890  122.1980 N.2   358  NAD358     -0.2095
     16  C5A       34.0360   17.7180  121.7270 C.2   358  NAD358      0.2526
     17  C6A       33.4040   16.6560  122.3240 C.2   358  NAD358      0.4393
     18  N6A       33.2620   16.5880  123.7440 N.pl3 358  NAD358      0.2180
     19  N1A       33.0490   15.6360  121.6220 N.2   358  NAD358      0.0021
     20  C2A       33.2240   15.6230  120.3170 C.3   358  NAD358      0.5254
     21  N3A       33.7470   16.6790  119.7110 N.2   358  NAD358     -0.0055
     22  C4A       34.1570   17.7090  120.4290 C.2   358  NAD358      0.3518
     23  O3        40.0450   23.3850  116.7920 O.3   358  NAD358     -0.2703
     24  PN        41.3740   22.6420  116.2100 P.3   358  NAD358      0.2189
     25  O1N       42.2630   23.8510  115.7670 O.3   358  NAD358     -0.4371
     26  O2N       41.1830   21.6850  114.9790 O.2   358  NAD358     -0.5170
     27  O5D       42.1600   22.0160  117.4610 O.3   358  NAD358     -0.3112
     28  C5D       42.1610   20.6900  117.8850 C.3   358  NAD358      0.1813
     29  C4D       43.4820   20.1810  118.4530 C.3   358  NAD358      0.1799
     30  O4D       44.5960   20.2010  117.5850 O.3   358  NAD358     -0.3327
     31  C3D       44.0240   20.8670  119.7340 C.3   358  NAD358      0.2158
     32  O3D       44.1330   20.2840  120.9660 O.3   358  NAD358     -0.2175
     33  C2D       45.1120   21.8040  119.1660 C.3   358  NAD358      0.2309
     34  O2D       45.8510   22.5330  120.0600 O.3   358  NAD358     -0.2158
     35  C1D       45.6420   20.8410  118.1590 C.3   358  NAD358      0.2263
     36  N1N       46.5000   21.3870  117.1390 N.pl3 358  NAD358     -0.2787
     37  C2N       47.7380   20.7860  116.8190 C.3   358  NAD358      0.1244
     38  C3N       48.7420   21.5230  115.8270 C.2   358  NAD358      0.0544
     39  C7N       49.8800   20.6570  115.3230 C.2   358  NAD358      0.2818
     40  O7N       50.6890   21.0700  114.5860 O.2   358  NAD358     -0.2670
     41  N7N       50.1960   19.5700  116.1690 N.am  358  NAD358     -0.0839
     42  C4N       48.0320   22.4200  114.8960 C.2   358  NAD358      0.0033
     43  C5N       46.6990   22.8250  115.1300 C.2   358  NAD358      0.0157
     44  C6N       45.9880   22.5330  116.3610 C.2   358  NAD358      0.0633
@<TRIPOS>BOND
     1    40    39    2
     2    42    43    1
     3    42    38    2
     4    26    24    2
     5     3     1    2
     6    43    44    2
     7    39    38    1
     8    39    41   am
     9     9     8    1
    10    25    24    1
    11    38    37    1
    12    24    23    1
    13    24    27    1
    14     1     4    1
    15     1    23    1
    16     1     2    1
    17    44    36    1
    18     4     5    1
    19    37    36    1
    20     8     6    1
    21     8    10    1
    22    36    35    1
    23     6     5    1
    24     6     7    1
    25    27    28    1
    26    30    35    1
    27    30    29    1
    28    28    29    1
    29    11    10    1
    30    10    12    1
    31    35    33    1
    32    29    31    1
    33     7    12    1
    34    12    13    1
    35    33    31    1
    36    33    34    1
    37    21    20    1
    38    21    22    2
    39    31    32    1
    40    13    22    1
    41    13    14    1
    42    20    19    1
    43    22    16    1
    44    14    15    1
    45    19    17    2
    46    16    15    2
    47    16    17    1
    48    17    18    1
