@<TRIPOS>MOLECULE
3m2u_TXZ_A_1.pdb
 20 19 0 0 0
SMALL
GASTEIGER

@<TRIPOS>ATOM
      1  C         23.3090   38.9740  -20.0060 C.2   555  TXZ555      0.3867
      2  N         23.5660   37.6400  -17.9430 N.am  555  TXZ555     -0.1893
      3  O         24.5510   39.2930  -19.8320 O.co2 555  TXZ555     -0.2437
      4  P         22.2190   42.0550  -17.8220 P.3   555  TXZ555      0.5326
      5  C1        23.3960   36.3990  -17.4470 C.2   555  TXZ555      0.2651
      6  O1        22.3400   35.7600  -17.6620 O.2   555  TXZ555     -0.2684
      7  C2        24.5470   35.8960  -16.5700 C.2   555  TXZ555      0.0549
      8  C3        24.8950   34.3690  -16.5980 C.2   555  TXZ555     -0.0214
      9  C4        25.9330   33.8830  -15.5850 C.3   555  TXZ555      0.0271
     10  C5        25.2760   33.4920  -14.2390 C.3   555  TXZ555      0.0172
     11  C6        25.0470   31.9970  -14.2380 C.3   555  TXZ555      0.0690
     12  S6        24.0990   31.4360  -12.8190 S.3   555  TXZ555     -0.0821
     13  CA        22.5720   38.3250  -18.8340 C.3   555  TXZ555      0.2254
     14  CB        21.7420   39.4370  -18.1170 C.3   555  TXZ555      0.1572
     15  CG        21.0540   38.8870  -16.8300 C.3   555  TXZ555      0.0351
     16  O1P       23.5680   42.8180  -17.6170 O.3   555  TXZ555     -0.1145
     17  O2P       21.6410   42.2790  -19.1940 O.2   555  TXZ555     -0.2224
     18  O3P       21.2680   42.3560  -16.6960 O.3   555  TXZ555     -0.1145
     19  O4P       22.6740   40.5030  -17.7110 O.3   555  TXZ555     -0.2704
     20  OXT       22.6940   39.2220  -21.0660 O.co2 555  TXZ555     -0.2437
@<TRIPOS>BOND
     1    20     1   ar
     2     1     3   ar
     3     1    13    1
     4    17     4    2
     5    13    14    1
     6    13     2    1
     7    14    19    1
     8    14    15    1
     9     2     5   am
    10     4    19    1
    11     4    16    1
    12     4    18    1
    13     6     5    2
    14     5     7    1
    15     8     7    2
    16     8     9    1
    17     9    10    1
    18    10    11    1
    19    11    12    1
