@<TRIPOS>MOLECULE
3m2u_TP7_A_1.pdb
 21 20 0 0 0
SMALL
GASTEIGER

@<TRIPOS>ATOM
      1  N         23.5750   37.6810  -17.9710 N.am  553  TP7553     -0.1930
      2  P         22.2190   42.0560  -17.8220 P.3   553  TP7553      0.5326
      3  O1P       23.5680   42.8170  -17.6180 O.3   553  TP7553     -0.1145
      4  O2P       21.6410   42.2800  -19.1940 O.2   553  TP7553     -0.2224
      5  O3P       21.2680   42.3580  -16.6970 O.3   553  TP7553     -0.1145
      6  O4P       22.6720   40.5060  -17.7120 O.3   553  TP7553     -0.2704
      7  CB        21.7290   39.4540  -18.1180 C.3   553  TP7553      0.1572
      8  C         23.3040   38.9850  -20.0050 C.2   553  TP7553      0.3867
      9  O         22.6930   39.2220  -21.0690 O.co2 553  TP7553     -0.2437
     10  OXT       24.5490   39.2940  -19.8330 O.co2 553  TP7553     -0.2437
     11  CA        22.5600   38.3520  -18.8270 C.3   553  TP7553      0.2251
     12  CG        21.0520   38.8930  -16.8310 C.3   553  TP7553      0.0351
     13  O1        22.3000   35.8110  -17.7090 O.2   553  TP7553     -0.2733
     14  C1        23.3450   36.4520  -17.5360 C.2   553  TP7553      0.2419
     15  C2        24.4200   35.7910  -16.7710 C.3   553  TP7553      0.0868
     16  C3        24.2780   34.2440  -16.8870 C.3   553  TP7553      0.0096
     17  C4        25.6430   33.6360  -16.5800 C.3   553  TP7553      0.0005
     18  C5        26.1240   34.1340  -15.2410 C.3   553  TP7553      0.0009
     19  C6        25.2570   33.5540  -14.0880 C.3   553  TP7553      0.0125
     20  C7        25.0240   32.0620  -14.2250 C.3   553  TP7553      0.0687
     21  S7        24.0980   31.4290  -12.8200 S.3   553  TP7553     -0.0821
@<TRIPOS>BOND
     1     9     8   ar
     2     8    10   ar
     3     8    11    1
     4     4     2    2
     5    11     7    1
     6    11     1    1
     7     7     6    1
     8     7    12    1
     9     1    14   am
    10     2     6    1
    11     2     3    1
    12     2     5    1
    13    13    14    2
    14    14    15    1
    15    16    15    1
    16    16    17    1
    17    17    18    1
    18    18    19    1
    19    20    19    1
    20    20    21    1
