@<TRIPOS>MOLECULE
3m2v_TP7_A_1.pdb
 21 20 0 0 0
SMALL
GASTEIGER

@<TRIPOS>ATOM
      1  N         23.4370   37.6830  -18.0120 N.am  552  TP7552     -0.1930
      2  P         22.1830   42.0840  -17.8190 P.3   552  TP7552      0.5326
      3  O1P       23.5280   42.8360  -17.6070 O.3   552  TP7552     -0.1145
      4  O2P       21.5270   42.3140  -19.1700 O.2   552  TP7552     -0.2224
      5  O3P       21.2090   42.3000  -16.6580 O.3   552  TP7552     -0.1145
      6  O4P       22.6030   40.5030  -17.6620 O.3   552  TP7552     -0.2704
      7  CB        21.6680   39.4920  -18.0770 C.3   552  TP7552      0.1572
      8  C         23.2180   39.0360  -20.0060 C.2   552  TP7552      0.3867
      9  O         22.6200   39.2140  -21.1000 O.co2 552  TP7552     -0.2437
     10  OXT       24.4120   39.3740  -19.8010 O.co2 552  TP7552     -0.2437
     11  CA        22.4570   38.4180  -18.8280 C.3   552  TP7552      0.2251
     12  CG        21.0080   38.8820  -16.8310 C.3   552  TP7552      0.0351
     13  O1        22.0950   35.8770  -17.6550 O.2   552  TP7552     -0.2733
     14  C1        23.1840   36.4420  -17.5270 C.2   552  TP7552      0.2419
     15  C2        24.3000   35.7680  -16.7500 C.3   552  TP7552      0.0868
     16  C3        24.1810   34.2500  -16.8800 C.3   552  TP7552      0.0096
     17  C4        25.4790   33.4930  -16.5500 C.3   552  TP7552      0.0005
     18  C5        26.0760   33.9780  -15.2390 C.3   552  TP7552      0.0009
     19  C6        25.3090   33.5460  -13.9750 C.3   552  TP7552      0.0125
     20  C7        25.0700   32.0360  -14.0610 C.3   552  TP7552      0.0687
     21  S7        23.9910   31.4540  -12.7370 S.3   552  TP7552     -0.0821
@<TRIPOS>BOND
     1     9     8   ar
     2     8    10   ar
     3     8    11    1
     4     4     2    2
     5    11     7    1
     6    11     1    1
     7     7     6    1
     8     7    12    1
     9     1    14   am
    10     2     6    1
    11     2     3    1
    12     2     5    1
    13    13    14    2
    14    14    15    1
    15    16    15    1
    16    16    17    1
    17    17    18    1
    18    18    19    1
    19    20    19    1
    20    20    21    1
