@<TRIPOS>MOLECULE
3m2v_XP8_A_1.pdb
 22 21 0 0 0
SMALL
GASTEIGER

@<TRIPOS>ATOM
      1  C         23.2250   39.0300  -20.0010 C.2   554  XP8554      0.3867
      2  N         23.4510   37.6890  -17.9980 N.am  554  XP8554     -0.1930
      3  O         22.6240   39.2100  -21.0940 O.co2 554  XP8554     -0.2437
      4  P         22.1850   42.0770  -17.8190 P.3   554  XP8554      0.5326
      5  C1        23.1990   36.4510  -17.5060 C.2   554  XP8554      0.2419
      6  O1        22.1120   35.8810  -17.6370 O.2   554  XP8554     -0.2733
      7  C2        24.3130   35.7860  -16.7190 C.3   554  XP8554      0.0868
      8  C3        24.1630   34.2670  -16.7860 C.3   554  XP8554      0.0096
      9  C4        25.4360   33.5000  -16.4060 C.3   554  XP8554      0.0005
     10  C5        26.0230   33.9830  -15.0880 C.3   554  XP8554      0.0000
     11  C6        25.1870   33.6870  -13.8200 C.3   554  XP8554      0.0009
     12  C7        25.1160   32.1760  -13.5730 C.3   554  XP8554      0.0125
     13  C8        24.6020   31.7860  -12.1870 C.3   554  XP8554      0.0687
     14  S8        25.9450   31.5470  -10.9670 S.3   554  XP8554     -0.0821
     15  CA        22.4690   38.4130  -18.8210 C.3   554  XP8554      0.2251
     16  CB        21.6780   39.4840  -18.0700 C.3   554  XP8554      0.1572
     17  CG        21.0240   38.8720  -16.8220 C.3   554  XP8554      0.0351
     18  O1P       23.5290   42.8330  -17.6110 O.3   554  XP8554     -0.1145
     19  O2P       21.5260   42.3010  -19.1690 O.2   554  XP8554     -0.2224
     20  O3P       21.2110   42.2940  -16.6580 O.3   554  XP8554     -0.1145
     21  O4P       22.6100   40.4980  -17.6580 O.3   554  XP8554     -0.2704
     22  OXT       24.4210   39.3640  -19.8000 O.co2 554  XP8554     -0.2437
@<TRIPOS>BOND
     1     3     1   ar
     2     1    22   ar
     3     1    15    1
     4    19     4    2
     5    15    16    1
     6    15     2    1
     7    16    21    1
     8    16    17    1
     9     2     5   am
    10     4    21    1
    11     4    18    1
    12     4    20    1
    13     6     5    2
    14     5     7    1
    15     8     7    1
    16     8     9    1
    17     9    10    1
    18    10    11    1
    19    11    12    1
    20    12    13    1
    21    13    14    1
