@<TRIPOS>MOLECULE
3m2w_L8I_A_1.pdb
 29 34 0 0 0
SMALL
GASTEIGER

@<TRIPOS>ATOM
      1  F1        35.6060    3.4560   14.9520 F       1  L8I1       -0.2041
      2  C2        35.4680    3.8250   13.6740 C.ar    1  L8I1        0.1415
      3  C3        36.3700    4.6900   13.0540 C.ar    1  L8I1        0.0451
      4  C4        36.2080    5.0540   11.7280 C.ar    1  L8I1        0.0037
      5  C6        35.1280    4.5510   11.0110 C.ar    1  L8I1        0.0002
      6  C8        34.2310    3.6720   11.6260 C.ar    1  L8I1        0.0023
      7  C10       34.3920    3.3180   12.9550 C.ar    1  L8I1        0.0297
      8  C12       37.5130    5.2770   13.7690 C.ar    1  L8I1        0.0835
      9  N13       38.5820    5.6040   13.0200 N.ar    1  L8I1       -0.2441
     10  C14       39.6670    6.1750   13.5520 C.ar    1  L8I1        0.0946
     11  C16       39.7140    6.4530   14.9180 C.ar    1  L8I1       -0.0002
     12  C17       38.6120    6.1180   15.7060 C.ar    1  L8I1        0.0283
     13  C18       37.4800    5.5440   15.1400 C.ar    1  L8I1        0.0214
     14  C20       38.6800    6.4310   17.1550 C.2     1  L8I1        0.1275
     15  N21       37.9170    6.0220   18.1170 N.2     1  L8I1       -0.4057
     16  C23       38.2930    6.5310   19.2680 C.2     1  L8I1        0.1233
     17  C24       39.3690    7.3240   19.0810 C.2     1  L8I1        0.1067
     18  C25       39.6180    7.2520   17.6360 C.2     1  L8I1        0.0208
     19  C26       40.6590    7.9360   16.8000 C.3     1  L8I1        0.0345
     20  C29       40.9670    7.0940   15.5330 C.3     1  L8I1        0.0328
     21  C32       40.0070    8.0830   20.1680 C.1     1  L8I1        0.1520
     22  N33       39.4130    8.0790   21.3760 N.2     1  L8I1       -0.2020
     23  C35       38.1820    7.3490   21.6740 C.3     1  L8I1        0.1471
     24  C38       37.7020    6.3020   20.6390 C.3     1  L8I1        0.0999
     25  C39       37.9850    4.8390   21.0540 C.3     1  L8I1        0.0821
     26  N42       36.5710    4.6780   21.4640 N.3     1  L8I1       -0.2706
     27  C43       36.2040    5.9810   20.8300 C.3     1  L8I1        0.0821
     28  C46       36.3460    4.5230   22.9320 C.3     1  L8I1        0.0897
     29  O50       41.0140    8.7550   19.9850 O.2     1  L8I1       -0.2222
@<TRIPOS>BOND
     1     5     6   ar
     2     5     4   ar
     3     6     7   ar
     4     4     3   ar
     5     7     2   ar
     6     9    10   ar
     7     9     8   ar
     8     3     2   ar
     9     3     8    1
    10    10    11   ar
    11     2     1    1
    12     8    13   ar
    13    11    20    1
    14    11    12   ar
    15    13    12   ar
    16    20    19    1
    17    12    14    1
    18    19    18    1
    19    14    18    1
    20    14    15    2
    21    18    17    2
    22    15    16    2
    23    17    16    1
    24    17    21    1
    25    16    24    1
    26    29    21    2
    27    21    22    2
    28    24    27    1
    29    24    25    1
    30    24    23    1
    31    27    26    1
    32    25    26    1
    33    22    23    1
    34    26    28    1
