@<TRIPOS>MOLECULE
3m2x_BEX_A_1.pdb
 24 25 0 0 0
SMALL
GASTEIGER

@<TRIPOS>ATOM
      1  C4        15.7840    6.4520   13.9990 C.ar  502  BEX502      0.0735
      2  C5        16.9660    7.2040   13.9590 C.ar  502  BEX502      0.0563
      3  C6        17.0170    8.4180   13.2700 C.ar  502  BEX502      0.1737
      4  C8        14.8460   10.8370   11.4170 C.3   502  BEX502      0.2526
      5  C10       19.2720    8.7300   14.0050 C.3   502  BEX502      0.2526
      6  C20       18.6930    3.2260   11.7270 C.ar  502  BEX502      0.0370
      7  C21       19.1270    2.1570   10.9270 C.ar  502  BEX502      0.0031
      8  C22       18.2370    1.1110   10.6550 C.ar  502  BEX502      0.0002
      9  C24       16.5180    2.1920   11.9770 C.ar  502  BEX502      0.0370
     10  O7        16.0000   10.1340   11.9270 O.3   502  BEX502     -0.4684
     11  C1        15.8800    8.9030   12.6030 C.ar  502  BEX502      0.1725
     12  O9        18.1780    9.2040   13.2070 O.3   502  BEX502     -0.4683
     13  N11       15.6690    5.2170   14.6820 N.pl3 502  BEX502     -0.1818
     14  C12       16.2180    4.1340   14.1200 C.3   502  BEX502      0.3680
     15  N13       16.5460    3.0800   14.8420 N.3   502  BEX502     -0.0001
     16  S14       15.8760    2.6950   16.2870 S.O2  502  BEX502      0.1511
     17  O15       16.7210    3.2300   17.3540 O.2   502  BEX502     -0.1370
     18  O16       14.5710    3.2610   16.3980 O.2   502  BEX502     -0.1370
     19  N17       15.7180    1.0830   16.5120 N.3   502  BEX502      0.0529
     20  O18       16.9980    4.3230   13.0440 O.3   502  BEX502     -0.4442
     21  C19       17.3910    3.2510   12.2570 C.ar  502  BEX502      0.1421
     22  C23       16.9410    1.1230   11.1860 C.ar  502  BEX502      0.0031
     23  C3        14.6520    6.9390   13.3270 C.ar  502  BEX502      0.0196
     24  C2        14.7000    8.1620   12.6350 C.ar  502  BEX502      0.0414
@<TRIPOS>BOND
     1     8     7   ar
     2     8    22   ar
     3     7     6   ar
     4    22     9   ar
     5     4    10    1
     6     6    21   ar
     7    10    11    1
     8     9    21   ar
     9    21    20    1
    10    11    24   ar
    11    11     3   ar
    12    24    23   ar
    13    20    14    1
    14    12     3    1
    15    12     5    1
    16     3     2   ar
    17    23     1   ar
    18     2     1   ar
    19     1    13    1
    20    14    13    1
    21    14    15    1
    22    15    16    1
    23    16    18    2
    24    16    19    1
    25    16    17    2
