@<TRIPOS>MOLECULE
3m2y_BE0_A_1.pdb
 10 10 0 0 0
SMALL
GASTEIGER

@<TRIPOS>ATOM
      1  N1        32.7110    0.4670   12.8320 N.3   503  BE0503     -0.1430
      2  O1        30.8450   -0.0990   14.4050 O.2   503  BE0503     -0.1383
      3  S1        31.7470    0.9630   14.0360 S.O2  503  BE0503      0.1327
      4  O2        31.2100    2.2700   13.6220 O.2   503  BE0503     -0.1383
      5  N2        32.7110    1.2400   15.3610 N.3   503  BE0503      0.0516
      6  CB1       33.3270   -0.8510   13.0910 C.3   503  BE0503      0.0970
      7  CC1       33.9710   -1.3690   11.7700 C.3   503  BE0503      0.0192
      8  CD1       34.9460   -0.3430   11.2100 C.3   503  BE0503      0.0030
      9  CC2       34.2500    1.0140   10.9830 C.3   503  BE0503      0.0192
     10  CB2       33.6720    1.4700   12.3440 C.3   503  BE0503      0.0970
@<TRIPOS>BOND
     1     9     8    1
     2     9    10    1
     3     8     7    1
     4     7     6    1
     5    10     1    1
     6     1     6    1
     7     1     3    1
     8     4     3    2
     9     3     2    2
    10     3     5    1
