@<TRIPOS>MOLECULE
3m2z_BFE_A_1.pdb
 12 12 0 0 0
SMALL
GASTEIGER

@<TRIPOS>ATOM
      1  C4        27.0910   -4.1930    4.4900 C.ar  501  BFE501      0.0550
      2  C5        27.7470   -5.4350    4.4740 C.ar  501  BFE501      0.0046
      3  C6        28.0150   -6.0950    3.2700 C.ar  501  BFE501      0.0001
      4  C7        26.7650   -3.4310    5.7650 C.2   501  BFE501      0.2648
      5  C10       25.5830   -1.7330    7.0790 C.3   501  BFE501      0.1280
      6  C2        26.9620   -4.3090    2.0540 C.ar  501  BFE501      0.0001
      7  C3        26.6970   -3.6570    3.2610 C.ar  501  BFE501      0.0046
      8  N9        26.0970   -2.2560    5.8200 N.am  501  BFE501     -0.2007
      9  C11       24.3630   -2.4700    7.6920 C.3   501  BFE501      0.0921
     10  S12       23.7000   -1.3960    9.0360 S.3   501  BFE501     -0.0802
     11  O8        27.1580   -3.9650    6.8420 O.2   501  BFE501     -0.2684
     12  C1        27.6300   -5.5350    2.0500 C.ar  501  BFE501      0.0000
@<TRIPOS>BOND
     1    12     6   ar
     2    12     3   ar
     3     6     7   ar
     4     7     1   ar
     5     3     2   ar
     6     2     1   ar
     7     1     4    1
     8     4     8   am
     9     4    11    2
    10     8     5    1
    11     5     9    1
    12     9    10    1
