@<TRIPOS>MOLECULE
3m30_XP9_A_1.pdb
 23 22 0 0 0
SMALL
GASTEIGER

@<TRIPOS>ATOM
      1  C         23.2470   39.1160  -19.9750 C.2   555  XP9555      0.3867
      2  N         23.4910   37.7330  -18.0350 N.am  555  XP9555     -0.1930
      3  O         24.4800   39.3970  -19.7920 O.co2 555  XP9555     -0.2437
      4  P         22.2080   42.1660  -17.7350 P.3   555  XP9555      0.5326
      5  C1        23.2420   36.4980  -17.6040 C.2   555  XP9555      0.2419
      6  O1        22.1460   35.9290  -17.7670 O.2   555  XP9555     -0.2733
      7  C2        24.3830   35.7800  -16.9010 C.3   555  XP9555      0.0868
      8  C3        24.1390   34.2580  -16.7670 C.3   555  XP9555      0.0096
      9  C4        25.3880   33.4780  -16.3080 C.3   555  XP9555      0.0005
     10  C5        25.9460   33.9370  -14.9630 C.3   555  XP9555      0.0000
     11  C6        24.8370   34.2370  -13.9130 C.3   555  XP9555      0.0000
     12  C7        23.9970   33.0030  -13.5380 C.3   555  XP9555      0.0009
     13  C8        24.5680   31.8430  -12.6850 C.3   555  XP9555      0.0125
     14  C9        25.5470   32.1460  -11.5480 C.3   555  XP9555      0.0687
     15  S9        26.3260   30.5850  -11.0180 S.3   555  XP9555     -0.0821
     16  CA        22.5020   38.4950  -18.8120 C.3   555  XP9555      0.2251
     17  CB        21.7200   39.5850  -18.0710 C.3   555  XP9555      0.1572
     18  CG        21.0630   39.0590  -16.7720 C.3   555  XP9555      0.0351
     19  O1P       23.5630   42.8770  -17.5280 O.3   555  XP9555     -0.1145
     20  O2P       21.6190   42.4220  -19.0900 O.2   555  XP9555     -0.2224
     21  O3P       21.2540   42.4150  -16.6060 O.3   555  XP9555     -0.1145
     22  O4P       22.6450   40.6030  -17.6540 O.3   555  XP9555     -0.2704
     23  OXT       22.6080   39.3310  -21.0520 O.co2 555  XP9555     -0.2437
@<TRIPOS>BOND
     1    23     1   ar
     2     1     3   ar
     3     1    16    1
     4    20     4    2
     5    16    17    1
     6    16     2    1
     7    17    22    1
     8    17    18    1
     9     2     5   am
    10     6     5    2
    11     4    22    1
    12     4    19    1
    13     4    21    1
    14     5     7    1
    15     7     8    1
    16     8     9    1
    17     9    10    1
    18    10    11    1
    19    11    12    1
    20    12    13    1
    21    13    14    1
    22    14    15    1
