@<TRIPOS>MOLECULE
3m30_TP7_A_1.pdb
 21 20 0 0 0
SMALL
GASTEIGER

@<TRIPOS>ATOM
      1  N         23.4960   37.7410  -18.0410 N.am  553  TP7553     -0.1930
      2  P         22.2030   42.1620  -17.7440 P.3   553  TP7553      0.5326
      3  O1P       23.5540   42.9040  -17.5490 O.3   553  TP7553     -0.1145
      4  O2P       21.6100   42.4000  -19.0990 O.2   553  TP7553     -0.2224
      5  O3P       21.2560   42.4220  -16.6150 O.3   553  TP7553     -0.1145
      6  O4P       22.6460   40.5980  -17.6480 O.3   553  TP7553     -0.2704
      7  CB        21.7070   39.5900  -18.0870 C.3   553  TP7553      0.1572
      8  C         23.2540   39.1310  -19.9800 C.2   553  TP7553      0.3867
      9  O         22.6120   39.3430  -21.0620 O.co2 553  TP7553     -0.2437
     10  OXT       24.4890   39.4250  -19.7930 O.co2 553  TP7553     -0.2437
     11  CA        22.5030   38.5040  -18.8180 C.3   553  TP7553      0.2251
     12  CG        21.0530   39.0450  -16.7840 C.3   553  TP7553      0.0351
     13  O1        22.1350   35.9350  -17.7900 O.2   553  TP7553     -0.2733
     14  C1        23.2400   36.5050  -17.6240 C.2   553  TP7553      0.2419
     15  C2        24.3860   35.7800  -16.9440 C.3   553  TP7553      0.0868
     16  C3        24.2050   34.2450  -16.9360 C.3   553  TP7553      0.0096
     17  C4        25.5050   33.4940  -16.5240 C.3   553  TP7553      0.0005
     18  C5        26.0930   33.9610  -15.1970 C.3   553  TP7553      0.0009
     19  C6        25.1950   33.4780  -14.0270 C.3   553  TP7553      0.0125
     20  C7        25.2980   31.9620  -13.7700 C.3   553  TP7553      0.0687
     21  S7        23.9170   31.3310  -12.7830 S.3   553  TP7553     -0.0821
@<TRIPOS>BOND
     1     9     8   ar
     2     8    10   ar
     3     8    11    1
     4     4     2    2
     5    11     7    1
     6    11     1    1
     7     7     6    1
     8     7    12    1
     9     1    14   am
    10    13    14    2
    11     2     6    1
    12     2     3    1
    13     2     5    1
    14    14    15    1
    15    15    16    1
    16    16    17    1
    17    17    18    1
    18    18    19    1
    19    19    20    1
    20    20    21    1
