@<TRIPOS>MOLECULE
3m32_TP7_A_1.pdb
 21 20 0 0 0
SMALL
GASTEIGER

@<TRIPOS>ATOM
      1  N         23.4260   37.7720  -18.0880 N.am  553  TP7553     -0.1930
      2  P         22.1630   42.2750  -17.8080 P.3   553  TP7553      0.5326
      3  O1P       23.5360   42.9380  -17.5630 O.3   553  TP7553     -0.1145
      4  O2P       21.5920   42.6110  -19.1510 O.2   553  TP7553     -0.2224
      5  O3P       21.2300   42.6030  -16.6810 O.3   553  TP7553     -0.1145
      6  O4P       22.5810   40.7250  -17.7230 O.3   553  TP7553     -0.2704
      7  CB        21.6700   39.6710  -18.1090 C.3   553  TP7553      0.1572
      8  C         23.2180   39.1470  -19.9870 C.2   553  TP7553      0.3867
      9  O         22.5970   39.3690  -21.0610 O.co2 553  TP7553     -0.2437
     10  OXT       24.4580   39.3920  -19.7980 O.co2 553  TP7553     -0.2437
     11  CA        22.4430   38.5480  -18.8230 C.3   553  TP7553      0.2251
     12  CG        21.0170   39.2360  -16.7830 C.3   553  TP7553      0.0351
     13  O1        22.1300   36.0440  -17.6130 O.2   553  TP7553     -0.2733
     14  C1        23.2620   36.5750  -17.5850 C.2   553  TP7553      0.2419
     15  C2        24.4180   35.8200  -17.0210 C.3   553  TP7553      0.0868
     16  C3        24.2660   34.3070  -17.0410 C.3   553  TP7553      0.0096
     17  C4        25.5470   33.5890  -16.6050 C.3   553  TP7553      0.0005
     18  C5        26.1450   34.0280  -15.2770 C.3   553  TP7553      0.0009
     19  C6        25.2910   33.5800  -14.0150 C.3   553  TP7553      0.0125
     20  C7        25.0740   32.0780  -14.0390 C.3   553  TP7553      0.0687
     21  S7        24.0480   31.5140  -12.6250 S.3   553  TP7553     -0.0821
@<TRIPOS>BOND
     1     9     8   ar
     2     8    10   ar
     3     8    11    1
     4     4     2    2
     5    11     7    1
     6    11     1    1
     7     7     6    1
     8     7    12    1
     9     1    14   am
    10     2     6    1
    11     2     3    1
    12     2     5    1
    13    13    14    2
    14    14    15    1
    15    16    15    1
    16    16    17    1
    17    17    18    1
    18    18    19    1
    19    20    19    1
    20    20    21    1
