@<TRIPOS>MOLECULE
3m32_SHT_A_1.pdb
 28 27 0 0 0
SMALL
GASTEIGER

@<TRIPOS>ATOM
      1  S1        26.1130   30.4570  -11.5520 S.3   555  SHT555     -0.0804
      2  OS3       28.5710   31.2390   -7.8850 O.3   555  SHT555     -0.3075
      3  SG2       27.3170   32.0190   -7.8300 S.3   555  SHT555     -0.1951
      4  OS1       27.6490   33.4290   -8.0150 O.3   555  SHT555     -0.3075
      5  OS2       26.6840   31.9460   -6.4950 O.3   555  SHT555     -0.3075
      6  CD        26.3200   31.6730   -9.0370 C.3   555  SHT555      0.1177
      7  CC        26.8810   31.6990  -10.5040 C.3   555  SHT555      0.0901
      8  SK        24.4450   31.2110  -12.4690 S.3   555  SHT555     -0.0821
      9  CK6       25.0990   31.9420  -14.0060 C.3   555  SHT555      0.0687
     10  CK5       25.2230   33.4830  -13.9970 C.3   555  SHT555      0.0125
     11  CK4       26.1070   34.0330  -15.2010 C.3   555  SHT555      0.0009
     12  CK3       25.5470   33.6780  -16.5570 C.3   555  SHT555      0.0005
     13  CK2       24.2480   34.4260  -16.8370 C.3   555  SHT555      0.0096
     14  CK1       24.3370   35.9430  -16.7600 C.3   555  SHT555      0.0868
     15  CK        23.2560   36.6140  -17.5490 C.2   555  SHT555      0.2419
     16  OK        22.1570   36.0220  -17.7770 O.2   555  SHT555     -0.2733
     17  N         23.4520   37.8480  -17.9870 N.am  555  SHT555     -0.1930
     18  CA        22.4950   38.5360  -18.8350 C.3   555  SHT555      0.2251
     19  C         23.2430   39.1880  -19.9950 C.2   555  SHT555      0.3867
     20  OXT       22.6190   39.3580  -21.0660 O.co2 555  SHT555     -0.2437
     21  O         24.4540   39.5640  -19.8570 O.co2 555  SHT555     -0.2437
     22  CB        21.7110   39.5960  -18.0720 C.3   555  SHT555      0.1572
     23  CG2       21.0440   38.9740  -16.8000 C.3   555  SHT555      0.0351
     24  O3'       22.6560   40.6070  -17.6720 O.3   555  SHT555     -0.2704
     25  P         22.1890   42.1490  -17.7890 P.3   555  SHT555      0.5326
     26  O1P       23.5120   42.9670  -17.5960 O.3   555  SHT555     -0.1145
     27  O2P       21.5870   42.2730  -19.1730 O.2   555  SHT555     -0.2224
     28  O8P       21.2280   42.3330  -16.6610 O.3   555  SHT555     -0.1145
@<TRIPOS>BOND
     1    20    19   ar
     2    19    21   ar
     3    19    18    1
     4    27    25    2
     5    18    22    1
     6    18    17    1
     7    22    24    1
     8    22    23    1
     9    17    15   am
    10    25    24    1
    11    25    26    1
    12    25    28    1
    13    16    15    2
    14    15    14    1
    15    13    14    1
    16    13    12    1
    17    12    11    1
    18    11    10    1
    19     9    10    1
    20     9     8    1
    21     8     1    1
    22     1     7    1
    23     7     6    1
    24     6     3    1
    25     4     3    1
    26     2     3    1
    27     3     5    1
