@<TRIPOS>MOLECULE
3m34_TPP_A_1.pdb
 26 27 0 0 0
SMALL
GASTEIGER

@<TRIPOS>ATOM
      1  N1'        4.9470   31.7790    9.7380 N.2   7327  TPP7327    -0.1861
      2  C2'        5.8500   31.8170    8.7110 C.1   7327  TPP7327     0.0663
      3  CM2        5.3580   31.8640    7.2550 C.3   7327  TPP7327     0.1291
      4  N3'        7.1660   31.9420    8.9910 N.2   7327  TPP7327    -0.3368
      5  C4'        7.5990   31.9730   10.2650 C.2   7327  TPP7327     0.2292
      6  N4'        8.9070   32.1040   10.5250 N.pl3 7327  TPP7327    -0.0925
      7  C5'        6.6860   31.8680   11.3480 C.2   7327  TPP7327     0.0654
      8  C6'        5.3470   31.8020   11.0080 C.2   7327  TPP7327     0.1115
      9  C7'        7.1180   31.8760   12.8210 C.3   7327  TPP7327     0.1237
     10  N3         7.7850   30.5970   13.1840 N.pl3 7327  TPP7327    -0.2970
     11  C2         9.1320   30.4560   13.2310 C.3   7327  TPP7327     0.1543
     12  S1         9.5350   28.8150   13.5490 S.3   7327  TPP7327    -0.0951
     13  C5         7.9040   28.3960   13.8770 C.2   7327  TPP7327     0.0164
     14  C4         7.1100   29.4850   13.5320 C.2   7327  TPP7327     0.0279
     15  CM4        5.5980   29.4460   13.6470 C.3   7327  TPP7327     0.0473
     16  C6         7.5750   27.0030   14.3080 C.3   7327  TPP7327     0.0661
     17  C7         8.4040   26.1820   13.3690 C.3   7327  TPP7327     0.1544
     18  O7         8.6540   25.0510   13.9720 O.3   7327  TPP7327    -0.3134
     19  PA         9.6470   24.1310   13.4430 P.3   7327  TPP7327     0.2230
     20  O1A        8.7340   23.0630   13.9200 O.3   7327  TPP7327    -0.4370
     21  O2A        9.5450   24.4880   12.0330 O.2   7327  TPP7327    -0.5169
     22  O3A       10.6430   24.7410   14.3200 O.3   7327  TPP7327    -0.2261
     23  PB        11.5990   23.9850   15.3850 P.3   7327  TPP7327     0.5373
     24  O1B       10.7640   24.4410   16.5520 O.3   7327  TPP7327    -0.1143
     25  O2B       11.3120   22.4670   15.6320 O.2   7327  TPP7327    -0.2221
     26  O3B       12.8240   24.6210   15.7110 O.3   7327  TPP7327    -0.1143
@<TRIPOS>BOND
     1     3     2    1
     2     2     4    2
     3     2     1    2
     4     4     5    2
     5     1     8    1
     6     5     6    1
     7     5     7    1
     8     8     7    2
     9     7     9    1
    10    21    19    2
    11     9    10    1
    12    10    11    1
    13    10    14    1
    14    11    12    1
    15    17    18    1
    16    17    16    1
    17    19    20    1
    18    19    18    1
    19    19    22    1
    20    14    15    1
    21    14    13    2
    22    12    13    1
    23    13    16    1
    24    22    23    1
    25    23    25    2
    26    23    26    1
    27    23    24    1
