@<TRIPOS>MOLECULE
3m35_M35_A_1.pdb
 37 40 0 0 0
SMALL
GASTEIGER

@<TRIPOS>ATOM
      1  C1        17.2430   67.1500   25.4920 C.ar  301  M35301     -0.0027
      2  F1        24.0950   67.9160   21.0680 F     301  M35301     -0.1643
      3  N1        20.0710   68.5200   22.4700 N.ar  301  M35301     -0.2252
      4  S1        18.9970   78.5930   21.2640 S.O2  301  M35301      0.0104
      5  C2        16.8830   67.0630   24.0770 C.ar  301  M35301      0.0013
      6  F2        22.8450   66.3480   20.2720 F     301  M35301     -0.1643
      7  C3        17.8330   67.5390   23.0630 C.ar  301  M35301      0.0191
      8  F3        23.0930   68.1790   19.1970 F     301  M35301     -0.1643
      9  N3        20.2050   67.1420   27.6090 N.3   301  M35301     -0.1262
     10  O3        18.8650   70.9740   23.2450 O.2   301  M35301     -0.2663
     11  C4        19.1460   68.0980   23.4160 C.ar  301  M35301      0.0827
     12  F4        17.6980   72.9810   21.2640 F     301  M35301     -0.2028
     13  O4        20.0710   77.6480   21.2060 O.2   301  M35301     -0.1686
     14  C5        19.4990   68.1980   24.8290 C.ar  301  M35301      0.0163
     15  N5        20.3100   72.2080   22.0450 N.am  301  M35301     -0.1719
     16  O5        19.3220   79.9570   20.9600 O.2   301  M35301     -0.1686
     17  C6        18.5510   67.7240   25.8380 C.ar  301  M35301     -0.0017
     18  N6        20.9200   67.6340   21.8630 N.ar  301  M35301     -0.1610
     19  C7        19.7640   73.4340   22.3890 C.ar  301  M35301      0.1011
     20  C8        19.8290   71.0130   22.4940 C.2   301  M35301      0.2869
     21  C9        17.6020   78.0730   20.2540 C.3   301  M35301      0.1816
     22  C10       21.8250   68.2910   21.1340 C.ar  301  M35301      0.1741
     23  C11       23.0030   67.6620   20.3890 C.3   301  M35301      0.4366
     24  C12       21.5560   69.6850   21.2460 C.ar  301  M35301      0.0487
     25  C13       20.4310   69.7950   22.1030 C.ar  301  M35301      0.1394
     26  C14       17.7970   75.0690   22.4340 C.ar  301  M35301      0.0310
     27  C15       17.3040   77.4670   24.9250 C.ar  301  M35301      0.0013
     28  C16       18.5960   75.9750   23.2480 C.ar  301  M35301      0.0036
     29  C17       18.0550   77.3290   23.6680 C.ar  301  M35301      0.0172
     30  C18       19.9690   75.5950   23.5890 C.ar  301  M35301      0.0015
     31  C20       18.9450   67.8370   27.2950 C.3   301  M35301      0.1357
     32  C21       18.2680   78.5630   22.8980 C.ar  301  M35301      0.1057
     33  C22       20.5710   74.3440   23.1780 C.ar  301  M35301      0.0189
     34  C23       16.8510   78.7850   25.3690 C.ar  301  M35301      0.0001
     35  C24       17.8120   79.8830   23.3640 C.ar  301  M35301      0.0183
     36  C26       17.1060   80.0120   24.6260 C.ar  301  M35301      0.0013
     37  C44       18.4040   73.8200   22.0190 C.ar  301  M35301      0.1553
@<TRIPOS>BOND
     1     8    23    1
     2    21     4    1
     3     6    23    1
     4    23     2    1
     5    23    22    1
     6    16     4    2
     7    22    24   ar
     8    22    18   ar
     9    13     4    2
    10    24    25   ar
    11     4    32    1
    12    12    37    1
    13    18     3   ar
    14    37    19   ar
    15    37    26   ar
    16    15    19    1
    17    15    20   am
    18    25     3   ar
    19    25    20    1
    20    19    33   ar
    21    26    28   ar
    22     3    11    1
    23    20    10    2
    24    32    35   ar
    25    32    29   ar
    26     7    11   ar
    27     7     5   ar
    28    33    30   ar
    29    28    30   ar
    30    28    29    1
    31    35    36   ar
    32    11    14   ar
    33    29    27   ar
    34     5     1   ar
    35    36    34   ar
    36    14    17   ar
    37    27    34   ar
    38     1    17   ar
    39    17    31    1
    40    31     9    1
