@<TRIPOS>MOLECULE
3m36_M35_A_1.pdb
 37 40 0 0 0
SMALL
GASTEIGER

@<TRIPOS>ATOM
      1  C1        11.2840   27.6680   13.2700 C.ar  301  M35301     -0.0027
      2  F1         2.7130   26.8390   14.2130 F     301  M35301     -0.1643
      3  N1         7.0380   27.8910   14.4050 N.ar  301  M35301     -0.2252
      4  S1         6.1220   34.4480   22.1140 S.O2  301  M35301      0.0104
      5  C2        10.7700   26.7680   14.3080 C.ar  301  M35301      0.0013
      6  F2         3.1090   28.2980   12.6940 F     301  M35301     -0.1643
      7  C3         9.3430   26.8210   14.6970 C.ar  301  M35301      0.0191
      8  F3         3.8760   26.3860   12.4040 F     301  M35301     -0.1643
      9  N3         9.9870   29.6700   10.3890 N.3   301  M35301     -0.1262
     10  O3         8.1690   29.5670   16.3730 O.2   301  M35301     -0.2663
     11  C4         8.4000   27.7840   14.0710 C.ar  301  M35301      0.0827
     12  F4         7.5820   29.8800   19.2170 F     301  M35301     -0.2028
     13  O4         5.4010   34.4260   20.8940 O.2   301  M35301     -0.1686
     14  C5         8.9000   28.6760   13.0390 C.ar  301  M35301      0.0163
     15  N5         6.2090   30.4790   16.9730 N.am  301  M35301     -0.1719
     16  O5         5.6330   35.3200   23.1360 O.2   301  M35301     -0.1686
     17  C6        10.3180   28.5950   12.6610 C.ar  301  M35301     -0.0017
     18  N6         6.1010   27.2480   13.6520 N.ar  301  M35301     -0.1610
     19  C7         6.7630   31.4870   17.7620 C.ar  301  M35301      0.1011
     20  C8         6.9590   29.6120   16.2330 C.2   301  M35301      0.2869
     21  C9         6.0850   32.8320   22.7880 C.3   301  M35301      0.1816
     22  C10        4.8760   27.6770   14.0080 C.ar  301  M35301      0.1741
     23  C11        3.5820   27.2810   13.3200 C.3   301  M35301      0.4366
     24  C12        4.9840   28.6270   15.0600 C.ar  301  M35301      0.0487
     25  C13        6.3830   28.7400   15.2860 C.ar  301  M35301      0.1394
     26  C14        8.0840   32.1300   19.8710 C.ar  301  M35301      0.0310
     27  C15        9.8380   35.1700   20.2800 C.ar  301  M35301      0.0013
     28  C16        7.9610   33.5420   19.5160 C.ar  301  M35301      0.0036
     29  C17        8.5050   34.5840   20.4960 C.ar  301  M35301      0.0172
     30  C18        7.2400   33.8980   18.2750 C.ar  301  M35301      0.0015
     31  C20       10.8440   29.5320   11.5900 C.3   301  M35301      0.1357
     32  C21        7.7880   34.9930   21.7130 C.ar  301  M35301      0.1057
     33  C22        6.6300   32.8920   17.3930 C.ar  301  M35301      0.0189
     34  C23       10.4090   36.0900   21.2830 C.ar  301  M35301      0.0001
     35  C24        8.3600   35.9030   22.7140 C.ar  301  M35301      0.0183
     36  C26        9.7000   36.4760   22.5250 C.ar  301  M35301      0.0013
     37  C44        7.4820   31.1750   18.9730 C.ar  301  M35301      0.1553
@<TRIPOS>BOND
     1     9    31    1
     2    31    17    1
     3     8    23    1
     4    17    14   ar
     5    17     1   ar
     6     6    23    1
     7    14    11   ar
     8     1     5   ar
     9    23    22    1
    10    23     2    1
    11    18    22   ar
    12    18     3   ar
    13    22    24   ar
    14    11     3    1
    15    11     7   ar
    16     5     7   ar
    17     3    25   ar
    18    24    25   ar
    19    25    20    1
    20    20    10    2
    21    20    15   am
    22    15    19    1
    23    33    19   ar
    24    33    30   ar
    25    19    37   ar
    26    30    28   ar
    27    37    12    1
    28    37    26   ar
    29    28    26   ar
    30    28    29    1
    31    27    29   ar
    32    27    34   ar
    33    29    32   ar
    34    13     4    2
    35    34    36   ar
    36    32     4    1
    37    32    35   ar
    38     4    21    1
    39     4    16    2
    40    36    35   ar
