@<TRIPOS>MOLECULE
3m37_M37_A_1.pdb
 37 40 0 0 0
SMALL
GASTEIGER

@<TRIPOS>ATOM
      1  C1        11.3150   45.6470   64.9240 C.ar  301  M37301     -0.0002
      2  F1         2.8260   44.9640   64.8540 F     301  M37301     -0.1643
      3  N1         7.1720   44.4470   64.4720 N.ar  301  M37301     -0.2255
      4  S1         6.4450   38.3020   56.5730 S.O2  301  M37301      0.0935
      5  C2        10.4370   46.2580   63.9360 C.ar  301  M37301      0.0015
      6  F2         3.3990   43.7710   66.5540 F     301  M37301     -0.1643
      7  N2         6.5940   39.8920   56.3900 N.3   301  M37301      0.0392
      8  C3         9.0410   45.8790   63.7470 C.ar  301  M37301      0.0189
      9  F3         3.9540   45.8430   66.5040 F     301  M37301     -0.1643
     10  N3         9.4880   42.7560   67.7260 N.3   301  M37301     -0.1262
     11  O3         8.3670   42.8150   62.5050 O.2   301  M37301     -0.2663
     12  C4         8.5030   44.8260   64.6030 C.ar  301  M37301      0.0804
     13  F4         7.7220   42.5810   59.8210 F     301  M37301     -0.2028
     14  O4         5.5750   38.0820   57.6770 O.2   301  M37301     -0.1503
     15  C5         9.3600   44.2100   65.5990 C.ar  301  M37301      0.0145
     16  N5         6.4340   41.6570   62.1760 N.am  301  M37301     -0.1719
     17  O5         6.0800   37.7860   55.2840 O.2   301  M37301     -0.1503
     18  C6        10.7730   44.6080   65.7680 C.ar  301  M37301     -0.0013
     19  N6         6.2240   45.0220   65.2600 N.ar  301  M37301     -0.1610
     20  C7         6.9580   40.8000   61.2380 C.ar  301  M37301      0.1011
     21  C8         7.1810   42.6370   62.7690 C.2   301  M37301      0.2869
     22  C9         8.7750   43.1040   66.4720 C.3   301  M37301      0.1371
     23  C10        5.0350   44.4320   65.0300 C.ar  301  M37301      0.1741
     24  C11        3.7500   44.7580   65.7620 C.3   301  M37301      0.4366
     25  C12        5.1920   43.4300   64.0340 C.ar  301  M37301      0.0487
     26  C13        6.5790   43.4700   63.7130 C.ar  301  M37301      0.1394
     27  C14        8.2150   40.3770   59.0650 C.ar  301  M37301      0.0310
     28  C15       10.0230   37.4150   58.5730 C.ar  301  M37301      0.0013
     29  C16        8.1180   38.9530   59.3290 C.ar  301  M37301      0.0036
     30  C17        8.7040   38.0100   58.3100 C.ar  301  M37301      0.0188
     31  C18        7.4450   38.4750   60.5290 C.ar  301  M37301      0.0015
     32  C21        8.0620   37.6770   57.0370 C.ar  301  M37301      0.1250
     33  C22        6.8570   39.3740   61.4950 C.ar  301  M37301      0.0189
     34  C23       10.6350   36.5420   57.5790 C.ar  301  M37301      0.0001
     35  C24        8.6890   36.7940   56.0450 C.ar  301  M37301      0.0200
     36  C26        9.9900   36.2130   56.3150 C.ar  301  M37301      0.0014
     37  C44        7.6260   41.2690   60.0320 C.ar  301  M37301      0.1553
@<TRIPOS>BOND
     1    17     4    2
     2    35    36   ar
     3    35    32   ar
     4    36    34   ar
     5     7     4    1
     6     4    32    1
     7     4    14    2
     8    32    30   ar
     9    34    28   ar
    10    30    28   ar
    11    30    29    1
    12    27    29   ar
    13    27    37   ar
    14    29    31   ar
    15    13    37    1
    16    37    20   ar
    17    31    33   ar
    18    20    33   ar
    19    20    16    1
    20    16    21   am
    21    11    21    2
    22    21    26    1
    23    26    25   ar
    24    26     3   ar
    25     8     5   ar
    26     8    12   ar
    27     5     1   ar
    28    25    23   ar
    29     3    12    1
    30     3    19   ar
    31    12    15   ar
    32     2    24    1
    33     1    18   ar
    34    23    19   ar
    35    23    24    1
    36    15    18   ar
    37    15    22    1
    38    24     9    1
    39    24     6    1
    40    22    10    1
