@<TRIPOS>MOLECULE
3m38_HEM_A_1.pdb
 43 50 0 0 0
SMALL
GASTEIGER

@<TRIPOS>ATOM
      1  CHA       14.0050   14.2260    9.1930 C.2   155  HEM155      0.0000
      2  CHB       15.0240   16.6940    5.1730 C.2   155  HEM155      0.0000
      3  CHC       15.1520   20.8010    7.7320 C.2   155  HEM155      0.0000
      4  CHD       14.0480   18.3130   11.7070 C.2   155  HEM155      0.0000
      5  C1A       14.2680   14.5420    7.8810 C.ar  155  HEM155      0.0000
      6  C2A       14.3300   13.5770    6.7980 C.ar  155  HEM155      0.0000
      7  C3A       14.6230   14.2680    5.6960 C.ar  155  HEM155      0.0000
      8  C4A       14.7440   15.6700    6.0370 C.ar  155  HEM155      0.0000
      9  CMA       14.8170   13.7380    4.2750 C.3   155  HEM155      0.0000
     10  CAA       14.0950   12.0540    6.9670 C.3   155  HEM155      0.0000
     11  CBA       12.6810   11.6880    6.4650 C.3   155  HEM155      0.0000
     12  CGA       11.5550   12.4660    7.1330 C.2   155  HEM155      0.0000
     13  O1A       10.9920   13.3480    6.4020 O.co2 155  HEM155      0.0000
     14  O2A       11.4050   12.3870    8.3510 O.co2 155  HEM155      0.0000
     15  C1B       15.1900   18.0050    5.5350 C.2   155  HEM155      0.0000
     16  C2B       15.5360   19.0610    4.5990 C.2   155  HEM155      0.0000
     17  C3B       15.5940   20.2060    5.3110 C.2   155  HEM155      0.0000
     18  C4B       15.2360   19.9080    6.6730 C.2   155  HEM155      0.0000
     19  CMB       15.6240   18.8450    3.0930 C.3   155  HEM155      0.0000
     20  CAB       15.8380   21.6050    4.7700 C.3   155  HEM155      0.0000
     21  CBB       17.0230   21.7420    3.8250 C.3   155  HEM155      0.0000
     22  C1C       14.8690   20.4760    9.0520 C.ar  155  HEM155      0.0000
     23  C2C       15.0070   21.3910   10.1940 C.ar  155  HEM155      0.0000
     24  C3C       14.5720   20.7250   11.2620 C.ar  155  HEM155      0.0000
     25  C4C       14.4050   19.3390   10.8680 C.ar  155  HEM155      0.0000
     26  CMC       15.3920   22.8690    9.9470 C.3   155  HEM155      0.0000
     27  CAC       14.5160   21.0820   12.7320 C.3   155  HEM155      0.0000
     28  CBC       14.7590   22.5210   13.1590 C.3   155  HEM155      0.0000
     29  C1D       13.9390   16.9920   11.3900 C.2   155  HEM155      0.0000
     30  C2D       13.5990   15.9160   12.2810 C.2   155  HEM155      0.0000
     31  C3D       13.6320   14.7680   11.5760 C.2   155  HEM155      0.0000
     32  C4D       13.9080   15.1390   10.2130 C.2   155  HEM155      0.0000
     33  CMD       13.3010   16.0200   13.7920 C.3   155  HEM155      0.0000
     34  CAD       13.5300   13.3350   12.1210 C.3   155  HEM155      0.0000
     35  CBD       14.9430   12.7920   12.5310 C.3   155  HEM155      0.0000
     36  CGD       14.8670   11.4680   13.2540 C.2   155  HEM155      0.0000
     37  O1D       14.0820   11.3260   14.1990 O.co2 155  HEM155      0.0000
     38  O2D       15.6910   10.5830   12.9190 O.co2 155  HEM155      0.0000
     39  NA        14.5310   15.8050    7.3980 N.ar  155  HEM155      0.0000
     40  NB        15.0660   18.5460    6.8070 N.2   155  HEM155      0.0000
     41  NC        14.5370   19.2290    9.5030 N.ar  155  HEM155      0.0000
     42  ND        14.0780   16.5090   10.0850 N.2   155  HEM155      0.0000
     43 FE         14.4260   17.5510    8.4370 Fe    155  HEM155      0.0000
@<TRIPOS>BOND
     1    19    16    1
     2    21    20    1
     3     9     7    1
     4    16    17    2
     5    16    15    1
     6    20    17    1
     7     2    15    1
     8     2     8    2
     9    17    18    1
    10    15    40    2
    11     7     8   ar
    12     7     6   ar
    13     8    39   ar
    14    13    12   ar
    15    11    10    1
    16    11    12    1
    17    18    40    1
    18    18     3    2
    19     6    10    1
    20     6     5   ar
    21    40    43    1
    22    12    14   ar
    23    39     5   ar
    24    39    43    1
    25     3    22    1
    26     5     1    2
    27    43    41    1
    28    43    42    1
    29    22    41   ar
    30    22    23   ar
    31     1    32    1
    32    41    25   ar
    33    26    23    1
    34    42    32    2
    35    42    29    1
    36    23    24   ar
    37    32    31    1
    38    25    24   ar
    39    25     4    1
    40    24    27    1
    41    29     4    2
    42    29    30    1
    43    31    34    1
    44    31    30    2
    45    34    35    1
    46    30    33    1
    47    35    36    1
    48    27    28    1
    49    38    36   ar
    50    36    37   ar
