@<TRIPOS>MOLECULE
3m39_HEM_A_1.pdb
 43 50 0 0 0
SMALL
GASTEIGER

@<TRIPOS>ATOM
      1  CHA        5.7740    9.5820    9.6600 C.2   155  HEM155      0.0000
      2  CHB        5.0660    7.1510    5.5860 C.2   155  HEM155      0.0000
      3  CHC        4.7290    3.0510    8.0990 C.2   155  HEM155      0.0000
      4  CHD        5.6980    5.4470   12.0960 C.2   155  HEM155      0.0000
      5  C1A        5.5400    9.3170    8.3250 C.ar  155  HEM155      0.0000
      6  C2A        5.6030   10.2740    7.2230 C.ar  155  HEM155      0.0000
      7  C3A        5.4010    9.5880    6.0930 C.ar  155  HEM155      0.0000
      8  C4A        5.2580    8.2020    6.4430 C.ar  155  HEM155      0.0000
      9  CMA        5.2730   10.1130    4.6510 C.3   155  HEM155      0.0000
     10  CAA        5.7880   11.7820    7.4300 C.3   155  HEM155      0.0000
     11  CBA        7.2680   12.1790    7.3350 C.3   155  HEM155      0.0000
     12  CGA        8.2590   11.4470    8.2320 C.2   155  HEM155      0.0000
     13  O1A        9.2230   10.8850    7.5830 O.co2 155  HEM155      0.0000
     14  O2A        8.4700   11.8850    9.3740 O.co2 155  HEM155      0.0000
     15  C1B        4.7060    5.8750    5.9420 C.2   155  HEM155      0.0000
     16  C2B        4.5790    4.8070    4.9580 C.2   155  HEM155      0.0000
     17  C3B        4.4610    3.6580    5.6700 C.2   155  HEM155      0.0000
     18  C4B        4.7310    3.9580    7.0410 C.2   155  HEM155      0.0000
     19  CMB        4.4300    5.0650    3.4640 C.3   155  HEM155      0.0000
     20  CAB        4.2220    2.2260    5.1810 C.3   155  HEM155      0.0000
     21  CBB        3.1100    2.1190    4.1320 C.3   155  HEM155      0.0000
     22  C1C        5.0350    3.3720    9.4030 C.ar  155  HEM155      0.0000
     23  C2C        4.9700    2.3840   10.5050 C.ar  155  HEM155      0.0000
     24  C3C        5.2180    3.0570   11.6170 C.ar  155  HEM155      0.0000
     25  C4C        5.4190    4.4350   11.2330 C.ar  155  HEM155      0.0000
     26  CMC        4.7260    0.8800   10.2080 C.3   155  HEM155      0.0000
     27  CAC        5.4010    2.6120   13.0650 C.3   155  HEM155      0.0000
     28  CBC        4.6650    1.3280   13.4680 C.3   155  HEM155      0.0000
     29  C1D        5.8250    6.7580   11.7980 C.2   155  HEM155      0.0000
     30  C2D        6.0200    7.8040   12.7640 C.2   155  HEM155      0.0000
     31  C3D        6.0820    8.9530   12.0770 C.2   155  HEM155      0.0000
     32  C4D        5.7950    8.6590   10.6910 C.2   155  HEM155      0.0000
     33  CMD        6.1120    7.5410   14.2790 C.3   155  HEM155      0.0000
     34  CAD        6.1220   10.3680   12.6690 C.3   155  HEM155      0.0000
     35  CBD        4.6700   10.6990   13.1490 C.3   155  HEM155      0.0000
     36  CGD        4.6150   12.0340   13.8500 C.2   155  HEM155      0.0000
     37  O1D        3.8860   12.0960   14.8700 O.co2 155  HEM155      0.0000
     38  O2D        4.7500   12.9890   13.0540 O.co2 155  HEM155      0.0000
     39  NA         5.4280    8.0640    7.8190 N.ar  155  HEM155      0.0000
     40  NB         4.9320    5.3150    7.1950 N.2   155  HEM155      0.0000
     41  NC         5.4140    4.6020    9.8700 N.ar  155  HEM155      0.0000
     42  ND         5.6320    7.3010   10.5330 N.2   155  HEM155      0.0000
     43 FE          5.4160    6.3300    8.8490 Fe    155  HEM155      0.0000
@<TRIPOS>BOND
     1    19    16    1
     2    21    20    1
     3     9     7    1
     4    16    17    2
     5    16    15    1
     6    20    17    1
     7     2    15    1
     8     2     8    2
     9    17    18    1
    10    15    40    2
    11     7     8   ar
    12     7     6   ar
    13     8    39   ar
    14    18    40    1
    15    18     3    2
    16    40    43    1
    17     6    10    1
    18     6     5   ar
    19    11    10    1
    20    11    12    1
    21    13    12   ar
    22    39     5   ar
    23    39    43    1
    24     3    22    1
    25    12    14   ar
    26     5     1    2
    27    43    41    1
    28    43    42    1
    29    22    41   ar
    30    22    23   ar
    31     1    32    1
    32    41    25   ar
    33    26    23    1
    34    23    24   ar
    35    42    32    2
    36    42    29    1
    37    32    31    1
    38    25    24   ar
    39    25     4    1
    40    24    27    1
    41    29     4    2
    42    29    30    1
    43    31    34    1
    44    31    30    2
    45    34    35    1
    46    30    33    1
    47    38    36   ar
    48    27    28    1
    49    35    36    1
    50    36    37   ar
