@<TRIPOS>MOLECULE
3m3a_HEM_A_1.pdb
 43 50 0 0 0
SMALL
GASTEIGER

@<TRIPOS>ATOM
      1  CHA       11.6860   26.8790   -3.8130 C.2   155  HEM155      0.0000
      2  CHB       10.6520   24.2880    0.1390 C.2   155  HEM155      0.0000
      3  CHC        9.9540   20.4260   -2.5750 C.2   155  HEM155      0.0000
      4  CHD       11.1000   22.8920   -6.5020 C.2   155  HEM155      0.0000
      5  C1A       11.4600   26.5580   -2.4980 C.2   155  HEM155      0.0000
      6  C2A       11.4980   27.4150   -1.3450 C.2   155  HEM155      0.0000
      7  C3A       11.1810   26.6810   -0.2710 C.2   155  HEM155      0.0000
      8  C4A       10.9360   25.3320   -0.7250 C.2   155  HEM155      0.0000
      9  CMA       11.1330   27.1410    1.1770 C.3   155  HEM155      0.0000
     10  CAA       11.8400   28.9130   -1.3340 C.3   155  HEM155      0.0000
     11  CBA       10.4960   29.6490   -1.1390 C.3   155  HEM155      0.0000
     12  CGA        9.4170   29.3660   -2.1720 C.2   155  HEM155      0.0000
     13  O1A        8.2940   28.9440   -1.7100 O.co2 155  HEM155      0.0000
     14  O2A        9.5940   29.6080   -3.3600 O.co2 155  HEM155      0.0000
     15  C1B       10.4300   23.0000   -0.2470 C.ar  155  HEM155      0.0000
     16  C2B       10.0680   21.9200    0.6440 C.ar  155  HEM155      0.0000
     17  C3B        9.9170   20.8230   -0.1120 C.ar  155  HEM155      0.0000
     18  C4B       10.0030   21.2520   -1.4810 C.ar  155  HEM155      0.0000
     19  CMB       10.0340   21.9850    2.1610 C.3   155  HEM155      0.0000
     20  CAB        9.2860   19.4890    0.2760 C.3   155  HEM155      0.0000
     21  CBB       10.2680   18.4920    0.9080 C.3   155  HEM155      0.0000
     22  C1C       10.2350   20.7290   -3.8680 C.2   155  HEM155      0.0000
     23  C2C       10.3140   19.7960   -4.9900 C.2   155  HEM155      0.0000
     24  C3C       10.5530   20.4970   -6.0870 C.2   155  HEM155      0.0000
     25  C4C       10.7780   21.8770   -5.6420 C.2   155  HEM155      0.0000
     26  CMC        9.9850   18.2910   -4.8040 C.3   155  HEM155      0.0000
     27  CAC       10.8680   20.2100   -7.5340 C.3   155  HEM155      0.0000
     28  CBC       11.0230   18.7570   -7.9490 C.3   155  HEM155      0.0000
     29  C1D       11.3510   24.2030   -6.1250 C.ar  155  HEM155      0.0000
     30  C2D       11.7710   25.2540   -7.0210 C.ar  155  HEM155      0.0000
     31  C3D       11.9260   26.3620   -6.2650 C.ar  155  HEM155      0.0000
     32  C4D       11.6590   26.0120   -4.8850 C.ar  155  HEM155      0.0000
     33  CMD       12.0080   25.0480   -8.5310 C.3   155  HEM155      0.0000
     34  CAD       12.4910   27.7300   -6.6690 C.3   155  HEM155      0.0000
     35  CBD       14.0500   27.7590   -6.6010 C.3   155  HEM155      0.0000
     36  CGD       14.6140   28.9960   -7.2530 C.2   155  HEM155      0.0000
     37  O1D       15.3470   28.8760   -8.2560 O.co2 155  HEM155      0.0000
     38  O2D       14.5390   30.0600   -6.6070 O.co2 155  HEM155      0.0000
     39  NA        11.1120   25.2820   -2.0870 N.2   155  HEM155      0.0000
     40  NB        10.3790   22.5730   -1.5640 N.ar  155  HEM155      0.0000
     41  NC        10.4990   21.9990   -4.3260 N.2   155  HEM155      0.0000
     42  ND        11.3640   24.6520   -4.8060 N.ar  155  HEM155      0.0000
     43 FE         10.8080   23.6190   -3.2300 Fe    155  HEM155      0.0000
@<TRIPOS>BOND
     1    33    30    1
     2    37    36   ar
     3    28    27    1
     4    27    24    1
     5    36    38   ar
     6    36    35    1
     7    30    31   ar
     8    30    29   ar
     9    34    35    1
    10    34    31    1
    11     4    29    2
    12     4    25    1
    13    31    32   ar
    14    29    42   ar
    15    24    25    1
    16    24    23    2
    17    25    41    2
    18    23    26    1
    19    23    22    1
    20    32    42   ar
    21    32     1    2
    22    42    43    1
    23    41    22    1
    24    41    43    1
    25    22     3    2
    26     1     5    1
    27    14    12   ar
    28    43    39    1
    29    43    40    1
    30     3    18    1
    31     5    39    2
    32     5     6    1
    33    12    13   ar
    34    12    11    1
    35    39     8    1
    36    40    18   ar
    37    40    15   ar
    38    18    17   ar
    39     6    10    1
    40     6     7    2
    41    10    11    1
    42     8     7    1
    43     8     2    2
    44     7     9    1
    45    15     2    1
    46    15    16   ar
    47    17    20    1
    48    17    16   ar
    49    20    21    1
    50    16    19    1
