@<TRIPOS>MOLECULE
3m3b_HEM_A_1.pdb
 43 50 0 0 0
SMALL
GASTEIGER

@<TRIPOS>ATOM
      1  CHA        5.8420   -9.3320   -9.3310 C.2   155  HEM155      0.0000
      2  CHB        4.9560   -6.9330   -5.2390 C.2   155  HEM155      0.0000
      3  CHC        4.7860   -2.7840   -7.6920 C.2   155  HEM155      0.0000
      4  CHD        5.8910   -5.1330  -11.6850 C.2   155  HEM155      0.0000
      5  C1A        5.6680   -9.0410   -8.0010 C.2   155  HEM155      0.0000
      6  C2A        5.6360  -10.0150   -6.9070 C.2   155  HEM155      0.0000
      7  C3A        5.3700   -9.3530   -5.7920 C.2   155  HEM155      0.0000
      8  C4A        5.2200   -7.9430   -6.1260 C.2   155  HEM155      0.0000
      9  CMA        5.1500   -9.8440   -4.3490 C.3   155  HEM155      0.0000
     10  CAA        5.8670  -11.5130   -7.1830 C.3   155  HEM155      0.0000
     11  CBA        7.3250  -11.8950   -6.8440 C.3   155  HEM155      0.0000
     12  CGA        8.3580  -10.8950   -7.3360 C.2   155  HEM155      0.0000
     13  O1A        8.8680  -10.0970   -6.4790 O.co2 155  HEM155      0.0000
     14  O2A        8.7650  -10.9820   -8.4890 O.co2 155  HEM155      0.0000
     15  C1B        4.8350   -5.6030   -5.5630 C.ar  155  HEM155      0.0000
     16  C2B        4.5230   -4.5630   -4.6020 C.ar  155  HEM155      0.0000
     17  C3B        4.2790   -3.4530   -5.3120 C.ar  155  HEM155      0.0000
     18  C4B        4.7300   -3.7090   -6.6620 C.ar  155  HEM155      0.0000
     19  CMB        4.3530   -4.8730   -3.1210 C.3   155  HEM155      0.0000
     20  CAB        4.0490   -2.0210   -4.8460 C.3   155  HEM155      0.0000
     21  CBB        3.1370   -1.8530   -3.6280 C.3   155  HEM155      0.0000
     22  C1C        5.1120   -3.0770   -8.9970 C.2   155  HEM155      0.0000
     23  C2C        5.0620   -2.0900  -10.0960 C.2   155  HEM155      0.0000
     24  C3C        5.1770   -2.7690  -11.2340 C.2   155  HEM155      0.0000
     25  C4C        5.5140   -4.1340  -10.8510 C.2   155  HEM155      0.0000
     26  CMC        4.7440   -0.6210   -9.7640 C.3   155  HEM155      0.0000
     27  CAC        5.5250   -2.2810  -12.6470 C.3   155  HEM155      0.0000
     28  CBC        5.0750   -0.8650  -13.0360 C.3   155  HEM155      0.0000
     29  C1D        5.9850   -6.4610  -11.4150 C.ar  155  HEM155      0.0000
     30  C2D        6.2410   -7.4980  -12.3770 C.ar  155  HEM155      0.0000
     31  C3D        6.3380   -8.6600  -11.7000 C.ar  155  HEM155      0.0000
     32  C4D        6.0260   -8.3680  -10.3200 C.ar  155  HEM155      0.0000
     33  CMD        6.4530   -7.2200  -13.8780 C.3   155  HEM155      0.0000
     34  CAD        6.3630  -10.0650  -12.3250 C.3   155  HEM155      0.0000
     35  CBD        4.9060  -10.3950  -12.7960 C.3   155  HEM155      0.0000
     36  CGD        4.8590  -11.5470  -13.7620 C.2   155  HEM155      0.0000
     37  O1D        4.8440  -11.3060  -14.9890 O.co2 155  HEM155      0.0000
     38  O2D        4.4370  -12.6150  -13.2670 O.co2 155  HEM155      0.0000
     39  NA         5.4580   -7.7880   -7.4780 N.2   155  HEM155      0.0000
     40  NB         4.8620   -5.0560   -6.8400 N.ar  155  HEM155      0.0000
     41  NC         5.4250   -4.3130   -9.4870 N.2   155  HEM155      0.0000
     42  ND         5.8040   -7.0160  -10.1490 N.ar  155  HEM155      0.0000
     43 FE          5.4710   -6.0300   -8.4700 Fe    155  HEM155      0.0000
@<TRIPOS>BOND
     1    37    36   ar
     2    33    30    1
     3    36    38   ar
     4    36    35    1
     5    28    27    1
     6    35    34    1
     7    27    24    1
     8    30    31   ar
     9    30    29   ar
    10    34    31    1
    11    31    32   ar
    12     4    29    2
    13     4    25    1
    14    29    42   ar
    15    24    25    1
    16    24    23    2
    17    25    41    2
    18    32    42   ar
    19    32     1    2
    20    42    43    1
    21    23    26    1
    22    23    22    1
    23    41    22    1
    24    41    43    1
    25     1     5    1
    26    22     3    2
    27    14    12   ar
    28    43    39    1
    29    43    40    1
    30     5    39    2
    31     5     6    1
    32     3    18    1
    33    39     8    1
    34    12    11    1
    35    12    13   ar
    36    10     6    1
    37    10    11    1
    38     6     7    2
    39    40    18   ar
    40    40    15   ar
    41    18    17   ar
    42     8     7    1
    43     8     2    2
    44     7     9    1
    45    15     2    1
    46    15    16   ar
    47    17    20    1
    48    17    16   ar
    49    20    21    1
    50    16    19    1
