@<TRIPOS>MOLECULE
3m3c_GAL_A_1.pdb
 11 11 0 0 0
SMALL
GASTEIGER

@<TRIPOS>ATOM
      1  C1       -14.8870    9.1930  -29.5470 C.3   240  GAL240      0.1777
      2  C2       -14.9480    7.6820  -29.3130 C.3   240  GAL240      0.2141
      3  C3       -15.2650    7.3640  -27.8510 C.3   240  GAL240      0.2173
      4  C4       -14.2600    8.0920  -26.9570 C.3   240  GAL240      0.2142
      5  C5       -14.2880    9.5870  -27.2810 C.3   240  GAL240      0.1810
      6  C6       -13.3040   10.3250  -26.3720 C.3   240  GAL240      0.2141
      7  O2       -15.9320    7.0880  -30.1650 O.3   240  GAL240     -0.2176
      8  O3       -15.1590    5.9530  -27.6440 O.3   240  GAL240     -0.2175
      9  O4       -12.9490    7.5760  -27.2030 O.3   240  GAL240     -0.2176
     10  O5       -13.9290    9.7910  -28.6570 O.3   240  GAL240     -0.3481
     11  O6       -13.3420   11.7230  -26.6700 O.3   240  GAL240     -0.2176
@<TRIPOS>BOND
     1     7     2    1
     2     1     2    1
     3     1    10    1
     4     2     3    1
     5    10     5    1
     6     3     8    1
     7     3     4    1
     8     5     4    1
     9     5     6    1
    10     9     4    1
    11    11     6    1
