@<TRIPOS>MOLECULE
3m3e_GAL_A_1.pdb
 11 11 0 0 0
SMALL
GASTEIGER

@<TRIPOS>ATOM
      1  C1        39.3280    3.7230    6.5370 C.3   240  GAL240      0.1777
      2  C2        38.2470    4.1620    5.5470 C.3   240  GAL240      0.2141
      3  C3        37.0530    4.7920    6.2640 C.3   240  GAL240      0.2173
      4  C4        36.5590    3.8290    7.3440 C.3   240  GAL240      0.2142
      5  C5        37.7240    3.4830    8.2730 C.3   240  GAL240      0.1810
      6  C6        37.2320    2.5580    9.3880 C.3   240  GAL240      0.2141
      7  O2        38.7960    5.0810    4.6000 O.3   240  GAL240     -0.2176
      8  O3        36.0130    5.0390    5.3150 O.3   240  GAL240     -0.2175
      9  O4        36.0670    2.6320    6.7340 O.3   240  GAL240     -0.2176
     10  O5        38.7660    2.8410    7.5230 O.3   240  GAL240     -0.3481
     11  O6        38.2860    2.3290   10.3270 O.3   240  GAL240     -0.2176
@<TRIPOS>BOND
     1     7     2    1
     2     8     3    1
     3     2     3    1
     4     2     1    1
     5     3     4    1
     6     1    10    1
     7     9     4    1
     8     4     5    1
     9    10     5    1
    10     5     6    1
    11     6    11    1
