@<TRIPOS>MOLECULE
3m3f_GLU_A_1.pdb
 10 9 0 0 0
SMALL
GASTEIGER

@<TRIPOS>ATOM
      1  N          1.9890   21.0930   13.2610 N.3   400  GLU400     -0.1208
      2  CA         2.1980   21.7620   14.5440 C.3   400  GLU400      0.1949
      3  C          3.6790   21.9280   14.7440 C.2   400  GLU400      0.3819
      4  O          4.1390   22.3200   15.8130 O.co2 400  GLU400     -0.2441
      5  CB         1.6060   20.9550   15.7100 C.3   400  GLU400      0.0424
      6  CG         0.0820   21.0340   15.8450 C.3   400  GLU400      0.1161
      7  CD        -0.4300   22.3760   16.3780 C.2   400  GLU400      0.3649
      8  OE1       -1.6500   22.6290   16.2300 O.co2 400  GLU400     -0.2457
      9  OE2        0.3680   23.1640   16.9450 O.co2 400  GLU400     -0.2457
     10  OXT        4.4360   21.6360   13.8300 O.co2 400  GLU400     -0.2441
@<TRIPOS>BOND
     1     1     2    1
     2    10     3   ar
     3     2     3    1
     4     2     5    1
     5     3     4   ar
     6     5     6    1
     7     6     7    1
     8     8     7   ar
     9     7     9   ar
