@<TRIPOS>MOLECULE
3m3f_P99_A_1.pdb
 26 27 0 0 0
SMALL
GASTEIGER

@<TRIPOS>ATOM
      1  N01        0.7440   19.6540   -1.3100 N.am  800  P99800     -0.0845
      2  C02        0.8460   21.0480   -1.7360 C.2   800  P99800      0.3052
      3  O03        0.9960   21.2910   -2.8890 O.2   800  P99800     -0.2676
      4  C04        0.7250   22.1860   -0.7050 C.3   800  P99800      0.2930
      5  O05        1.6920   23.1780   -0.9500 O.3   800  P99800     -0.4609
      6  C06        1.5280   24.5170   -0.5480 C.ar  800  P99800      0.1937
      7  C07        1.4790   25.6080   -1.6310 C.ar  800  P99800      0.1766
      8  F08        1.6410   25.2650   -2.9410 F     800  P99800     -0.2009
      9  C09        1.2500   27.0770   -1.2370 C.ar  800  P99800      0.0391
     10  C10        1.0890   27.4370    0.2560 C.ar  800  P99800      0.0299
     11  S11        0.7980   29.1450    0.7590 S.3   800  P99800     -0.1119
     12  C12        0.9370   29.2020    2.5710 C.3   800  P99800      0.0830
     13  C13        2.3370   29.7100    2.9680 C.3   800  P99800      0.1274
     14  N14        3.3670   29.0190    2.1820 N.3   800  P99800     -0.0768
     15  S15        4.3630   28.1030    3.2420 S.O2  800  P99800      0.0769
     16  O16        5.6180   27.3960    2.4420 O.2   800  P99800     -0.1516
     17  O17        3.4180   26.9730    3.9820 O.2   800  P99800     -0.1516
     18  C18        4.9770   29.1790    4.5420 C.ar  800  P99800      0.1236
     19  C19        4.6090   28.8740    5.9900 C.ar  800  P99800      0.0200
     20  C20        5.0790   29.8370    7.0740 C.ar  800  P99800      0.0014
     21  C21        5.9230   31.0720    6.6970 C.ar  800  P99800      0.0001
     22  C22        6.2850   31.3660    5.2400 C.ar  800  P99800      0.0014
     23  C23        5.8050   30.4080    4.1520 C.ar  800  P99800      0.0200
     24  C24        1.1510   26.3680    1.3480 C.ar  800  P99800      0.0391
     25  C25        1.3800   24.9070    0.9500 C.ar  800  P99800      0.1766
     26  F26        1.4040   23.9790    1.9290 F     800  P99800     -0.2009
@<TRIPOS>BOND
     1     8     7    1
     2     3     2    2
     3     2     1   am
     4     2     4    1
     5     7     9   ar
     6     7     6   ar
     7     9    10   ar
     8     5     4    1
     9     5     6    1
    10     6    25   ar
    11    10    11    1
    12    10    24   ar
    13    11    12    1
    14    25    24   ar
    15    25    26    1
    16    14    13    1
    17    14    15    1
    18    16    15    2
    19    12    13    1
    20    15    17    2
    21    15    18    1
    22    23    18   ar
    23    23    22   ar
    24    18    19   ar
    25    22    21   ar
    26    19    20   ar
    27    21    20   ar
