@<TRIPOS>MOLECULE
3m3k_GLU_A_1.pdb
 10 9 0 0 0
SMALL
GASTEIGER

@<TRIPOS>ATOM
      1  N         19.5220  -17.4560  -26.8530 N.3   400  GLU400     -0.1208
      2  CA        19.7330  -18.4090  -25.7670 C.3   400  GLU400      0.1949
      3  C         21.2150  -18.5550  -25.4580 C.2   400  GLU400      0.3819
      4  O         21.6290  -19.3520  -24.6120 O.co2 400  GLU400     -0.2441
      5  CB        19.1520  -19.7760  -26.1290 C.3   400  GLU400      0.0424
      6  CG        17.6500  -19.8860  -25.9600 C.3   400  GLU400      0.1161
      7  CD        17.2240  -20.0360  -24.5080 C.2   400  GLU400      0.3649
      8  OE1       16.0130  -19.9040  -24.2270 O.co2 400  GLU400     -0.2457
      9  OE2       18.0930  -20.2860  -23.6470 O.co2 400  GLU400     -0.2457
     10  OXT       22.0250  -17.8810  -26.0800 O.co2 400  GLU400     -0.2441
@<TRIPOS>BOND
     1     1     2    1
     2     5     6    1
     3     5     2    1
     4    10     3   ar
     5     6     7    1
     6     2     3    1
     7     3     4   ar
     8     7     8   ar
     9     7     9   ar
