@<TRIPOS>MOLECULE
3m3l_GLU_A_1.pdb
 10 9 0 0 0
SMALL
GASTEIGER

@<TRIPOS>ATOM
      1  N        -19.4750  -18.3740   27.4340 N.3   400  GLU400     -0.1208
      2  CA       -19.7450  -19.4040   26.4220 C.3   400  GLU400      0.1949
      3  C        -21.2340  -19.5450   26.1220 C.2   400  GLU400      0.3819
      4  O        -21.6050  -20.4490   25.3650 O.co2 400  GLU400     -0.2441
      5  CB       -19.2100  -20.7600   26.8830 C.3   400  GLU400      0.0424
      6  CG       -17.7350  -20.9580   26.6720 C.3   400  GLU400      0.1161
      7  CD       -17.3090  -21.0280   25.1900 C.2   400  GLU400      0.3649
      8  OE1      -16.0990  -20.8540   24.9290 O.co2 400  GLU400     -0.2457
      9  OE2      -18.1690  -21.2700   24.3020 O.co2 400  GLU400     -0.2457
     10  OXT      -22.0610  -18.8030   26.6720 O.co2 400  GLU400     -0.2441
@<TRIPOS>BOND
     1     9     7   ar
     2     8     7   ar
     3     7     6    1
     4     4     3   ar
     5     3     2    1
     6     3    10   ar
     7     2     5    1
     8     2     1    1
     9     6     5    1
