@<TRIPOS>MOLECULE
3m3l_P99_A_1.pdb
 26 27 0 0 0
SMALL
GASTEIGER

@<TRIPOS>ATOM
      1  N01      -17.9400   -4.4540   33.3720 N.am  800  P99800     -0.0845
      2  C02      -18.0500   -3.8460   32.0480 C.2   800  P99800      0.3052
      3  O03      -17.9750   -2.6650   31.9450 O.2   800  P99800     -0.2676
      4  C04      -18.2240   -4.7320   30.7990 C.3   800  P99800      0.2930
      5  O05      -19.1870   -4.1800   29.9340 O.3   800  P99800     -0.4609
      6  C06      -19.0160   -4.1300   28.5380 C.ar  800  P99800      0.1937
      7  C07      -18.9630   -2.7530   27.8540 C.ar  800  P99800      0.1766
      8  F08      -19.1290   -1.6230   28.6000 F     800  P99800     -0.2009
      9  C09      -18.7270   -2.6530   26.3370 C.ar  800  P99800      0.0391
     10  C10      -18.5620   -3.9510   25.5170 C.ar  800  P99800      0.0299
     11  S11      -18.2620   -3.8770   23.7390 S.3   800  P99800     -0.1119
     12  C12      -18.3990   -5.5750   23.1010 C.3   800  P99800      0.0830
     13  C13      -19.7960   -5.7870   22.4860 C.3   800  P99800      0.1274
     14  N14      -20.8300   -5.2650   23.3880 N.3   800  P99800     -0.0768
     15  S15      -21.8290   -6.5630   23.9090 S.O2  800  P99800      0.0769
     16  O16      -23.0880   -6.0330   24.8300 O.2   800  P99800     -0.1516
     17  O17      -20.8880   -7.6280   24.7450 O.2   800  P99800     -0.1516
     18  C18      -22.4360   -7.4470   22.4690 C.ar  800  P99800      0.1236
     19  C19      -22.2360   -8.9570   22.3890 C.ar  800  P99800      0.0200
     20  C20      -22.6930   -9.6810   21.1280 C.ar  800  P99800      0.0014
     21  C21      -23.3590   -8.8920   19.9830 C.ar  800  P99800      0.0001
     22  C22      -23.5540   -7.3780   20.0760 C.ar  800  P99800      0.0014
     23  C23      -23.0860   -6.6490   21.3330 C.ar  800  P99800      0.0200
     24  C24      -18.6280   -5.3290   26.1770 C.ar  800  P99800      0.0391
     25  C25      -18.8640   -5.4220   27.6870 C.ar  800  P99800      0.1766
     26  F26      -18.8910   -6.6480   28.2510 F     800  P99800     -0.2009
@<TRIPOS>BOND
     1    21    22   ar
     2    21    20   ar
     3    22    23   ar
     4    20    19   ar
     5    23    18   ar
     6    19    18   ar
     7    18    15    1
     8    13    12    1
     9    13    14    1
    10    12    11    1
    11    14    15    1
    12    11    10    1
    13    15    17    2
    14    15    16    2
    15    10    24   ar
    16    10     9   ar
    17    24    25   ar
    18     9     7   ar
    19    25    26    1
    20    25     6   ar
    21     7     6   ar
    22     7     8    1
    23     6     5    1
    24     5     4    1
    25     4     2    1
    26     3     2    2
    27     2     1   am
