@<TRIPOS>MOLECULE
3m3m_GSH_A_1.pdb
 20 19 0 0 0
SMALL
GASTEIGER

@<TRIPOS>ATOM
      1  N1        21.2680   27.3620   19.8450 N.3   209  GSH209     -0.1208
      2  CA1       20.4370   28.3400   19.0380 C.3   209  GSH209      0.1948
      3  C1        20.5680   29.7740   19.5600 C.2   209  GSH209      0.3819
      4  O11       20.5150   30.7090   18.7090 O.co2 209  GSH209     -0.2441
      5  O12       20.6620   29.9520   20.8050 O.co2 209  GSH209     -0.2441
      6  CB1       18.9660   27.8230   19.1540 C.3   209  GSH209      0.0402
      7  CG1       18.1220   28.7800   18.3730 C.3   209  GSH209      0.0889
      8  CD1       16.7200   28.1860   18.1210 C.2   209  GSH209      0.2418
      9  OE1       16.3730   26.9350   18.6200 O.2   209  GSH209     -0.2733
     10  N2        15.7890   28.8790   17.4000 N.am  209  GSH209     -0.1968
     11  CA2       14.4590   28.3130   17.1810 C.3   209  GSH209      0.1843
     12  C2        14.3590   28.0230   15.7470 C.2   209  GSH209      0.2627
     13  O2        14.9000   28.8930   14.9010 O.2   209  GSH209     -0.2714
     14  CB2       13.4410   29.4070   17.5990 C.3   209  GSH209      0.0997
     15  SG2       13.5800   29.7820   19.4410 S.3   209  GSH209     -0.0797
     16  N3        13.7660   26.9170   15.3260 N.am  209  GSH209     -0.1917
     17  CA3       13.6220   26.7300   13.8720 C.3   209  GSH209      0.2285
     18  C3        13.8540   25.2960   13.4300 C.2   209  GSH209      0.3865
     19  O31       13.4040   24.8900   12.3150 O.co2 209  GSH209     -0.2437
     20  O32       14.5260   24.5430   14.1540 O.co2 209  GSH209     -0.2437
@<TRIPOS>BOND
     1    19    18   ar
     2    18    17    1
     3    18    20   ar
     4    17    16    1
     5    13    12    2
     6    16    12   am
     7    12    11    1
     8    11    10    1
     9    11    14    1
    10    10     8   am
    11    14    15    1
    12     8     7    1
    13     8     9    2
    14     7     6    1
    15     4     3   ar
    16     2     6    1
    17     2     3    1
    18     2     1    1
    19     3     5   ar
