@<TRIPOS>MOLECULE
3m3n_ATP_A_1.pdb
 31 33 0 0 0
SMALL
GASTEIGER

@<TRIPOS>ATOM
      1  PG         6.5180   35.5400   34.2200 P.3   400  ATP400      0.5373
      2  O1G        7.8380   34.9520   34.6550 O.3   400  ATP400     -0.1143
      3  O2G        5.4120   34.5180   34.1560 O.2   400  ATP400     -0.2221
      4  O3G        6.1630   36.8320   34.8980 O.3   400  ATP400     -0.1143
      5  PB         5.7740   35.6280   31.4560 P.3   400  ATP400      0.2277
      6  O1B        4.3630   35.4500   31.9530 O.3   400  ATP400     -0.4368
      7  O2B        6.0090   36.6760   30.3970 O.2   400  ATP400     -0.5168
      8  O3B        6.7620   35.9830   32.6890 O.3   400  ATP400     -0.2258
      9  PA         5.7550   33.2180   29.8610 P.3   400  ATP400      0.2189
     10  O1A        4.9770   32.1120   30.5470 O.3   400  ATP400     -0.4371
     11  O2A        5.0560   34.0380   28.7970 O.2   400  ATP400     -0.5170
     12  O3A        6.3920   34.2000   30.9850 O.3   400  ATP400     -0.2700
     13  O5'        7.0570   32.5440   29.2040 O.3   400  ATP400     -0.3112
     14  C5'        8.0740   33.3340   28.5980 C.3   400  ATP400      0.1813
     15  C4'        9.3900   32.5680   28.7080 C.3   400  ATP400      0.1821
     16  O4'        9.2230   31.2010   28.3090 O.3   400  ATP400     -0.3135
     17  C3'       10.4830   33.1710   27.8370 C.3   400  ATP400      0.2184
     18  O3'       11.5940   33.4830   28.6820 O.3   400  ATP400     -0.2174
     19  C2'       10.8580   32.0760   26.8560 C.3   400  ATP400      0.2570
     20  O2'       12.2670   31.9770   26.6680 O.3   400  ATP400     -0.2130
     21  C1'       10.3490   30.8110   27.5150 C.3   400  ATP400      0.3186
     22  N9         9.9970   29.8140   26.4770 N.pl3 400  ATP400     -0.1439
     23  C8         9.0240   29.9390   25.5520 C.3   400  ATP400      0.3377
     24  N7         8.9760   28.8410   24.7520 N.2   400  ATP400     -0.2095
     25  C5         9.9360   27.9950   25.1670 C.2   400  ATP400      0.2526
     26  C6        10.4260   26.6610   24.7650 C.2   400  ATP400      0.4393
     27  N6         9.8540   26.0100   23.7260 N.pl3 400  ATP400      0.2180
     28  N1        11.4570   26.1260   25.4620 N.2   400  ATP400      0.0021
     29  C2        12.0260   26.7750   26.4940 C.3   400  ATP400      0.5254
     30  N3        11.6290   27.9890   26.9140 N.2   400  ATP400     -0.0055
     31  C4        10.6110   28.6420   26.3020 C.2   400  ATP400      0.3518
@<TRIPOS>BOND
     1    27    26    1
     2    24    25    2
     3    24    23    1
     4    26    25    1
     5    26    28    2
     6    25    31    1
     7    28    29    1
     8    23    22    1
     9    31    22    1
    10    31    30    2
    11    22    21    1
    12    29    30    1
    13    20    19    1
    14    19    21    1
    15    19    17    1
    16    21    16    1
    17    17    18    1
    18    17    15    1
    19    16    15    1
    20    14    15    1
    21    14    13    1
    22    11     9    2
    23    13     9    1
    24     9    10    1
    25     9    12    1
    26     7     5    2
    27    12     5    1
    28     5     6    1
    29     5     8    1
    30     8     1    1
    31     3     1    2
    32     1     2    1
    33     1     4    1
