@<TRIPOS>MOLECULE
3m3o_GAL_A_1.pdb
 11 11 0 0 0
SMALL
GASTEIGER

@<TRIPOS>ATOM
      1  C1         1.8920  -19.5680   -0.2800 C.3   240  GAL240      0.1777
      2  C2         0.9340  -18.3750   -0.3250 C.3   240  GAL240      0.2141
      3  C3         1.7030  -17.0600   -0.4630 C.3   240  GAL240      0.2173
      4  C4         2.7380  -16.9750    0.6580 C.3   240  GAL240      0.2142
      5  C5         3.6330  -18.2160    0.6100 C.3   240  GAL240      0.1810
      6  C6         4.7100  -18.1320    1.6950 C.3   240  GAL240      0.2141
      7  O2         0.0200  -18.5290   -1.4130 O.3   240  GAL240     -0.2176
      8  O3         0.7940  -15.9610   -0.3600 O.3   240  GAL240     -0.2175
      9  O4         2.0570  -16.9250    1.9150 O.3   240  GAL240     -0.2176
     10  O5         2.8400  -19.4000    0.7870 O.3   240  GAL240     -0.3481
     11  O6         5.6120  -19.2360    1.5730 O.3   240  GAL240     -0.2176
@<TRIPOS>BOND
     1     7     2    1
     2     3     8    1
     3     3     2    1
     4     3     4    1
     5     2     1    1
     6     1    10    1
     7     5     4    1
     8     5    10    1
     9     5     6    1
    10     4     9    1
    11    11     6    1
