@<TRIPOS>MOLECULE
3m3q_GAL_A_1.pdb
 11 11 0 0 0
SMALL
GASTEIGER

@<TRIPOS>ATOM
      1  C1        -6.5020    3.6530  -20.0950 C.3   298  GAL298      0.1777
      2  C2        -7.5200    4.7940  -20.0350 C.3   298  GAL298      0.2141
      3  C3        -6.8570    6.0830  -19.5490 C.3   298  GAL298      0.2173
      4  C4        -6.1430    5.8150  -18.2230 C.3   298  GAL298      0.2142
      5  C5        -5.1810    4.6370  -18.3890 C.3   298  GAL298      0.1810
      6  C6        -4.4870    4.3750  -17.0500 C.3   298  GAL298      0.2141
      7  O2        -8.0990    4.9980  -21.3270 O.3   298  GAL298     -0.2176
      8  O3        -7.8570    7.0870  -19.3570 O.3   298  GAL298     -0.2175
      9  O4        -7.1060    5.5040  -17.2120 O.3   298  GAL298     -0.2176
     10  O5        -5.9160    3.4700  -18.7970 O.3   298  GAL298     -0.3481
     11  O6        -3.5440    3.3090  -17.1900 O.3   298  GAL298     -0.2176
@<TRIPOS>BOND
     1     7     2    1
     2     1     2    1
     3     1    10    1
     4     2     3    1
     5     3     8    1
     6     3     4    1
     7    10     5    1
     8     5     4    1
     9     5     6    1
    10     4     9    1
    11    11     6    1
