@<TRIPOS>MOLECULE
3m3x_JS7_A_1.pdb
 24 25 0 0 0
SMALL
GASTEIGER

@<TRIPOS>ATOM
      1  N1        -0.7120   10.1540   14.9950 N.2   264  JS7264     -0.1861
      2  C2        -0.7280    8.9310   15.5160 C.3   264  JS7264      0.3940
      3  N3        -1.1920    7.9020   14.8360 N.2   264  JS7264     -0.0347
      4  C4        -1.6710    8.0640   13.6040 C.2   264  JS7264      0.3710
      5  C5        -1.6890    9.3580   12.9920 C.3   264  JS7264      0.3476
      6  C6        -1.1700   10.4470   13.7680 C.2   264  JS7264      0.2403
      7  N7        -2.1270    6.9080   12.9360 N.pl3 264  JS7264     -0.0330
      8  C8        -4.3780    4.5920   14.5080 C.ar  264  JS7264     -0.0178
      9  C9        -5.7130    4.4520   14.8720 C.ar  264  JS7264     -0.0028
     10  C10       -6.1380    3.2970   15.5750 C.ar  264  JS7264      0.0197
     11  C11       -5.2930    2.2540   15.9100 C.ar  264  JS7264      0.1250
     12  C12       -3.9380    2.3950   15.5170 C.ar  264  JS7264      0.0197
     13  C13       -3.4610    3.5540   14.8180 C.ar  264  JS7264     -0.0028
     14  S14       -5.9160    0.7670   16.7910 S.O2  264  JS7264      0.0935
     15  O15       -5.3680    0.8370   18.1760 O.2   264  JS7264     -0.1503
     16  O16       -7.4790    0.8650   16.6180 O.2   264  JS7264     -0.1503
     17  N17       -5.2700   -0.4930   15.9290 N.3   264  JS7264      0.0392
     18  N18       -2.2660    9.4620   11.5730 N.pl3 264  JS7264      0.0539
     19  O19       -3.1780   10.1770   11.3220 O.2   264  JS7264     -0.1300
     20  O20       -1.7310    8.7330   10.5760 O.2   264  JS7264     -0.1300
     21  O21       -1.0600   11.9020   13.4260 O.2   264  JS7264     -0.4575
     22  C22        0.1580   12.5640   13.3400 C.3   264  JS7264      0.2540
     23  C23       -2.4770    5.7870   13.7050 C.3   264  JS7264      0.2556
     24  C24       -3.9960    5.8410   13.7760 C.3   264  JS7264      0.0817
@<TRIPOS>BOND
     1    20    18    2
     2    19    18    2
     3    18     5    1
     4     7     4    1
     5     7    23    1
     6     5     4    1
     7     5     6    1
     8    22    21    1
     9    21     6    1
    10     4     3    2
    11    23    24    1
    12     6     1    2
    13    24     8    1
    14     8    13   ar
    15     8     9   ar
    16    13    12   ar
    17     3     2    1
    18     9    10   ar
    19     1     2    1
    20    12    11   ar
    21    10    11   ar
    22    11    14    1
    23    17    14    1
    24    16    14    2
    25    14    15    2
