@<TRIPOS>MOLECULE
3m3z_3F5_A_1.pdb
 25 27 0 0 0
SMALL
GASTEIGER

@<TRIPOS>ATOM
      1  N1        18.1480   -5.4300   -2.5750 N.2   401  3F5401      0.0031
      2  C2        16.8420   -5.5240   -2.1230 C.3   401  3F5401      0.5255
      3  N3        16.4750   -4.9270   -1.0320 N.2   401  3F5401     -0.0038
      4  C4        19.0730   -4.6700   -1.8790 C.2   401  3F5401      0.4517
      5  N5        17.2550   -3.5120    0.7800 N.pl3 401  3F5401     -0.1035
      6  C6        18.4610   -2.8960    1.0340 C.cat 401  3F5401      0.3575
      7  N7        19.3250   -3.2470    0.0820 N.2   401  3F5401     -0.3358
      8  C8        18.6750   -4.0120   -0.7830 C.2   401  3F5401      0.3078
      9  C9        17.3670   -4.1690   -0.3320 C.2   401  3F5401      0.3701
     10  N10       20.3680   -4.5720   -2.3070 N.pl3 401  3F5401      0.2193
     11  C11       16.0250   -3.3400    1.5100 C.3   401  3F5401      0.3245
     12  O12       15.8710   -1.9360    1.7750 O.3   401  3F5401     -0.3132
     13  C13       14.9210   -1.8530    2.8650 C.3   401  3F5401      0.1817
     14  C14       14.9880   -3.2230    3.5840 C.3   401  3F5401      0.2184
     15  C15       16.0850   -3.9490    2.8750 C.3   401  3F5401      0.2574
     16  C16       15.4010   -0.7500    3.7900 C.3   401  3F5401      0.1750
     17  O17       16.7400   -1.0440    4.1680 O.3   401  3F5401     -0.3417
     18  O18       15.7810   -5.3600    2.8060 O.3   401  3F5401     -0.2130
     19  O19       13.7570   -3.9060    3.3990 O.3   401  3F5401     -0.2174
     20  N20       18.6740   -2.0950    2.0850 N.pl3 401  3F5401     -0.1723
     21  C21       19.9810   -1.3760    2.2200 C.3   401  3F5401      0.1419
     22  C22       17.1630   -0.2000    5.2310 C.3   401  3F5401      0.2305
     23  C23       18.1870   -0.9610    6.0580 C.2   401  3F5401      0.2909
     24  O24       18.0280   -2.1600    6.2810 O.2   401  3F5401     -0.2689
     25  N25       19.2550   -0.3450    6.5110 N.am  401  3F5401     -0.0856
@<TRIPOS>BOND
     1     1     2    1
     2     1     4    2
     3    10     4    1
     4     2     3    1
     5     4     8    1
     6     3     9    2
     7     8     9    1
     8     8     7    2
     9     9     5    1
    10     7     6    2
    11     5     6    1
    12     5    11    1
    13     6    20    1
    14    11    12    1
    15    11    15    1
    16    12    13    1
    17    20    21    1
    18    18    15    1
    19    13    14    1
    20    13    16    1
    21    15    14    1
    22    19    14    1
    23    16    17    1
    24    17    22    1
    25    22    23    1
    26    23    24    2
    27    23    25   am
