@<TRIPOS>MOLECULE
3m40_J45_A_1.pdb
 21 22 0 0 0
SMALL
GASTEIGER

@<TRIPOS>ATOM
      1  N1        -5.9300    7.8370   11.2480 N.2   263  J45263     -0.2088
      2  C2        -6.5420    6.9080   11.9300 C.3   263  J45263      0.3922
      3  N3        -5.8370    6.1600   12.7740 N.2   263  J45263     -0.0345
      4  C4        -4.5230    6.3650   13.0740 C.2   263  J45263      0.3734
      5  C5        -3.8360    7.3330   12.2880 C.3   263  J45263      0.3238
      6  C6        -4.6610    8.0930   11.3950 C.2   263  J45263      0.1545
      7  N7        -3.7620    5.4360   13.8720 N.pl3 263  J45263     -0.0078
      8  C8        -4.3490    4.3860   14.5900 C.ar  263  J45263      0.1832
      9  C9        -3.5010    3.4090   15.0890 C.ar  263  J45263      0.0458
     10  C10       -4.0420    2.3570   15.7990 C.ar  263  J45263      0.0236
     11  C11       -5.4080    2.2540   16.0090 C.ar  263  J45263      0.1253
     12  C12       -6.2560    3.2220   15.4900 C.ar  263  J45263      0.0236
     13  C13       -5.7310    4.2920   14.7190 C.ar  263  J45263      0.0458
     14  S14       -6.0150    0.8830   16.8730 S.O2  263  J45263      0.0935
     15  O15       -5.4480    0.9490   18.2350 O.2   263  J45263     -0.1503
     16  O16       -7.4980    0.8850   16.7420 O.2   263  J45263     -0.1503
     17  N17       -5.3330   -0.4870   16.1380 N.3   263  J45263      0.0392
     18  N18       -2.3700    7.4570   12.5160 N.pl3 263  J45263      0.0514
     19  O19       -2.1510    7.5690   13.6740 O.2   263  J45263     -0.1300
     20  O20       -1.8910    7.3250   11.4390 O.2   263  J45263     -0.1300
     21 CL21       -4.1880    9.4210   10.3890 Cl    263  J45263     -0.0636
@<TRIPOS>BOND
     1    21     6    1
     2     1     6    2
     3     1     2    1
     4     6     5    1
     5    20    18    2
     6     2     3    1
     7     5    18    1
     8     5     4    1
     9    18    19    2
    10     3     4    2
    11     4     7    1
    12     7     8    1
    13     8    13   ar
    14     8     9   ar
    15    13    12   ar
    16     9    10   ar
    17    12    11   ar
    18    10    11   ar
    19    11    14    1
    20    17    14    1
    21    16    14    2
    22    14    15    2
