@<TRIPOS>MOLECULE
3m42_HGF_A_1.pdb
 29 33 0 0 0
SMALL
GASTEIGER

@<TRIPOS>ATOM
      1  N1        38.0530    5.8930   18.4500 N.2   365  HGF365     -0.4054
      2  C3        38.8220    6.2430   17.3990 C.ar  365  HGF365      0.1318
      3  C4        38.6830    5.9030   16.0340 C.ar  365  HGF365      0.0326
      4  C5        39.6730    6.4080   15.1190 C.ar  365  HGF365      0.0216
      5  C6        39.5400    6.0650   13.7530 C.ar  365  HGF365      0.0989
      6  N8        38.4930    5.2850   13.3410 N.ar  365  HGF365     -0.2438
      7  C9        37.5340    4.7980   14.1870 C.ar  365  HGF365      0.0830
      8  C10       37.6180    5.1010   15.5660 C.ar  365  HGF365      0.0217
      9  C12       36.4260    3.9640   13.6410 C.ar  365  HGF365      0.0398
     10  C13       35.9400    4.1210   12.3230 C.ar  365  HGF365      0.1006
     11  N15       34.9190    3.3260   11.8780 N.ar  365  HGF365     -0.2391
     12  C16       34.3220    2.3650   12.6470 C.ar  365  HGF365      0.1356
     13  C18       34.7620    2.1560   13.9790 C.ar  365  HGF365      0.1578
     14  C19       35.8150    2.9730   14.4430 C.ar  365  HGF365      0.0416
     15  O21       34.2090    1.1910   14.8440 O.3   365  HGF365     -0.4712
     16  C22       34.9940    0.1580   15.4760 C.3   365  HGF365      0.2374
     17  C25       34.2240   -0.4120   16.6910 C.3   365  HGF365      0.1894
     18  O28       34.3480    0.5030   17.8000 O.3   365  HGF365     -0.3471
     19  C29       33.1310    0.6530   18.5640 C.3   365  HGF365      0.1743
     20  C33       40.7450    7.2250   15.5820 C.ar  365  HGF365      0.0017
     21  C35       40.8530    7.5600   16.9590 C.ar  365  HGF365      0.0034
     22  C37       39.8740    7.0560   17.8450 C.ar  365  HGF365      0.0427
     23  C38       39.5980    7.1560   19.3310 C.2   365  HGF365      0.1106
     24  C39       38.4960    6.4120   19.5640 C.2   365  HGF365      0.1219
     25  C40       37.8840    6.2340   20.9390 C.3   365  HGF365      0.0869
     26  C43       38.8900    6.6230   22.0740 C.3   365  HGF365      0.1453
     27  N46       39.9310    7.6110   21.7110 N.2   365  HGF365     -0.2020
     28  C48       40.2940    7.8820   20.4240 C.1   365  HGF365      0.1523
     29  O49       41.1610    8.7000   20.1740 O.2   365  HGF365     -0.2222
@<TRIPOS>BOND
     1    11    10   ar
     2    11    12   ar
     3    10     9   ar
     4    12    13   ar
     5     6     5   ar
     6     6     7   ar
     7     9     7    1
     8     9    14   ar
     9     5     4   ar
    10    13    14   ar
    11    13    15    1
    12     7     8   ar
    13    15    16    1
    14     4    20   ar
    15     4     3   ar
    16    16    17    1
    17     8     3   ar
    18    20    21   ar
    19     3     2   ar
    20    17    18    1
    21    21    22   ar
    22     2    22   ar
    23     2     1    2
    24    18    19    1
    25    22    23    2
    26     1    24    2
    27    23    24    1
    28    23    28    1
    29    24    25    1
    30    29    28    2
    31    28    27    2
    32    25    26    1
    33    27    26    1
