@<TRIPOS>MOLECULE
3m49_TDP_A_1.pdb
 26 27 0 0 0
SMALL
GASTEIGER

@<TRIPOS>ATOM
      1  N1'       25.4380   14.3390  108.6420 N.2   701  TDP701     -0.1861
      2  C2'       25.0420   15.0710  107.5830 C.1   701  TDP701      0.0663
      3  C2A       25.2100   16.5640  107.6380 C.3   701  TDP701      0.1291
      4  N3'       24.5000   14.4830  106.4920 N.2   701  TDP701     -0.3368
      5  C4'       24.3620   13.1400  106.4210 C.2   701  TDP701      0.2292
      6  N4'       23.8270   12.5310  105.3360 N.pl3 701  TDP701     -0.0925
      7  C5'       24.7950   12.3270  107.5680 C.2   701  TDP701      0.0654
      8  C6'       25.3390   12.9970  108.6580 C.2   701  TDP701      0.1115
      9  C35       24.6890   10.8140  107.5350 C.3   701  TDP701      0.1237
     10  N3        23.3120   10.4260  107.6270 N.pl3 701  TDP701     -0.2970
     11  C2        22.4830   10.2950  106.5400 C.3   701  TDP701      0.1543
     12  S1        20.8930    9.8320  107.0640 S.3   701  TDP701     -0.0951
     13  C5        21.3550    9.8080  108.7550 C.2   701  TDP701      0.0164
     14  C4        22.7780   10.1740  108.8480 C.2   701  TDP701      0.0279
     15  C4A       23.5120   10.2480  110.1650 C.3   701  TDP701      0.0473
     16  C5A       20.4260    9.4480  109.8940 C.3   701  TDP701      0.0661
     17  C5B       19.0680    9.0280  109.4010 C.3   701  TDP701      0.1544
     18  O5G       18.2850   10.2030  109.3510 O.3   701  TDP701     -0.3134
     19  P1        16.7250    9.9600  109.1790 P.3   701  TDP701      0.2230
     20  O11       16.7190    8.3900  108.7500 O.3   701  TDP701     -0.2261
     21  O12       16.2740   10.8110  108.0080 O.2   701  TDP701     -0.5169
     22  O13       16.1370   10.1820  110.5310 O.3   701  TDP701     -0.4370
     23  P2        15.4440    7.6780  108.0500 P.3   701  TDP701      0.5373
     24  O21       14.6000    7.2350  109.2130 O.3   701  TDP701     -0.1143
     25  O22       15.9690    6.5550  107.1820 O.2   701  TDP701     -0.2221
     26  O23       14.8730    8.7930  107.2070 O.3   701  TDP701     -0.1143
@<TRIPOS>BOND
     1     6     5    1
     2     5     4    2
     3     5     7    1
     4     4     2    2
     5    11    12    1
     6    11    10    1
     7    12    13    1
     8    25    23    2
     9    26    23    1
    10     9     7    1
    11     9    10    1
    12     7     8    2
    13     2     3    1
    14     2     1    2
    15    10    14    1
    16    21    19    2
    17    23    20    1
    18    23    24    1
    19     1     8    1
    20    20    19    1
    21    13    14    2
    22    13    16    1
    23    14    15    1
    24    19    18    1
    25    19    22    1
    26    18    17    1
    27    17    16    1
