@<TRIPOS>MOLECULE
3m4b_HEM_A_1.pdb
 43 50 0 0 0
SMALL
GASTEIGER

@<TRIPOS>ATOM
      1  CHA       18.2190   12.6100  -68.6630 C.2   150  HEM150      0.0000
      2  CHB       20.0930    8.4960  -66.9480 C.2   150  HEM150      0.0000
      3  CHC       16.1410    6.2380  -68.6120 C.2   150  HEM150      0.0000
      4  CHD       14.5450   10.2490  -70.7480 C.2   150  HEM150      0.0000
      5  C1A       19.0400   11.6950  -68.0550 C.2   150  HEM150      0.0000
      6  C2A       20.2760   12.0360  -67.3890 C.2   150  HEM150      0.0000
      7  C3A       20.7990   10.8950  -66.9030 C.2   150  HEM150      0.0000
      8  C4A       19.9090    9.8190  -67.2470 C.2   150  HEM150      0.0000
      9  CMA       22.1190   10.7270  -66.1160 C.3   150  HEM150      0.0000
     10  CAA       20.8260   13.4900  -67.2760 C.3   150  HEM150      0.0000
     11  CBA       20.0980   14.2020  -66.1270 C.3   150  HEM150      0.0000
     12  CGA       20.6530   15.5840  -65.8210 C.2   150  HEM150      0.0000
     13  O1A       21.6350   15.7230  -65.0620 O.co2 150  HEM150      0.0000
     14  O2A       20.1190   16.5900  -66.3250 O.co2 150  HEM150      0.0000
     15  C1B       19.1850    7.5240  -67.2730 C.ar  150  HEM150      0.0000
     16  C2B       19.3140    6.1130  -66.9690 C.ar  150  HEM150      0.0000
     17  C3B       18.2100    5.4920  -67.4250 C.ar  150  HEM150      0.0000
     18  C4B       17.3600    6.4910  -68.0340 C.ar  150  HEM150      0.0000
     19  CMB       20.5280    5.5020  -66.2390 C.3   150  HEM150      0.0000
     20  CAB       17.8670    3.9870  -67.3700 C.2   150  HEM150      0.0000
     21  CBB       17.9670    3.3350  -66.2030 C.2   150  HEM150      0.0000
     22  C1C       15.3830    7.1150  -69.3630 C.2   150  HEM150      0.0000
     23  C2C       14.2110    6.7610  -70.1400 C.2   150  HEM150      0.0000
     24  C3C       13.7570    7.8790  -70.7320 C.2   150  HEM150      0.0000
     25  C4C       14.6510    8.9510  -70.3580 C.2   150  HEM150      0.0000
     26  CMC       13.6210    5.3250  -70.2120 C.3   150  HEM150      0.0000
     27  CAC       12.5220    8.0520  -71.6610 C.2   150  HEM150      0.0000
     28  CBC       11.6120    7.0630  -71.8050 C.2   150  HEM150      0.0000
     29  C1D       15.3710   11.2570  -70.3440 C.ar  150  HEM150      0.0000
     30  C2D       15.1340   12.6430  -70.6410 C.ar  150  HEM150      0.0000
     31  C3D       16.2820   13.4060  -69.9920 C.ar  150  HEM150      0.0000
     32  C4D       17.0810   12.3730  -69.3690 C.ar  150  HEM150      0.0000
     33  CMD       13.9660   13.2140  -71.4720 C.3   150  HEM150      0.0000
     34  CAD       16.5390   14.9390  -70.0220 C.3   150  HEM150      0.0000
     35  CBD       15.8330   15.5860  -68.8400 C.3   150  HEM150      0.0000
     36  CGD       15.9190   17.1000  -68.7860 C.2   150  HEM150      0.0000
     37  O1D       16.6260   17.7640  -69.6050 O.co2 150  HEM150      0.0000
     38  O2D       15.2400   17.6530  -67.8740 O.co2 150  HEM150      0.0000
     39  NA        18.8420   10.3380  -67.9550 N.2   150  HEM150      0.0000
     40  NB        17.9810    7.7310  -67.9300 N.ar  150  HEM150      0.0000
     41  NC        15.6290    8.4660  -69.5290 N.2   150  HEM150      0.0000
     42  ND        16.5250   11.1330  -69.5820 N.ar  150  HEM150      0.0000
     43 FE         17.2310    9.4430  -68.7330 Fe    150  HEM150      0.0000
@<TRIPOS>BOND
     1    28    27    2
     2    27    24    1
     3    33    30    1
     4     4    25    1
     5     4    29    2
     6    24    25    1
     7    24    23    2
     8    30    29   ar
     9    30    31   ar
    10    25    41    2
    11    29    42   ar
    12    26    23    1
    13    23    22    1
    14    34    31    1
    15    34    35    1
    16    31    32   ar
    17    37    36   ar
    18    42    32   ar
    19    42    43    1
    20    41    22    1
    21    41    43    1
    22    32     1    2
    23    22     3    2
    24    35    36    1
    25    36    38   ar
    26    43    39    1
    27    43    40    1
    28     1     5    1
    29     3    18    1
    30     5    39    2
    31     5     6    1
    32    18    40   ar
    33    18    17   ar
    34    39     8    1
    35    40    15   ar
    36    17    20    1
    37    17    16   ar
    38     6    10    1
    39     6     7    2
    40    20    21    2
    41    10    11    1
    42    15    16   ar
    43    15     2    1
    44     8     2    2
    45     8     7    1
    46    16    19    1
    47     7     9    1
    48    14    12   ar
    49    11    12    1
    50    12    13   ar
