@<TRIPOS>MOLECULE
3m4c_HEM_A_1.pdb
 43 50 0 0 0
SMALL
GASTEIGER

@<TRIPOS>ATOM
      1  CHA      -61.8180   14.1830  -14.2070 C.2   150  HEM150      0.0000
      2  CHB      -66.2940   14.7290  -12.4110 C.2   150  HEM150      0.0000
      3  CHC      -66.3720   19.2850  -14.0740 C.2   150  HEM150      0.0000
      4  CHD      -62.0800   18.6610  -16.1800 C.2   150  HEM150      0.0000
      5  C1A      -63.0050   13.9300  -13.5490 C.2   150  HEM150      0.0000
      6  C2A      -63.3320   12.7320  -12.8030 C.2   150  HEM150      0.0000
      7  C3A      -64.5720   12.8750  -12.3040 C.2   150  HEM150      0.0000
      8  C4A      -65.0670   14.1770  -12.7180 C.2   150  HEM150      0.0000
      9  CMA      -65.3480   11.8530  -11.4380 C.3   150  HEM150      0.0000
     10  CAA      -62.3840   11.5220  -12.6380 C.3   150  HEM150      0.0000
     11  CBA      -61.4180   11.8170  -11.4930 C.3   150  HEM150      0.0000
     12  CGA      -60.5210   10.6320  -11.2490 C.2   150  HEM150      0.0000
     13  O1A      -60.6810    9.9690  -10.1990 O.co2 150  HEM150      0.0000
     14  O2A      -59.6510   10.3480  -12.1070 O.co2 150  HEM150      0.0000
     15  C1B      -66.7150   16.0020  -12.7290 C.ar  150  HEM150      0.0000
     16  C2B      -68.0280   16.5590  -12.4580 C.ar  150  HEM150      0.0000
     17  C3B      -68.0530   17.8200  -12.9170 C.ar  150  HEM150      0.0000
     18  C4B      -66.7530   18.0980  -13.4980 C.ar  150  HEM150      0.0000
     19  CMB      -69.1800   15.8030  -11.7640 C.3   150  HEM150      0.0000
     20  CAB      -69.2510   18.8060  -12.8750 C.2   150  HEM150      0.0000
     21  CBB      -69.8720   19.0880  -11.7180 C.2   150  HEM150      0.0000
     22  C1C      -65.2460   19.5050  -14.8330 C.2   150  HEM150      0.0000
     23  C2C      -64.9750   20.6830  -15.6300 C.2   150  HEM150      0.0000
     24  C3C      -63.7750   20.5190  -16.2230 C.2   150  HEM150      0.0000
     25  C4C      -63.2740   19.2240  -15.8170 C.2   150  HEM150      0.0000
     26  CMC      -65.9490   21.8780  -15.7320 C.3   150  HEM150      0.0000
     27  CAC      -63.0270   21.4770  -17.1930 C.2   150  HEM150      0.0000
     28  CBC      -63.1660   22.8090  -17.0850 C.2   150  HEM150      0.0000
     29  C1D      -61.6020   17.4260  -15.8240 C.ar  150  HEM150      0.0000
     30  C2D      -60.3060   16.9270  -16.2070 C.ar  150  HEM150      0.0000
     31  C3D      -60.2150   15.5310  -15.5850 C.ar  150  HEM150      0.0000
     32  C4D      -61.4710   15.3240  -14.8980 C.ar  150  HEM150      0.0000
     33  CMD      -59.2440   17.6640  -17.0520 C.3   150  HEM150      0.0000
     34  CAD      -59.0320   14.5490  -15.6890 C.3   150  HEM150      0.0000
     35  CBD      -58.1770   14.6780  -14.4350 C.3   150  HEM150      0.0000
     36  CGD      -56.9250   13.8540  -14.5750 C.2   150  HEM150      0.0000
     37  O1D      -56.9240   12.8700  -15.3560 O.co2 150  HEM150      0.0000
     38  O2D      -55.9240   14.1780  -13.8940 O.co2 150  HEM150      0.0000
     39  NA       -64.0810   14.7880  -13.4680 N.2   150  HEM150      0.0000
     40  NB       -65.9580   16.9750  -13.3660 N.ar  150  HEM150      0.0000
     41  NC       -64.1900   18.6370  -14.9750 N.2   150  HEM150      0.0000
     42  ND       -62.2580   16.4620  -15.0530 N.ar  150  HEM150      0.0000
     43 FE        -64.0980   16.7320  -14.2160 Fe    150  HEM150      0.0000
@<TRIPOS>BOND
     1    27    28    2
     2    27    24    1
     3    33    30    1
     4    24    25    1
     5    24    23    2
     6    30    29   ar
     7    30    31   ar
     8     4    29    2
     9     4    25    1
    10    29    42   ar
    11    25    41    2
    12    26    23    1
    13    34    31    1
    14    34    35    1
    15    23    22    1
    16    31    32   ar
    17    37    36   ar
    18    42    32   ar
    19    42    43    1
    20    41    22    1
    21    41    43    1
    22    32     1    2
    23    22     3    2
    24    36    35    1
    25    36    38   ar
    26    43    39    1
    27    43    40    1
    28     1     5    1
    29     3    18    1
    30     5    39    2
    31     5     6    1
    32    18    40   ar
    33    18    17   ar
    34    39     8    1
    35    40    15   ar
    36    17    20    1
    37    17    16   ar
    38    20    21    2
    39     6    10    1
    40     6     7    2
    41    15    16   ar
    42    15     2    1
    43     8     2    2
    44     8     7    1
    45    10    11    1
    46    16    19    1
    47     7     9    1
    48    14    12   ar
    49    11    12    1
    50    12    13   ar
