@<TRIPOS>MOLECULE
3m4h_388_A_1.pdb
 24 25 0 0 0
SMALL
GASTEIGER

@<TRIPOS>ATOM
      1  C1        18.4600   -6.2300   13.8450 C.3   600  388600      0.1440
      2  N10       17.8700   -7.0760   14.8380 N.am  600  388600     -0.1966
      3  C11       17.9420   -8.4180   14.7440 C.2   600  388600      0.2680
      4  O12       18.5070   -8.9660   13.8100 O.2   600  388600     -0.2682
      5  C2        17.5140   -5.7640   12.7650 C.ar  600  388600      0.0270
      6  C7        17.9120   -4.7750   11.8570 C.ar  600  388600      0.1383
      7  F9        19.1500   -4.2940   11.9650 F     600  388600     -0.2044
      8  C6        17.0450   -4.2650   10.8930 C.ar  600  388600      0.0361
      9  C5        15.7490   -4.7520   10.8130 C.ar  600  388600      0.0368
     10 BR8        14.5530   -4.0880    9.5550 Br    600  388600     -0.0489
     11  C4        15.3220   -5.7310   11.7000 C.ar  600  388600      0.0066
     12  C3        16.2110   -6.2310   12.6440 C.ar  600  388600      0.0002
     13  C8        17.0920   -9.1770   15.7220 C.ar  600  388600      0.0890
     14  C9        16.5180  -10.3710   15.2920 C.ar  600  388600      0.0085
     15  C10       15.7030  -11.1340   16.1070 C.ar  600  388600      0.0117
     16  C12       15.4910  -10.6830   17.3970 C.ar  600  388600      0.0607
     17 CL1        14.4670  -11.5970   18.4500 Cl    600  388600     -0.0821
     18  C14       16.0660   -9.5120   17.8710 C.ar  600  388600      0.0484
     19  C15       16.8910   -8.7810   17.0500 C.ar  600  388600      0.1446
     20  O20       17.5700   -7.6660   17.4740 O.3   600  388600     -0.4635
     21  C21       17.0240   -6.9330   18.5570 C.3   600  388600      0.3186
     22  C22       15.8010   -6.1610   18.1320 C.2   600  388600      0.4084
     23  O24       15.0950   -5.7550   19.0880 O.co2 600  388600     -0.2415
     24  O23       15.6080   -5.9780   16.9010 O.co2 600  388600     -0.2415
@<TRIPOS>BOND
     1    10     9    1
     2     9     8   ar
     3     9    11   ar
     4     8     6   ar
     5    11    12   ar
     6     6     7    1
     7     6     5   ar
     8    12     5   ar
     9     5     1    1
    10     4     3    2
    11     1     2    1
    12     3     2   am
    13     3    13    1
    14    14    13   ar
    15    14    15   ar
    16    13    19   ar
    17    15    16   ar
    18    24    22   ar
    19    19    20    1
    20    19    18   ar
    21    16    18   ar
    22    16    17    1
    23    20    21    1
    24    22    21    1
    25    22    23   ar
