@<TRIPOS>MOLECULE
3m4h_NAP_A_1.pdb
 48 52 0 0 0
SMALL
GASTEIGER

@<TRIPOS>ATOM
      1  PA        22.7410   -5.0050   26.9840 P.3   500  NAP500      0.2189
      2  O1A       23.6630   -3.9520   26.4960 O.2   500  NAP500     -0.5170
      3  O2A       21.6670   -4.6580   27.9290 O.3   500  NAP500     -0.4371
      4  O5B       23.6710   -6.1980   27.4880 O.3   500  NAP500     -0.3112
      5  C5B       23.0720   -7.4010   27.9920 C.3   500  NAP500      0.1813
      6  C4B       24.2330   -8.3250   28.3410 C.3   500  NAP500      0.1820
      7  O4B       24.9920   -7.7660   29.4050 O.3   500  NAP500     -0.3136
      8  C3B       23.8340   -9.7410   28.7870 C.3   500  NAP500      0.2157
      9  O3B       24.7910  -10.6510   28.2710 O.3   500  NAP500     -0.2175
     10  C2B       23.9370   -9.6380   30.3270 C.3   500  NAP500      0.2314
     11  O2B       24.2630  -10.9060   30.8940 O.3   500  NAP500     -0.2630
     12  C1B       25.1090   -8.6640   30.4850 C.3   500  NAP500      0.3158
     13  N9A       25.0860   -7.9230   31.7220 N.pl3 500  NAP500     -0.1439
     14  C8A       23.9880   -7.2750   32.2780 C.3   500  NAP500      0.3377
     15  N7A       24.2630   -6.6500   33.3830 N.2   500  NAP500     -0.2095
     16  C5A       25.6100   -6.8830   33.5660 C.2   500  NAP500      0.2526
     17  C6A       26.4480   -6.4490   34.6120 C.2   500  NAP500      0.4393
     18  N6A       26.0640   -5.7240   35.6530 N.pl3 500  NAP500      0.2180
     19  N1A       27.7710   -6.8770   34.5330 N.2   500  NAP500      0.0021
     20  C2A       28.1850   -7.6580   33.4640 C.3   500  NAP500      0.5254
     21  N3A       27.4140   -8.0790   32.4300 N.2   500  NAP500     -0.0055
     22  C4A       26.1130   -7.6560   32.5410 C.2   500  NAP500      0.3518
     23  O3        22.1240   -5.7000   25.6580 O.3   500  NAP500     -0.2703
     24  PN        20.7360   -5.8100   24.8870 P.3   500  NAP500      0.2189
     25  O1N       19.9450   -6.9450   25.4430 O.3   500  NAP500     -0.4371
     26  O2N       21.0690   -5.8250   23.4350 O.2   500  NAP500     -0.5170
     27  O5D       19.9880   -4.4140   25.1250 O.3   500  NAP500     -0.3112
     28  C5D       19.1140   -4.1630   26.2580 C.3   500  NAP500      0.1813
     29  C4D       17.6740   -4.2920   25.8430 C.3   500  NAP500      0.1799
     30  O4D       17.3260   -3.2680   24.8720 O.3   500  NAP500     -0.3327
     31  C3D       17.2540   -5.5870   25.1400 C.3   500  NAP500      0.2158
     32  O3D       17.2050   -6.7110   25.9860 O.3   500  NAP500     -0.2175
     33  C2D       15.9090   -5.1640   24.5370 C.3   500  NAP500      0.2309
     34  O2D       14.9550   -5.1520   25.6070 O.3   500  NAP500     -0.2158
     35  C1D       16.2500   -3.7480   24.0610 C.3   500  NAP500      0.2263
     36  N1N       16.7180   -3.7080   22.6380 N.pl3 500  NAP500     -0.2787
     37  C2N       15.8610   -3.1640   21.7070 C.3   500  NAP500      0.1244
     38  C3N       16.2090   -3.1480   20.3750 C.2   500  NAP500      0.0544
     39  C7N       15.3190   -2.4980   19.3440 C.2   500  NAP500      0.2818
     40  O7N       15.5400   -2.7060   18.1480 O.2   500  NAP500     -0.2670
     41  N7N       14.4040   -1.6620   19.7970 N.am  500  NAP500     -0.0839
     42  C4N       17.4210   -3.7350   19.9570 C.2   500  NAP500      0.0033
     43  C5N       18.3070   -4.2400   20.9130 C.2   500  NAP500      0.0157
     44  C6N       17.9750   -4.1870   22.2610 C.2   500  NAP500      0.0633
     45  P2B       23.2060  -11.7920   31.7610 P.3   500  NAP500      0.5328
     46  O1X       23.7500  -13.1990   31.5370 O.3   500  NAP500     -0.1145
     47  O2X       23.3500  -11.3330   33.1930 O.3   500  NAP500     -0.1145
     48  O3X       21.8260  -11.5480   31.1940 O.2   500  NAP500     -0.2224
@<TRIPOS>BOND
     1    40    39    2
     2    39    41   am
     3    39    38    1
     4    42    38    2
     5    42    43    1
     6    38    37    1
     7    43    44    2
     8    37    36    1
     9    44    36    1
    10    36    35    1
    11    26    24    2
    12    35    33    1
    13    35    30    1
    14    33    31    1
    15    33    34    1
    16    30    29    1
    17    24    27    1
    18    24    25    1
    19    24    23    1
    20    27    28    1
    21    31    29    1
    22    31    32    1
    23    23     1    1
    24    29    28    1
    25     2     1    2
    26     1     4    1
    27     1     3    1
    28     4     5    1
    29     5     6    1
    30     9     8    1
    31     6     8    1
    32     6     7    1
    33     8    10    1
    34     7    12    1
    35    10    12    1
    36    10    11    1
    37    12    13    1
    38    11    45    1
    39    48    45    2
    40    46    45    1
    41    13    14    1
    42    13    22    1
    43    45    47    1
    44    14    15    1
    45    21    22    2
    46    21    20    1
    47    22    16    1
    48    15    16    2
    49    20    19    1
    50    16    17    1
    51    19    17    2
    52    17    18    1
