@<TRIPOS>MOLECULE
3m4j_PA9_A_1.pdb
 19 18 0 0 0
SMALL
GASTEIGER

@<TRIPOS>ATOM
      1  CA       108.5020   42.2650   82.2380 C.3   345  PA9345      0.1978
      2  CB       108.3350   43.3490   83.3110 C.3   345  PA9345      0.0351
      3  CG       107.0600   44.1640   83.2090 C.3   345  PA9345      0.0258
      4  CD       107.0340   45.3090   84.2180 C.3   345  PA9345      0.1152
      5  C        108.7120   42.8890   80.8470 C.2   345  PA9345      0.3842
      6  O        107.7050   43.1420   80.1570 O.co2 345  PA9345     -0.2437
      7  OXT      109.8780   43.1190   80.4600 O.co2 345  PA9345     -0.2437
      8  C1       110.3300   40.4950   82.0330 C.2   345  PA9345      0.2423
      9  O1       109.7650   39.5930   81.4150 O.2   345  PA9345     -0.2733
     10  P        105.9850   42.5360   88.1240 P.3   345  PA9345      0.1264
     11  O1P      106.3630   41.6640   86.8610 O.2   345  PA9345     -0.4596
     12  O2P      104.3940   42.5800   88.3600 O.3   345  PA9345     -0.3568
     13  O3P      106.7480   41.9590   89.4320 O.3   345  PA9345     -0.3568
     14  N1       109.6550   41.4580   82.6570 N.am  345  PA9345     -0.1956
     15  C2       111.8450   40.6170   82.1650 C.3   345  PA9345      0.0964
     16  N2       107.1750   44.8680   85.6080 N.am  345  PA9345     -0.2050
     17  C3       106.1640   44.6740   86.4530 C.2   345  PA9345      0.2488
     18  O2       104.9820   44.8540   86.1510 O.2   345  PA9345     -0.2728
     19  C4       106.5430   44.2250   87.8460 C.3   345  PA9345      0.1454
@<TRIPOS>BOND
     1     6     5   ar
     2     7     5   ar
     3     5     1    1
     4     9     8    2
     5     8    15    1
     6     8    14   am
     7     1    14    1
     8     1     2    1
     9     3     2    1
    10     3     4    1
    11     4    16    1
    12    16    17   am
    13    18    17    2
    14    17    19    1
    15    11    10    2
    16    19    10    1
    17    10    12    1
    18    10    13    1
