@<TRIPOS>MOLECULE
3m4n_PA9_A_1.pdb
 19 18 0 0 0
SMALL
GASTEIGER

@<TRIPOS>ATOM
      1  CA       108.4930   42.1650   82.1290 C.3   345  PA9345      0.1978
      2  CB       108.2310   43.2290   83.1980 C.3   345  PA9345      0.0351
      3  CG       106.9230   43.9560   83.0890 C.3   345  PA9345      0.0258
      4  CD       106.8780   45.1430   84.0400 C.3   345  PA9345      0.1152
      5  C        108.6080   42.7770   80.7230 C.2   345  PA9345      0.3842
      6  O        107.6010   43.3220   80.2250 O.co2 345  PA9345     -0.2437
      7  OXT      109.7100   42.7070   80.1330 O.co2 345  PA9345     -0.2437
      8  C1       110.4210   40.5160   82.1600 C.2   345  PA9345      0.2423
      9  O1       109.9070   39.7080   81.3920 O.2   345  PA9345     -0.2733
     10  P        105.9840   42.6420   88.1410 P.3   345  PA9345      0.1264
     11  O1P      106.3290   41.7420   86.9020 O.2   345  PA9345     -0.4596
     12  O2P      104.4090   42.6850   88.3890 O.3   345  PA9345     -0.3568
     13  O3P      106.7490   42.1490   89.4700 O.3   345  PA9345     -0.3568
     14  N1       109.8200   41.6530   82.4880 N.am  345  PA9345     -0.1956
     15  C2       111.7880   40.3280   82.8190 C.3   345  PA9345      0.0964
     16  N2       107.0810   44.7770   85.4420 N.am  345  PA9345     -0.2050
     17  C3       106.1140   44.7020   86.3510 C.2   345  PA9345      0.2488
     18  O2       104.9250   44.9200   86.0950 O.2   345  PA9345     -0.2728
     19  C4       106.5470   44.3200   87.7510 C.3   345  PA9345      0.1454
@<TRIPOS>BOND
     1     7     5   ar
     2     6     5   ar
     3     5     1    1
     4     9     8    2
     5     1    14    1
     6     1     2    1
     7     8    14   am
     8     8    15    1
     9     3     2    1
    10     3     4    1
    11     4    16    1
    12    16    17   am
    13    18    17    2
    14    17    19    1
    15    11    10    2
    16    19    10    1
    17    10    12    1
    18    10    13    1
