@<TRIPOS>MOLECULE
3m4v_HEM_A_1.pdb
 43 50 0 0 0
SMALL
GASTEIGER

@<TRIPOS>ATOM
      1  CHA       -1.9580    2.3250  -18.8580 C.2   482  HEM482      0.0000
      2  CHB       -6.8020    2.1980  -19.0840 C.2   482  HEM482      0.0000
      3  CHC       -6.5550   -2.2320  -21.0880 C.2   482  HEM482      0.0000
      4  CHD       -1.7640   -2.3270  -20.4240 C.2   482  HEM482      0.0000
      5  C1A       -3.2770    2.6970  -18.7410 C.2   482  HEM482      0.0000
      6  C2A       -3.7770    3.9490  -18.2030 C.2   482  HEM482      0.0000
      7  C3A       -5.1180    3.9050  -18.2810 C.2   482  HEM482      0.0000
      8  C4A       -5.5080    2.6290  -18.8490 C.2   482  HEM482      0.0000
      9  CMA       -6.1080    5.0080  -17.8200 C.3   482  HEM482      0.0000
     10  CAA       -2.9240    5.1150  -17.6480 C.3   482  HEM482      0.0000
     11  CBA       -2.6680    4.8780  -16.1510 C.3   482  HEM482      0.0000
     12  CGA       -1.9660    6.0250  -15.4430 C.2   482  HEM482      0.0000
     13  O1A       -1.4780    5.8090  -14.3050 O.co2 482  HEM482      0.0000
     14  O2A       -1.8740    7.1640  -15.9750 O.co2 482  HEM482      0.0000
     15  C1B       -7.1680    1.0040  -19.6720 C.ar  482  HEM482      0.0000
     16  C2B       -8.5070    0.6150  -20.0480 C.ar  482  HEM482      0.0000
     17  C3B       -8.4370   -0.6160  -20.6100 C.ar  482  HEM482      0.0000
     18  C4B       -7.0490   -1.0390  -20.5950 C.ar  482  HEM482      0.0000
     19  CMB       -9.7550    1.5050  -19.8170 C.3   482  HEM482      0.0000
     20  CAB       -9.5660   -1.5100  -21.1790 C.2   482  HEM482      0.0000
     21  CBB      -10.7630   -1.0490  -21.5530 C.2   482  HEM482      0.0000
     22  C1C       -5.2410   -2.6620  -21.1160 C.2   482  HEM482      0.0000
     23  C2C       -4.7270   -3.9160  -21.6680 C.2   482  HEM482      0.0000
     24  C3C       -3.3900   -3.9270  -21.4750 C.2   482  HEM482      0.0000
     25  C4C       -3.0340   -2.6890  -20.8120 C.2   482  HEM482      0.0000
     26  CMC       -5.6000   -5.0110  -22.3350 C.3   482  HEM482      0.0000
     27  CAC       -2.3170   -4.9860  -21.8390 C.2   482  HEM482      0.0000
     28  CBC       -2.5090   -6.0090  -22.6840 C.2   482  HEM482      0.0000
     29  C1D       -1.3670   -1.0950  -19.9400 C.ar  482  HEM482      0.0000
     30  C2D        0.0020   -0.7310  -19.6270 C.ar  482  HEM482      0.0000
     31  C3D       -0.0690    0.7080  -19.1440 C.ar  482  HEM482      0.0000
     32  C4D       -1.4650    1.0880  -19.2160 C.ar  482  HEM482      0.0000
     33  CMD        1.2860   -1.5860  -19.7290 C.3   482  HEM482      0.0000
     34  CAD        1.1180    1.5800  -18.7200 C.3   482  HEM482      0.0000
     35  CBD        1.6240    2.2080  -20.0280 C.3   482  HEM482      0.0000
     36  CGD        2.8100    3.0960  -19.7500 C.2   482  HEM482      0.0000
     37  O1D        3.8830    2.9370  -20.3920 O.co2 482  HEM482      0.0000
     38  O2D        2.6820    3.9640  -18.8580 O.co2 482  HEM482      0.0000
     39  NA        -4.3620    1.9130  -19.1100 N.2   482  HEM482      0.0000
     40  NB        -6.3160   -0.0220  -20.0180 N.ar  482  HEM482      0.0000
     41  NC        -4.1770   -1.9540  -20.6100 N.2   482  HEM482      0.0000
     42  ND        -2.1950   -0.0010  -19.6760 N.ar  482  HEM482      0.0000
     43 FE         -4.2580    0.0340  -20.0340 Fe    482  HEM482      0.0000
@<TRIPOS>BOND
     1    28    27    2
     2    26    23    1
     3    27    24    1
     4    23    24    2
     5    23    22    1
     6    21    20    2
     7    24    25    1
     8    20    17    1
     9    22     3    2
    10    22    41    1
    11     3    18    1
    12    25    41    2
    13    25     4    1
    14    17    18   ar
    15    17    16   ar
    16    41    43    1
    17    18    40   ar
    18     4    29    2
    19    37    36   ar
    20    16    19    1
    21    16    15   ar
    22    43    40    1
    23    43    42    1
    24    43    39    1
    25    35    36    1
    26    35    34    1
    27    40    15   ar
    28    29    42   ar
    29    29    30   ar
    30    36    38   ar
    31    33    30    1
    32    42    32   ar
    33    15     2    1
    34    30    31   ar
    35    32    31   ar
    36    32     1    2
    37    31    34    1
    38    39     8    1
    39    39     5    2
    40     2     8    2
    41     1     5    1
    42     8     7    1
    43     5     6    1
    44     7     6    2
    45     7     9    1
    46     6    10    1
    47    10    11    1
    48    11    12    1
    49    14    12   ar
    50    12    13   ar
