@<TRIPOS>MOLECULE
3m50_EBT_A_1.pdb
 22 22 0 0 0
SMALL
GASTEIGER

@<TRIPOS>ATOM
      1  C         -1.3560  -33.6010    8.5950 C.2   241  EBT241      0.3842
      2  N         -0.7150  -35.9700    9.1100 N.am  241  EBT241     -0.1934
      3  O         -1.0710  -33.9180    7.4160 O.co2 241  EBT241     -0.2437
      4  CA        -1.0710  -34.6420    9.6910 C.3   241  EBT241      0.1978
      5  CB         0.0150  -34.0840   10.6370 C.3   241  EBT241      0.0333
      6  CG        -0.6060  -32.8930   11.4090 C.3   241  EBT241      0.0023
      7  OAA       -2.2950  -39.0780    8.1300 O.3   241  EBT241     -0.2116
      8  OAB       -2.8410  -36.7910    9.1090 O.2   241  EBT241     -0.2705
      9  NAF       -0.4240  -38.5780   10.6410 N.3   241  EBT241     -0.1293
     10  CAJ       -0.1210  -38.9190    9.2410 C.3   241  EBT241      0.1355
     11  CAK       -1.1440  -38.2420    8.3000 C.3   241  EBT241      0.2467
     12  CAL        1.3220  -38.4880    8.9230 C.3   241  EBT241      0.0485
     13  CAM       -1.6400  -36.9190    8.8800 C.2   241  EBT241      0.2738
     14  CAP        2.2160  -39.6730    8.5090 C.ar  241  EBT241     -0.0206
     15  CAR        2.1170  -40.2180    7.2300 C.ar  241  EBT241     -0.0042
     16  CAS        3.1350  -40.1980    9.4100 C.ar  241  EBT241     -0.0042
     17  CAT        2.9220  -41.2800    6.8420 C.ar  241  EBT241     -0.0003
     18  CAU        3.9380  -41.2620    9.0190 C.ar  241  EBT241     -0.0003
     19  CAV        3.8380  -41.8030    7.7390 C.ar  241  EBT241     -0.0000
     20  CD1       -0.5540  -33.0780   12.9450 C.3   241  EBT241      0.0001
     21  CD2        0.0020  -31.5510   10.9600 C.3   241  EBT241      0.0001
     22  OXT       -1.8370  -32.5010    8.9690 O.co2 241  EBT241     -0.2437
@<TRIPOS>BOND
     1    17    15   ar
     2    17    19   ar
     3    15    14   ar
     4     3     1   ar
     5    19    18   ar
     6     7    11    1
     7    11    13    1
     8    11    10    1
     9    14    12    1
    10    14    16   ar
    11     1    22   ar
    12     1     4    1
    13    13     8    2
    14    13     2   am
    15    12    10    1
    16    18    16   ar
    17     2     4    1
    18    10     9    1
    19     4     5    1
    20     5     6    1
    21    21     6    1
    22     6    20    1
