@<TRIPOS>MOLECULE
3m51_YR1_A_1.pdb
 34 37 0 0 0
SMALL
GASTEIGER

@<TRIPOS>ATOM
      1  OAA       -0.7760  -32.0720   11.0760 O.co2 241  YR1241     -0.2404
      2  OAB       -3.6090  -24.3030   11.5950 O.2   241  YR1241     -0.2867
      3  OAC       -6.4600  -28.7260    9.0640 O.2   241  YR1241     -0.2660
      4  OAD        1.5130  -28.6630    8.3240 O.2   241  YR1241     -0.1261
      5  OAE       -1.6080  -32.5860    9.0870 O.co2 241  YR1241     -0.2404
      6  OAF       -6.5290  -25.8270    8.8740 O.2   241  YR1241     -0.2819
      7  OAG       -3.7580  -33.7100   11.4900 O.3   241  YR1241     -0.2863
      8  OAH        1.8320  -26.2760    8.8850 O.2   241  YR1241     -0.1261
      9  CAI       -6.5270  -21.7610    8.3520 C.ar  241  YR1241      0.0000
     10  CAJ       -5.8020  -22.7970    7.7710 C.ar  241  YR1241      0.0001
     11  CAK       -6.5960  -21.6490    9.7400 C.ar  241  YR1241      0.0001
     12  CAL       -5.1500  -23.7130    8.5840 C.ar  241  YR1241      0.0032
     13  CAM       -5.9400  -22.5690   10.5550 C.ar  241  YR1241      0.0032
     14  CAN       -5.2600  -31.8650   11.6530 C.ar  241  YR1241      0.0435
     15  CAO       -2.4070  -28.2990    9.6340 C.ar  241  YR1241     -0.0006
     16  CAP       -1.7430  -26.3970   10.9630 C.ar  241  YR1241     -0.0006
     17  CAQ       -5.5480  -30.5210   11.4380 C.ar  241  YR1241      0.0182
     18  CAR       -1.1430  -28.3400    9.0610 C.ar  241  YR1241      0.0238
     19  CAS       -0.4780  -26.4360   10.3890 C.ar  241  YR1241      0.0238
     20  CAT       -3.3650  -30.2240   10.4610 C.ar  241  YR1241      0.0247
     21  CAU       -1.7120  -32.1220   10.2460 C.2   241  YR1241      0.3909
     22  CAV       -5.7320  -26.5980    9.6650 C.2   241  YR1241      0.2500
     23  CAW       -4.4790  -24.6420   10.7960 C.2   241  YR1241      0.1967
     24  CAX       -5.7290  -27.9880    9.7220 C.2   241  YR1241      0.2922
     25  CAY       -4.7980  -26.1160   10.5620 C.2   241  YR1241      0.0827
     26  CAZ       -4.0270  -32.3910   11.2730 C.ar  241  YR1241      0.2021
     27  CBA       -5.2250  -23.6040    9.9690 C.ar  241  YR1241      0.0388
     28  CBB       -2.7020  -27.3320   10.5900 C.ar  241  YR1241      0.0005
     29  CBC       -3.0770  -31.5650   10.6740 C.ar  241  YR1241      0.1198
     30  CBD       -4.5940  -29.7020   10.8470 C.ar  241  YR1241      0.0552
     31  CBE       -0.1820  -27.4090    9.4390 C.ar  241  YR1241      0.1429
     32  CBF       -4.0960  -27.2960   11.2000 C.3   241  YR1241      0.1315
     33  NBG       -4.8470  -28.4170   10.6220 N.am  241  YR1241     -0.2462
     34  NBH        1.0270  -27.4490    8.8920 N.pl3 241  YR1241      0.0577
@<TRIPOS>BOND
     1    10     9   ar
     2    10    12   ar
     3     4    34    2
     4     9    11   ar
     5    12    27   ar
     6     6    22    1
     7     8    34    2
     8    34    31    1
     9    18    31   ar
    10    18    15   ar
    11     3    24    2
    12     5    21   ar
    13    31    19   ar
    14    15    28   ar
    15    22    24    1
    16    22    25    2
    17    24    33   am
    18    11    13   ar
    19    27    13   ar
    20    27    23    1
    21    21    29    1
    22    21     1   ar
    23    19    16   ar
    24    20    29   ar
    25    20    30   ar
    26    25    23    1
    27    25    32    1
    28    28    16   ar
    29    28    32    1
    30    33    30    1
    31    33    32    1
    32    29    26   ar
    33    23     2    2
    34    30    17   ar
    35    26     7    1
    36    26    14   ar
    37    17    14   ar
