@<TRIPOS>MOLECULE
3m53_SAH_A_1.pdb
 26 28 0 0 0
SMALL
GASTEIGER

@<TRIPOS>ATOM
      1  N        -29.5110   20.3380   -9.4700 N.3   800  SAH800     -0.1208
      2  CA       -30.5930   19.4900  -10.0630 C.3   800  SAH800      0.1952
      3  CB       -31.9240   19.9270   -9.4410 C.3   800  SAH800      0.0422
      4  CG       -32.0910   19.2370   -8.0910 C.3   800  SAH800      0.0597
      5  SD       -32.4020   17.5010   -8.3100 S.3   800  SAH800     -0.1375
      6  C        -30.6930   19.6110  -11.5570 C.2   800  SAH800      0.3819
      7  O        -31.6340   19.0570  -12.1810 O.co2 800  SAH800     -0.2441
      8  OXT      -29.8710   20.2860  -12.1970 O.co2 800  SAH800     -0.2441
      9  C5'      -31.3770   16.7060   -7.0890 C.3   800  SAH800      0.0899
     10  C4'      -29.9260   16.6730   -7.5580 C.3   800  SAH800      0.1630
     11  O4'      -29.3860   17.9850   -7.5330 O.3   800  SAH800     -0.3153
     12  C3'      -28.9760   15.8480   -6.6880 C.3   800  SAH800      0.2168
     13  O3'      -28.8240   14.5440   -7.2350 O.3   800  SAH800     -0.2175
     14  C2'      -27.6550   16.6050   -6.7030 C.3   800  SAH800      0.2569
     15  O2'      -26.9220   16.2880   -7.8760 O.3   800  SAH800     -0.2130
     16  C1'      -28.0750   18.0330   -6.9350 C.3   800  SAH800      0.3185
     17  N9       -28.0610   18.7870   -5.6580 N.pl3 800  SAH800     -0.1439
     18  C8       -29.1450   19.2160   -4.9780 C.3   800  SAH800      0.3377
     19  N7       -28.7950   19.8870   -3.8530 N.2   800  SAH800     -0.2095
     20  C5       -27.4480   19.8900   -3.8000 C.2   800  SAH800      0.2526
     21  C6       -26.4310   20.4170   -2.8550 C.2   800  SAH800      0.4393
     22  N6       -26.8200   21.0980   -1.7450 N.pl3 800  SAH800      0.2180
     23  N1       -25.1240   20.1910   -3.1520 N.2   800  SAH800      0.0021
     24  C2       -24.7530   19.5210   -4.2630 C.3   800  SAH800      0.5254
     25  N3       -25.6250   18.9960   -5.1540 N.2   800  SAH800     -0.0055
     26  C4       -26.9660   19.1510   -4.9770 C.2   800  SAH800      0.3518
@<TRIPOS>BOND
     1     8     6   ar
     2     7     6   ar
     3     6     2    1
     4     2     1    1
     5     2     3    1
     6     3     4    1
     7     5     4    1
     8     5     9    1
     9    15    14    1
    10    10    11    1
    11    10     9    1
    12    10    12    1
    13    11    16    1
    14    13    12    1
    15    16    14    1
    16    16    17    1
    17    14    12    1
    18    17    18    1
    19    17    26    1
    20    25    26    2
    21    25    24    1
    22    18    19    1
    23    26    20    1
    24    24    23    1
    25    19    20    2
    26    20    21    1
    27    23    21    2
    28    21    22    1
