@<TRIPOS>MOLECULE
3m54_SAH_A_1.pdb
 26 28 0 0 0
SMALL
GASTEIGER

@<TRIPOS>ATOM
      1  N        -54.0530   20.2720   -6.5590 N.3   800  SAH800     -0.1208
      2  CA       -52.9750   19.3710   -6.0310 C.3   800  SAH800      0.1952
      3  CB       -51.6470   19.7790   -6.6820 C.3   800  SAH800      0.0422
      4  CG       -51.5530   19.1400   -8.0610 C.3   800  SAH800      0.0597
      5  SD       -51.1460   17.3970   -7.9890 S.3   800  SAH800     -0.1375
      6  C        -52.9220   19.4990   -4.5370 C.2   800  SAH800      0.3819
      7  O        -52.0070   18.9430   -3.9040 O.co2 800  SAH800     -0.2441
      8  OXT      -53.7590   20.1730   -3.8940 O.co2 800  SAH800     -0.2441
      9  C5'      -52.3610   16.6580   -9.0700 C.3   800  SAH800      0.0899
     10  C4'      -53.7720   16.7240   -8.5010 C.3   800  SAH800      0.1630
     11  O4'      -54.3360   18.0300   -8.5760 O.3   800  SAH800     -0.3153
     12  C3'      -54.7320   15.8610   -9.3090 C.3   800  SAH800      0.2168
     13  O3'      -54.7920   14.5460   -8.7430 O.3   800  SAH800     -0.2175
     14  C2'      -56.0710   16.5800   -9.2480 C.3   800  SAH800      0.2569
     15  O2'      -56.6930   16.3640   -7.9790 O.3   800  SAH800     -0.2130
     16  C1'      -55.6630   18.0260   -9.1290 C.3   800  SAH800      0.3185
     17  N9       -55.6640   18.7480  -10.4220 N.pl3 800  SAH800     -0.1439
     18  C8       -54.5780   19.2040  -11.0830 C.3   800  SAH800      0.3377
     19  N7       -54.9130   19.8620  -12.2190 N.2   800  SAH800     -0.2095
     20  C5       -56.2690   19.8150  -12.2820 C.2   800  SAH800      0.2526
     21  C6       -57.2770   20.3210  -13.2250 C.2   800  SAH800      0.4393
     22  N6       -56.9100   21.0000  -14.3410 N.pl3 800  SAH800      0.2180
     23  N1       -58.5710   20.0540  -12.9160 N.2   800  SAH800      0.0021
     24  C2       -58.9330   19.3870  -11.8000 C.3   800  SAH800      0.5254
     25  N3       -58.0800   18.8870  -10.8950 N.2   800  SAH800     -0.0055
     26  C4       -56.7520   19.0900  -11.1000 C.2   800  SAH800      0.3518
@<TRIPOS>BOND
     1    22    21    1
     2    21    23    2
     3    21    20    1
     4    23    24    1
     5    20    19    2
     6    20    26    1
     7    19    18    1
     8    24    25    1
     9    26    25    2
    10    26    17    1
    11    18    17    1
    12    17    16    1
    13    12    14    1
    14    12    13    1
    15    12    10    1
    16    14    16    1
    17    14    15    1
    18    16    11    1
    19     9    10    1
    20     9     5    1
    21    11    10    1
    22     4     5    1
    23     4     3    1
    24     3     2    1
    25     1     2    1
    26     2     6    1
    27     6     7   ar
    28     6     8   ar
