@<TRIPOS>MOLECULE
3m55_SAH_A_1.pdb
 26 28 0 0 0
SMALL
GASTEIGER

@<TRIPOS>ATOM
      1  N         32.2680  -15.1240    9.4310 N.3     1  SAH1       -0.1208
      2  CA        32.0770  -16.5040    9.9920 C.3     1  SAH1        0.1952
      3  CB        33.1150  -17.4310    9.3640 C.3     1  SAH1        0.0422
      4  CG        32.5530  -17.9400    8.0370 C.3     1  SAH1        0.0597
      5  SD        31.1530  -19.0190    8.2470 S.3     1  SAH1       -0.1375
      6  C         32.1920  -16.5440   11.4830 C.2     1  SAH1        0.3819
      7  O         32.1580  -17.6110   12.1140 O.co2   1  SAH1       -0.2441
      8  OXT       32.3440  -15.5090   12.1250 O.co2   1  SAH1       -0.2441
      9  C5'       29.9560  -18.4360    7.0720 C.3     1  SAH1        0.0899
     10  C4'       29.2530  -17.1700    7.5570 C.3     1  SAH1        0.1630
     11  O4'       30.1370  -16.0570    7.4640 O.3     1  SAH1       -0.3153
     12  C3'       28.0440  -16.7800    6.7090 C.3     1  SAH1        0.2168
     13  O3'       26.8470  -17.3080    7.2900 O.3     1  SAH1       -0.2175
     14  C2'       28.0390  -15.2620    6.7240 C.3     1  SAH1        0.2569
     15  O2'       27.4290  -14.8080    7.9350 O.3     1  SAH1       -0.2130
     16  C1'       29.4920  -14.9130    6.8990 C.3     1  SAH1        0.3185
     17  N9        30.1320  -14.5850    5.6160 N.pl3   1  SAH1       -0.1439
     18  C8        31.0210  -15.3580    4.9570 C.3     1  SAH1        0.3377
     19  N7        31.4380  -14.7480    3.8170 N.2     1  SAH1       -0.2095
     20  C5        30.8030  -13.5560    3.7500 C.2     1  SAH1        0.2526
     21  C6        30.8010  -12.4370    2.7920 C.2     1  SAH1        0.4393
     22  N6        31.5700  -12.4770    1.6740 N.pl3   1  SAH1        0.2180
     23  N1        29.9930  -11.3840    3.0850 N.2     1  SAH1        0.0021
     24  C2        29.2380  -11.3610    4.2050 C.3     1  SAH1        0.5254
     25  N3        29.1800  -12.3450    5.1200 N.2     1  SAH1       -0.0055
     26  C4        29.9440  -13.4570    4.9360 C.2     1  SAH1        0.3518
@<TRIPOS>BOND
     1    22    21    1
     2    21    23    2
     3    21    20    1
     4    23    24    1
     5    20    19    2
     6    20    26    1
     7    19    18    1
     8    24    25    1
     9    26    25    2
    10    26    17    1
    11    18    17    1
    12    17    16    1
    13    12    14    1
    14    12    13    1
    15    12    10    1
    16    14    16    1
    17    14    15    1
    18    16    11    1
    19     9    10    1
    20     9     5    1
    21    11    10    1
    22     4     5    1
    23     4     3    1
    24     3     2    1
    25     1     2    1
    26     2     6    1
    27     6     7   ar
    28     6     8   ar
