@<TRIPOS>MOLECULE
3m56_SAH_A_1.pdb
 26 28 0 0 0
SMALL
GASTEIGER

@<TRIPOS>ATOM
      1  N         54.1040  -20.2940   -6.9040 N.3   800  SAH800     -0.1208
      2  CA        53.0230  -19.4150   -6.3620 C.3   800  SAH800      0.1952
      3  CB        51.6810  -19.7830   -7.0010 C.3   800  SAH800      0.0422
      4  CG        51.4840  -19.0680   -8.3310 C.3   800  SAH800      0.0597
      5  SD        51.3990  -17.3240   -8.1150 S.3   800  SAH800     -0.1375
      6  C         52.9340  -19.5220   -4.8630 C.2   800  SAH800      0.3819
      7  O         52.0620  -18.9210   -4.1930 O.co2 800  SAH800     -0.2441
      8  OXT       53.7570  -20.2270   -4.2530 O.co2 800  SAH800     -0.2441
      9  C5'       52.5290  -16.5860   -9.2650 C.3   800  SAH800      0.0899
     10  C4'       53.9860  -16.6890   -8.8000 C.3   800  SAH800      0.1630
     11  O4'       54.4580  -18.0310   -8.9140 O.3   800  SAH800     -0.3153
     12  C3'       54.8990  -15.8770   -9.7210 C.3   800  SAH800      0.2168
     13  O3'       55.0410  -14.5090   -9.3080 O.3   800  SAH800     -0.2175
     14  C2'       56.2060  -16.6170   -9.6520 C.3   800  SAH800      0.2569
     15  O2'       56.8750  -16.3330   -8.4230 O.3   800  SAH800     -0.2130
     16  C1'       55.7720  -18.0520   -9.4970 C.3   800  SAH800      0.3185
     17  N9        55.7240  -18.7560  -10.7870 N.pl3 800  SAH800     -0.1439
     18  C8        54.5930  -19.1370  -11.4270 C.3   800  SAH800      0.3377
     19  N7        54.8960  -19.8150  -12.5520 N.2   800  SAH800     -0.2095
     20  C5        56.2510  -19.8660  -12.6450 C.2   800  SAH800      0.2526
     21  C6        57.2150  -20.4340  -13.5990 C.2   800  SAH800      0.4393
     22  N6        56.7920  -21.0740  -14.7150 N.pl3 800  SAH800      0.2180
     23  N1        58.5360  -20.2550  -13.3220 N.2   800  SAH800      0.0021
     24  C2        58.9650  -19.6190  -12.2160 C.3   800  SAH800      0.5254
     25  N3        58.1410  -19.0740  -11.2960 N.2   800  SAH800     -0.0055
     26  C4        56.7900  -19.1760  -11.4700 C.2   800  SAH800      0.3518
@<TRIPOS>BOND
     1    22    21    1
     2    21    23    2
     3    21    20    1
     4    23    24    1
     5    20    19    2
     6    20    26    1
     7    19    18    1
     8    24    25    1
     9    26    25    2
    10    26    17    1
    11    18    17    1
    12    17    16    1
    13    12    14    1
    14    12    13    1
    15    12    10    1
    16    14    16    1
    17    14    15    1
    18    16    11    1
    19     9    10    1
    20     9     5    1
    21    11    10    1
    22     4     5    1
    23     4     3    1
    24     3     2    1
    25     1     2    1
    26     2     6    1
    27     6     8   ar
    28     6     7   ar
