@<TRIPOS>MOLECULE
3m57_SAH_A_1.pdb
 26 28 0 0 0
SMALL
GASTEIGER

@<TRIPOS>ATOM
      1  N         32.2170  -15.4640    9.1460 N.3     1  SAH1       -0.1208
      2  CA        32.0000  -16.8040    9.7900 C.3     1  SAH1        0.1952
      3  CB        32.9850  -17.7950    9.1560 C.3     1  SAH1        0.0422
      4  CG        32.4410  -18.2590    7.8060 C.3     1  SAH1        0.0597
      5  SD        31.1180  -19.4380    7.9470 S.3     1  SAH1       -0.1375
      6  C         32.1700  -16.8090   11.2980 C.2     1  SAH1        0.3819
      7  O         32.1770  -17.8920   11.9440 O.co2   1  SAH1       -0.2441
      8  OXT       32.3160  -15.7560   11.9390 O.co2   1  SAH1       -0.2441
      9  C5'       29.9300  -18.7590    6.8210 C.3     1  SAH1        0.0899
     10  C4'       29.2690  -17.4910    7.3560 C.3     1  SAH1        0.1630
     11  O4'       30.1250  -16.3570    7.2920 O.3     1  SAH1       -0.3153
     12  C3'       28.0440  -17.0950    6.5320 C.3     1  SAH1        0.2168
     13  O3'       26.8920  -17.6910    7.1150 O.3     1  SAH1       -0.2175
     14  C2'       28.0060  -15.5840    6.5630 C.3     1  SAH1        0.2569
     15  O2'       27.4620  -15.1210    7.8060 O.3     1  SAH1       -0.2130
     16  C1'       29.4680  -15.2340    6.6780 C.3     1  SAH1        0.3185
     17  N9        30.0950  -14.8900    5.3820 N.pl3   1  SAH1       -0.1439
     18  C8        31.0260  -15.6140    4.7200 C.3     1  SAH1        0.3377
     19  N7        31.4290  -14.9900    3.5860 N.2     1  SAH1       -0.2095
     20  C5        30.7360  -13.8210    3.5440 C.2     1  SAH1        0.2526
     21  C6        30.6890  -12.6790    2.6180 C.2     1  SAH1        0.4393
     22  N6        31.4680  -12.6760    1.5000 N.pl3   1  SAH1        0.2180
     23  N1        29.8260  -11.6690    2.9210 N.2     1  SAH1        0.0021
     24  C2        29.0670  -11.6930    4.0360 C.3     1  SAH1        0.5254
     25  N3        29.0490  -12.6930    4.9390 N.2     1  SAH1       -0.0055
     26  C4        29.8660  -13.7650    4.7250 C.2     1  SAH1        0.3518
@<TRIPOS>BOND
     1    22    21    1
     2    21    23    2
     3    21    20    1
     4    23    24    1
     5    20    19    2
     6    20    26    1
     7    19    18    1
     8    24    25    1
     9    18    17    1
    10    26    25    2
    11    26    17    1
    12    17    16    1
    13    12    14    1
    14    12    13    1
    15    12    10    1
    16    14    16    1
    17    14    15    1
    18    16    11    1
    19     9    10    1
    20     9     5    1
    21    11    10    1
    22     4     5    1
    23     4     3    1
    24     1     2    1
    25     3     2    1
    26     2     6    1
    27     6     8   ar
    28     6     7   ar
