@<TRIPOS>MOLECULE
3m58_SAH_A_1.pdb
 26 28 0 0 0
SMALL
GASTEIGER

@<TRIPOS>ATOM
      1  N        -29.2060   20.0590   -8.8640 N.3   800  SAH800     -0.1208
      2  CA       -30.3450   19.2600   -9.4240 C.3   800  SAH800      0.1952
      3  CB       -31.6940   19.6830   -8.8100 C.3   800  SAH800      0.0422
      4  CG       -31.9340   18.9690   -7.4730 C.3   800  SAH800      0.0597
      5  SD       -32.1360   17.2150   -7.6750 S.3   800  SAH800     -0.1375
      6  C        -30.3560   19.3800  -10.9200 C.2   800  SAH800      0.3819
      7  O        -31.2550   18.8500  -11.5800 O.co2 800  SAH800     -0.2441
      8  OXT      -29.4330   19.9890  -11.4990 O.co2 800  SAH800     -0.2441
      9  C5'      -30.9630   16.4640   -6.5570 C.3   800  SAH800      0.0899
     10  C4'      -29.5030   16.5380   -7.0120 C.3   800  SAH800      0.1630
     11  O4'      -28.9760   17.8600   -6.8290 O.3   800  SAH800     -0.3153
     12  C3'      -28.5510   15.6170   -6.2300 C.3   800  SAH800      0.2168
     13  O3'      -28.5240   14.3020   -6.8230 O.3   800  SAH800     -0.2175
     14  C2'      -27.2370   16.3790   -6.2750 C.3   800  SAH800      0.2569
     15  O2'      -26.5880   16.1970   -7.5490 O.3   800  SAH800     -0.2130
     16  C1'      -27.6500   17.8210   -6.2850 C.3   800  SAH800      0.3185
     17  N9       -27.6810   18.4960   -4.9670 N.pl3 800  SAH800     -0.1439
     18  C8       -28.7900   18.9590   -4.3610 C.3   800  SAH800      0.3377
     19  N7       -28.4800   19.5950   -3.2130 N.2   800  SAH800     -0.2095
     20  C5       -27.1250   19.5620   -3.1040 C.2   800  SAH800      0.2526
     21  C6       -26.1320   20.0560   -2.1520 C.2   800  SAH800      0.4393
     22  N6       -26.4740   20.7150   -1.0350 N.pl3 800  SAH800      0.2180
     23  N1       -24.8280   19.7850   -2.4060 N.2   800  SAH800      0.0021
     24  C2       -24.4570   19.1370   -3.5160 C.3   800  SAH800      0.5254
     25  N3       -25.2990   18.6620   -4.4400 N.2   800  SAH800     -0.0055
     26  C4       -26.6360   18.8590   -4.2710 C.2   800  SAH800      0.3518
@<TRIPOS>BOND
     1     7     6   ar
     2     8     6   ar
     3     6     2    1
     4     2     1    1
     5     2     3    1
     6     3     4    1
     7     5     4    1
     8     5     9    1
     9    15    14    1
    10    10    11    1
    11    10     9    1
    12    10    12    1
    13    11    16    1
    14    13    12    1
    15    16    14    1
    16    16    17    1
    17    14    12    1
    18    17    18    1
    19    17    26    1
    20    25    26    2
    21    25    24    1
    22    18    19    1
    23    26    20    1
    24    24    23    1
    25    19    20    2
    26    20    21    1
    27    23    21    2
    28    21    22    1
