@<TRIPOS>MOLECULE
3m59_SAH_A_1.pdb
 26 28 0 0 0
SMALL
GASTEIGER

@<TRIPOS>ATOM
      1  N         44.4710  -36.8270    6.7130 N.3     1  SAH1       -0.1208
      2  CA        43.1870  -36.2880    6.1590 C.3     1  SAH1        0.1952
      3  CB        42.9230  -34.9070    6.7840 C.3     1  SAH1        0.0422
      4  CG        42.1990  -35.0980    8.1190 C.3     1  SAH1        0.0597
      5  SD        40.5310  -35.6900    7.9420 S.3     1  SAH1       -0.1375
      6  C         43.2160  -36.1750    4.6540 C.2     1  SAH1        0.3819
      7  O         42.2750  -35.6660    3.9830 O.co2   1  SAH1       -0.2441
      8  OXT       44.2060  -36.5670    4.0330 O.co2   1  SAH1       -0.2441
      9  C5'       40.5040  -37.0500    9.1050 C.3     1  SAH1        0.0899
     10  C4'       41.2640  -38.2980    8.6320 C.3     1  SAH1        0.1630
     11  O4'       42.6760  -38.1460    8.6910 O.3     1  SAH1       -0.3153
     12  C3'       40.9710  -39.5260    9.4970 C.3     1  SAH1        0.2168
     13  O3'       39.8640  -40.2340    8.9330 O.3     1  SAH1       -0.2175
     14  C2'       42.2590  -40.3290    9.4580 C.3     1  SAH1        0.2569
     15  O2'       42.3750  -41.0530    8.2190 O.3     1  SAH1       -0.2130
     16  C1'       43.3110  -39.2690    9.3020 C.3     1  SAH1        0.3185
     17  N9        43.9090  -38.8660   10.6020 N.pl3   1  SAH1       -0.1439
     18  C8        43.7310  -37.6880   11.2390 C.3     1  SAH1        0.3377
     19  N7        44.4760  -37.6500   12.3980 N.2     1  SAH1       -0.2095
     20  C5        45.1350  -38.8340   12.4800 C.2     1  SAH1        0.2526
     21  C6        46.0820  -39.4410   13.4420 C.2     1  SAH1        0.4393
     22  N6        46.4840  -38.7590   14.5720 N.pl3   1  SAH1        0.2180
     23  N1        46.5140  -40.7010   13.1650 N.2     1  SAH1        0.0021
     24  C2        46.1330  -41.3670   12.0520 C.3     1  SAH1        0.5254
     25  N3        45.2650  -40.8800   11.1360 N.2     1  SAH1       -0.0055
     26  C4        44.7510  -39.6230   11.3030 C.2     1  SAH1        0.3518
@<TRIPOS>BOND
     1     7     6   ar
     2     8     6   ar
     3     6     2    1
     4     2     1    1
     5     2     3    1
     6     3     4    1
     7     5     4    1
     8     5     9    1
     9    15    14    1
    10    10    11    1
    11    10     9    1
    12    10    12    1
    13    11    16    1
    14    13    12    1
    15    16    14    1
    16    16    17    1
    17    14    12    1
    18    17    18    1
    19    17    26    1
    20    25    26    2
    21    25    24    1
    22    18    19    1
    23    26    20    1
    24    24    23    1
    25    19    20    2
    26    20    21    1
    27    23    21    2
    28    21    22    1
