@<TRIPOS>MOLECULE
3m5a_SAH_A_1.pdb
 26 28 0 0 0
SMALL
GASTEIGER

@<TRIPOS>ATOM
      1  N        -44.4020   36.7590    6.8490 N.3     1  SAH1       -0.1208
      2  CA       -43.1220   36.2440    6.2790 C.3     1  SAH1        0.1952
      3  CB       -42.7730   34.8980    6.9220 C.3     1  SAH1        0.0422
      4  CG       -42.0480   35.0990    8.2580 C.3     1  SAH1        0.0597
      5  SD       -40.4140   35.7940    8.0720 S.3     1  SAH1       -0.1375
      6  C        -43.1600   36.1630    4.7740 C.2     1  SAH1        0.3819
      7  O        -42.2040   35.6890    4.1250 O.co2   1  SAH1       -0.2441
      8  OXT      -44.1340   36.5880    4.1370 O.co2   1  SAH1       -0.2441
      9  C5'      -40.3740   37.1210    9.2460 C.3     1  SAH1        0.0899
     10  C4'      -41.1510   38.3550    8.7760 C.3     1  SAH1        0.1630
     11  O4'      -42.5590   38.1570    8.8240 O.3     1  SAH1       -0.3153
     12  C3'      -40.9010   39.5900    9.6360 C.3     1  SAH1        0.2168
     13  O3'      -39.8090   40.3340    9.0840 O.3     1  SAH1       -0.2175
     14  C2'      -42.1970   40.3540    9.5590 C.3     1  SAH1        0.2569
     15  O2'      -42.2700   41.0610    8.3160 O.3     1  SAH1       -0.2130
     16  C1'      -43.2330   39.2710    9.3940 C.3     1  SAH1        0.3185
     17  N9       -43.8440   38.8810   10.6820 N.pl3   1  SAH1       -0.1439
     18  C8       -43.6750   37.7170   11.3320 C.3     1  SAH1        0.3377
     19  N7       -44.4100   37.6680   12.4740 N.2     1  SAH1       -0.2095
     20  C5       -45.0790   38.8350   12.5490 C.2     1  SAH1        0.2526
     21  C6       -46.0300   39.4420   13.4980 C.2     1  SAH1        0.4393
     22  N6       -46.4300   38.7710   14.6170 N.pl3   1  SAH1        0.2180
     23  N1       -46.4720   40.6870   13.2020 N.2     1  SAH1        0.0021
     24  C2       -46.0860   41.3510   12.0950 C.3     1  SAH1        0.5254
     25  N3       -45.2230   40.8640   11.1850 N.2     1  SAH1       -0.0055
     26  C4       -44.7000   39.6270   11.3670 C.2     1  SAH1        0.3518
@<TRIPOS>BOND
     1     7     6   ar
     2     8     6   ar
     3     6     2    1
     4     2     1    1
     5     2     3    1
     6     3     4    1
     7     5     4    1
     8     5     9    1
     9    15    14    1
    10    10    11    1
    11    10     9    1
    12    10    12    1
    13    11    16    1
    14    13    12    1
    15    16    14    1
    16    16    17    1
    17    14    12    1
    18    17    18    1
    19    17    26    1
    20    25    26    2
    21    25    24    1
    22    18    19    1
    23    26    20    1
    24    24    23    1
    25    19    20    2
    26    20    21    1
    27    23    21    2
    28    21    22    1
