@<TRIPOS>MOLECULE
3m5c_PA9_A_1.pdb
 19 18 0 0 0
SMALL
GASTEIGER

@<TRIPOS>ATOM
      1  CA       108.8520   42.3630   82.5320 C.3   345  PA9345      0.1978
      2  CB       108.5960   43.4620   83.5700 C.3   345  PA9345      0.0351
      3  CG       107.2350   44.1060   83.4870 C.3   345  PA9345      0.0258
      4  CD       107.1360   45.3170   84.3940 C.3   345  PA9345      0.1152
      5  C        108.9220   42.9470   81.1150 C.2   345  PA9345      0.3842
      6  O        107.8870   43.4730   80.6490 O.co2 345  PA9345     -0.2437
      7  OXT      110.0060   42.8820   80.4880 O.co2 345  PA9345     -0.2437
      8  C1       110.6810   40.6250   82.5210 C.2   345  PA9345      0.2423
      9  O1       110.0910   39.8430   81.7800 O.2   345  PA9345     -0.2733
     10  P        106.2460   42.7780   88.4600 P.3   345  PA9345      0.1264
     11  O1P      106.6380   41.8690   87.2360 O.2   345  PA9345     -0.4596
     12  O2P      104.6750   42.7810   88.7210 O.3   345  PA9345     -0.3568
     13  O3P      107.0570   42.3260   89.7790 O.3   345  PA9345     -0.3568
     14  N1       110.1530   41.7890   82.8840 N.am  345  PA9345     -0.1956
     15  C2       112.0600   40.3730   83.1060 C.3   345  PA9345      0.0964
     16  N2       107.3000   44.9900   85.8090 N.am  345  PA9345     -0.2050
     17  C3       106.2990   44.8080   86.6670 C.2   345  PA9345      0.2488
     18  O2       105.1070   44.8990   86.3520 O.2   345  PA9345     -0.2728
     19  C4       106.7020   44.4830   88.0840 C.3   345  PA9345      0.1454
@<TRIPOS>BOND
     1     7     5   ar
     2     6     5   ar
     3     5     1    1
     4     9     8    2
     5     8    14   am
     6     8    15    1
     7     1    14    1
     8     1     2    1
     9     3     2    1
    10     3     4    1
    11     4    16    1
    12    16    17   am
    13    18    17    2
    14    17    19    1
    15    11    10    2
    16    19    10    1
    17    10    12    1
    18    10    13    1
