@<TRIPOS>MOLECULE
3m5d_PA9_A_1.pdb
 19 18 0 0 0
SMALL
GASTEIGER

@<TRIPOS>ATOM
      1  CA       108.0110   41.4800   80.9800 C.3   345  PA9345      0.1978
      2  CB       107.7700   42.5260   82.0700 C.3   345  PA9345      0.0351
      3  CG       106.4630   43.2840   81.9550 C.3   345  PA9345      0.0258
      4  CD       106.4470   44.4990   82.8690 C.3   345  PA9345      0.1152
      5  C        108.1290   42.1440   79.6030 C.2   345  PA9345      0.3842
      6  O        107.0940   42.6110   79.0820 O.co2 345  PA9345     -0.2437
      7  OXT      109.2560   42.1970   79.0590 O.co2 345  PA9345     -0.2437
      8  C1       109.8080   39.7000   80.8510 C.2   345  PA9345      0.2423
      9  O1       109.2020   38.9700   80.0650 O.2   345  PA9345     -0.2733
     10  P        105.1990   41.9390   86.8640 P.3   345  PA9345      0.1264
     11  O1P      105.6620   41.0150   85.6330 O.2   345  PA9345     -0.4596
     12  O2P      103.6330   41.8260   87.0510 O.3   345  PA9345     -0.3568
     13  O3P      105.9740   41.4810   88.1940 O.3   345  PA9345     -0.3568
     14  N1       109.2810   40.8260   81.3220 N.am  345  PA9345     -0.1956
     15  C2       111.2080   39.4140   81.3740 C.3   345  PA9345      0.0964
     16  N2       106.4790   44.1530   84.2910 N.am  345  PA9345     -0.2050
     17  C3       105.4050   44.0270   85.0660 C.2   345  PA9345      0.2488
     18  O2       104.2580   44.2060   84.6560 O.2   345  PA9345     -0.2728
     19  C4       105.6640   43.6620   86.5130 C.3   345  PA9345      0.1454
@<TRIPOS>BOND
     1     7     5   ar
     2     6     5   ar
     3     5     1    1
     4     9     8    2
     5     8    14   am
     6     8    15    1
     7     1    14    1
     8     1     2    1
     9     3     2    1
    10     3     4    1
    11     4    16    1
    12    16    17   am
    13    18    17    2
    14    17    19    1
    15    11    10    2
    16    19    10    1
    17    10    12    1
    18    10    13    1
