@<TRIPOS>MOLECULE
3m5e_JDR_A_1.pdb
 23 24 0 0 0
SMALL
GASTEIGER

@<TRIPOS>ATOM
      1  N1        -3.9920   10.3070   12.0910 N.2   264  JDR264     -0.3268
      2  C2        -3.1700    9.6420   12.8920 C.1   264  JDR264      0.1697
      3  N3        -3.3250    8.3480   13.1610 N.2   264  JDR264     -0.3218
      4  C4        -4.3410    7.6760   12.6170 C.2   264  JDR264      0.2039
      5  C5        -5.2300    8.3340   11.7690 C.3   264  JDR264      0.1977
      6  C6        -5.0160    9.6860   11.5230 C.2   264  JDR264      0.1940
      7  N7        -4.5230    6.2790   12.9080 N.pl3 264  JDR264     -0.2071
      8  C8        -4.3930    4.4640   14.5850 C.ar  264  JDR264     -0.0005
      9  C9        -5.7580    4.4460   14.8790 C.ar  264  JDR264     -0.0012
     10  C10       -6.2990    3.3530   15.5670 C.ar  264  JDR264      0.0197
     11  C11       -5.4550    2.3000   15.9460 C.ar  264  JDR264      0.1250
     12  C12       -4.1020    2.3320   15.6440 C.ar  264  JDR264      0.0197
     13  C13       -3.5710    3.4190   14.9650 C.ar  264  JDR264     -0.0012
     14  S14       -6.0500    0.9100   16.8020 S.O2  264  JDR264      0.0935
     15  O15       -5.5290    0.9820   18.2150 O.2   264  JDR264     -0.1503
     16  O16       -7.5630    0.8980   16.6340 O.2   264  JDR264     -0.1503
     17  N17       -5.3950   -0.4920   16.0580 N.3   264  JDR264      0.0392
     18  C18       -6.3720    7.6330   11.1400 C.2   264  JDR264      0.2237
     19  O19       -6.8100    6.5920   11.6350 O.2   264  JDR264     -0.2873
     20 CL20       -6.0670   10.5930   10.4990 Cl    264  JDR264     -0.0507
     21  S21       -1.8240   10.4710   13.6590 S.3   264  JDR264     -0.0172
     22  C22       -1.1030    9.4600   14.9940 C.3   264  JDR264      0.0872
     23  C23       -3.6940    5.5650   13.8580 C.3   264  JDR264      0.1409
@<TRIPOS>BOND
     1    20     6    1
     2    18    19    2
     3    18     5    1
     4     6     5    1
     5     6     1    2
     6     5     4    1
     7     1     2    2
     8     4     7    1
     9     4     3    2
    10     2     3    2
    11     2    21    1
    12     7    23    1
    13    21    22    1
    14    23     8    1
    15     8     9   ar
    16     8    13   ar
    17     9    10   ar
    18    13    12   ar
    19    10    11   ar
    20    12    11   ar
    21    11    14    1
    22    17    14    1
    23    16    14    2
    24    14    15    2
