@<TRIPOS>MOLECULE
3m5h_GAL_A_1.pdb
 11 11 0 0 0
SMALL
GASTEIGER

@<TRIPOS>ATOM
      1  C1       -49.1850   -3.0940   85.3360 C.3     2  GAL2        0.1777
      2  C2       -49.1540   -4.0070   84.1080 C.3     2  GAL2        0.2141
      3  C3       -47.8950   -4.8800   84.0630 C.3     2  GAL2        0.2173
      4  C4       -46.6390   -4.0410   84.3450 C.3     2  GAL2        0.2142
      5  C5       -46.8350   -3.1410   85.5690 C.3     2  GAL2        0.1810
      6  C6       -45.6190   -2.2530   85.8120 C.3     2  GAL2        0.2141
      7  O2       -50.3010   -4.8300   84.0640 O.3     2  GAL2       -0.2176
      8  O3       -47.8880   -5.5190   82.7910 O.3     2  GAL2       -0.2175
      9  O4       -46.3050   -3.2700   83.2080 O.3     2  GAL2       -0.2176
     10  O5       -47.9870   -2.3380   85.3880 O.3     2  GAL2       -0.3481
     11  O6       -45.6330   -1.7670   87.1360 O.3     2  GAL2       -0.2176
@<TRIPOS>BOND
     1     8     3    1
     2     9     4    1
     3     3     2    1
     4     3     4    1
     5     7     2    1
     6     2     1    1
     7     4     5    1
     8     1    10    1
     9    10     5    1
    10     5     6    1
    11     6    11    1
