@<TRIPOS>MOLECULE
3m5h_SIA_A_1.pdb
 20 20 0 0 0
SMALL
GASTEIGER

@<TRIPOS>ATOM
      1  C1       -46.6660   -6.5000   81.0020 C.2     1  SIA1        0.3914
      2  C2       -46.8350   -6.4780   82.5080 C.3     1  SIA1        0.2203
      3  C3       -47.5820   -7.7380   82.9810 C.3     1  SIA1        0.0760
      4  C4       -46.7250   -9.0060   82.9970 C.3     1  SIA1        0.1773
      5  C5       -45.3420   -8.7740   83.5970 C.3     1  SIA1        0.1552
      6  C6       -44.6750   -7.5210   83.0260 C.3     1  SIA1        0.1710
      7  C7       -43.3260   -7.2290   83.6930 C.3     1  SIA1        0.2134
      8  C8       -42.6980   -5.9160   83.2370 C.3     1  SIA1        0.2173
      9  C9       -41.1940   -5.9810   83.4480 C.3     1  SIA1        0.2175
     10  C10      -43.9340  -10.6670   84.3040 C.2     1  SIA1        0.2420
     11  C11      -44.2010  -10.3100   85.7390 C.3     1  SIA1        0.0964
     12  N5       -44.4940   -9.9250   83.3500 N.am    1  SIA1       -0.2020
     13  O1A      -47.5920   -6.9710   80.3050 O.co2   1  SIA1       -0.2430
     14  O1B      -45.6230   -6.0270   80.4980 O.co2   1  SIA1       -0.2430
     15  O4       -47.3860  -10.0180   83.7660 O.3     1  SIA1       -0.2211
     16  O6       -45.5440   -6.3840   83.1410 O.3     1  SIA1       -0.3429
     17  O7       -43.4600   -7.2020   85.1210 O.3     1  SIA1       -0.2176
     18  O8       -42.9720   -5.6640   81.8540 O.3     1  SIA1       -0.2175
     19  O9       -40.6120   -4.7250   83.0950 O.3     1  SIA1       -0.2175
     20  O10      -43.2310  -11.6150   84.0140 O.2     1  SIA1       -0.2733
@<TRIPOS>BOND
     1    13     1   ar
     2    14     1   ar
     3     1     2    1
     4    18     8    1
     5     2     3    1
     6     2    16    1
     7     3     4    1
     8     4     5    1
     9     4    15    1
    10     6    16    1
    11     6     5    1
    12     6     7    1
    13    19     9    1
    14     8     9    1
    15     8     7    1
    16    12     5    1
    17    12    10   am
    18     7    17    1
    19    20    10    2
    20    10    11    1
