@<TRIPOS>MOLECULE
3m5i_SIA_A_1.pdb
 20 20 0 0 0
SMALL
GASTEIGER

@<TRIPOS>ATOM
      1  C1       -46.6940   -7.1100   81.5830 C.2     1  SIA1        0.3914
      2  C2       -46.8320   -7.1770   83.0990 C.3     1  SIA1        0.2203
      3  C3       -47.5470   -8.4490   83.5800 C.3     1  SIA1        0.0760
      4  C4       -46.6550   -9.6930   83.5680 C.3     1  SIA1        0.1773
      5  C5       -45.2670   -9.4340   84.1450 C.3     1  SIA1        0.1552
      6  C6       -44.6410   -8.1660   83.5600 C.3     1  SIA1        0.1710
      7  C7       -43.2810   -7.8900   84.2060 C.3     1  SIA1        0.2134
      8  C8       -42.5090   -6.7870   83.4910 C.3     1  SIA1        0.2173
      9  C9       -41.0400   -6.7850   83.9180 C.3     1  SIA1        0.2175
     10  C10      -43.9200  -11.4100   84.8010 C.2     1  SIA1        0.2420
     11  C11      -44.2180  -11.1430   86.2530 C.3     1  SIA1        0.0964
     12  N5       -44.4270  -10.5870   83.8800 N.am    1  SIA1       -0.2020
     13  O1A      -47.3260   -7.9130   80.8540 O.co2   1  SIA1       -0.2430
     14  O1B      -45.9370   -6.2360   81.1010 O.co2   1  SIA1       -0.2430
     15  O4       -47.2760  -10.7340   84.3260 O.3     1  SIA1       -0.2211
     16  O6       -45.5310   -7.0440   83.7160 O.3     1  SIA1       -0.3429
     17  O7       -43.4590   -7.5300   85.5810 O.3     1  SIA1       -0.2176
     18  O8       -42.6050   -6.9650   82.0720 O.3     1  SIA1       -0.2175
     19  O9       -40.3330   -5.6800   83.3380 O.3     1  SIA1       -0.2175
     20  O10      -43.2270  -12.3560   84.4640 O.2     1  SIA1       -0.2733
@<TRIPOS>BOND
     1    13     1   ar
     2    14     1   ar
     3     1     2    1
     4    18     8    1
     5     2     3    1
     6     2    16    1
     7    19     9    1
     8     8     9    1
     9     8     7    1
    10     6    16    1
    11     6     5    1
    12     6     7    1
    13     4     3    1
    14     4     5    1
    15     4    15    1
    16    12     5    1
    17    12    10   am
    18     7    17    1
    19    20    10    2
    20    10    11    1
