@<TRIPOS>MOLECULE
3m5j_SIA_A_1.pdb
 20 20 0 0 0
SMALL
GASTEIGER

@<TRIPOS>ATOM
      1  C1       -46.6650   -6.4820   81.6410 C.2   331  SIA331      0.3914
      2  C2       -46.7770   -6.4750   83.1580 C.3   331  SIA331      0.2203
      3  C3       -47.5980   -7.6630   83.6700 C.3   331  SIA331      0.0760
      4  C4       -46.8050   -8.9720   83.6690 C.3   331  SIA331      0.1773
      5  C5       -45.4200   -8.8200   84.2940 C.3   331  SIA331      0.1552
      6  C6       -44.6780   -7.5960   83.7470 C.3   331  SIA331      0.1710
      7  C7       -43.3500   -7.3360   84.4710 C.3   331  SIA331      0.2134
      8  C8       -42.5690   -6.1490   83.9070 C.3   331  SIA331      0.2173
      9  C9       -41.0950   -6.2810   84.2620 C.3   331  SIA331      0.2175
     10  C10      -43.9250  -10.6410   84.9870 C.2   331  SIA331      0.2420
     11  C11      -43.8470  -10.2530   86.1420 C.3   331  SIA331      0.0964
     12  N5       -44.6450  -10.0240   84.0510 N.am  331  SIA331     -0.2020
     13  O1A      -47.7080   -6.6640   80.9700 O.co2 331  SIA331     -0.2430
     14  O1B      -45.5510   -6.2940   81.0990 O.co2 331  SIA331     -0.2430
     15  O4       -47.5350   -9.9690   84.3920 O.3   331  SIA331     -0.2211
     16  O6       -45.5000   -6.4220   83.8200 O.3   331  SIA331     -0.3429
     17  O7       -43.5810   -7.1270   85.8710 O.3   331  SIA331     -0.2176
     18  O8       -42.6960   -6.0720   82.4820 O.3   331  SIA331     -0.2175
     19  O9       -40.4140   -5.0680   83.9300 O.3   331  SIA331     -0.2175
     20  O10      -43.2010  -11.8620   84.5160 O.2   331  SIA331     -0.2733
@<TRIPOS>BOND
     1    13     1   ar
     2    14     1   ar
     3     1     2    1
     4    18     8    1
     5     2     3    1
     6     2    16    1
     7     4     3    1
     8     4     5    1
     9     4    15    1
    10     6    16    1
    11     6     5    1
    12     6     7    1
    13     8     9    1
    14     8     7    1
    15    19     9    1
    16    12     5    1
    17    12    10   am
    18     7    17    1
    19    20    10    2
    20    10    11    1
