@<TRIPOS>MOLECULE
3m5k_FMN_A_1.pdb
 31 33 0 0 0
SMALL
GASTEIGER

@<TRIPOS>ATOM
      1  N1        81.7990  108.3140   62.8170 N.2   301  FMN301     -0.2890
      2  C2        80.7190  108.7950   63.5450 C.1   301  FMN301      0.3669
      3  O2        79.5920  108.8860   63.0420 O.2   301  FMN301     -0.1744
      4  N3        80.8890  109.1730   64.8580 N.2   301  FMN301     -0.2300
      5  C4        82.1090  109.1380   65.4970 C.1   301  FMN301      0.2513
      6  O4        82.1580  109.4870   66.6660 O.2   301  FMN301     -0.2057
      7  C4A       83.2230  108.6710   64.7770 C.2   301  FMN301      0.2700
      8  N5        84.4960  108.6390   65.3580 N.2   301  FMN301     -0.3878
      9  C5A       85.5140  107.9790   64.6770 C.2   301  FMN301      0.1320
     10  C6        86.7200  107.7700   65.3410 C.2   301  FMN301      0.0250
     11  C7        87.7750  107.0710   64.7470 C.2   301  FMN301     -0.0238
     12  C7M       89.0260  106.9100   65.6240 C.3   301  FMN301      0.0308
     13  C8        87.6140  106.5430   63.4180 C.2   301  FMN301     -0.0280
     14  C8M       88.6750  105.7580   62.6680 C.3   301  FMN301      0.0304
     15  C9        86.4180  106.7630   62.7580 C.2   301  FMN301     -0.0041
     16  C9A       85.3340  107.4870   63.3690 C.3   301  FMN301      0.1497
     17  N10       84.1050  107.7480   62.6990 N.pl3 301  FMN301     -0.2691
     18  C10       83.0400  108.2560   63.4280 C.2   301  FMN301      0.2416
     19  C1'       83.8390  107.3530   61.2690 C.3   301  FMN301      0.1294
     20  C2'       84.5000  108.3780   60.3350 C.3   301  FMN301      0.2044
     21  O2'       83.6900  109.5400   60.2080 O.3   301  FMN301     -0.2185
     22  C3'       84.7560  107.7650   58.9470 C.3   301  FMN301      0.2164
     23  O3'       85.6280  106.6480   59.0280 O.3   301  FMN301     -0.2175
     24  C4'       85.2560  108.7870   57.9320 C.3   301  FMN301      0.2147
     25  O4'       84.2710  109.8020   57.6780 O.3   301  FMN301     -0.2176
     26  C5'       85.6570  108.0850   56.6350 C.3   301  FMN301      0.1892
     27  O5'       84.5360  107.4620   56.0310 O.3   301  FMN301     -0.2674
     28  P         84.4610  105.8830   55.7120 P.3   301  FMN301      0.5327
     29  O1P       85.6080  105.5670   54.7610 O.2   301  FMN301     -0.2224
     30  O2P       84.5160  105.0600   57.0030 O.3   301  FMN301     -0.1145
     31  O3P       83.1200  105.6470   55.0770 O.3   301  FMN301     -0.1145
@<TRIPOS>BOND
     1    29    28    2
     2    31    28    1
     3    28    27    1
     4    28    30    1
     5    27    26    1
     6    26    24    1
     7    25    24    1
     8    24    22    1
     9    22    23    1
    10    22    20    1
    11    21    20    1
    12    20    19    1
    13    19    17    1
    14    14    13    1
    15    17    16    1
    16    17    18    1
    17    15    16    1
    18    15    13    2
    19     1    18    2
    20     1     2    2
    21     3     2    2
    22    16     9    1
    23    13    11    1
    24    18     7    1
    25     2     4    2
    26     9    10    1
    27     9     8    2
    28    11    10    2
    29    11    12    1
    30     7     8    2
    31     7     5    1
    32     4     5    2
    33     5     6    2
