@<TRIPOS>MOLECULE
3m5n_III_F_1.pdb
 49 49 0 0 0
SMALL
GASTEIGER

@<TRIPOS>ATOM
      1  N         47.7610  -24.4740   28.9330 N.3     1  SER1       -0.1202
      2  CA        47.5810  -25.7690   29.6590 C.3     1  SER1        0.2020
      3  C         46.1910  -25.8800   30.2990 C.2     1  SER1        0.2619
      4  O         45.9390  -25.2760   31.3500 O.2     1  SER1       -0.2717
      5  CB        48.6740  -25.9490   30.7190 C.3     1  SER1        0.2103
      6  OG        48.6620  -27.2690   31.2440 O.3     1  SER1       -0.2182
      7  N         45.3190  -26.6700   29.6660 N.am    2  GLU2       -0.1965
      8  CA        43.9100  -26.8310   30.0560 C.3     2  GLU2        0.1733
      9  C         43.7240  -27.4600   31.4390 C.2     2  GLU2        0.2616
     10  O         44.2640  -28.5360   31.7150 O.2     2  GLU2       -0.2715
     11  CB        43.1470  -27.7210   29.0630 C.3     2  GLU2        0.0429
     12  CG        42.6800  -27.0690   27.7690 C.3     2  GLU2        0.1163
     13  CD        41.3400  -27.6290   27.2790 C.2     2  GLU2        0.3649
     14  OE1       40.8780  -28.6830   27.7780 O.co2   2  GLU2       -0.2457
     15  OE2       40.7230  -27.0040   26.3910 O.co2   2  GLU2       -0.2457
     16  N         42.9300  -26.8040   32.2830 N.am    3  CYS3       -0.1954
     17  CA        42.4680  -27.3890   33.5450 C.3     3  CYS3        0.1843
     18  C         40.9400  -27.2970   33.6180 C.2     3  CYS3        0.2626
     19  O         40.3850  -26.1960   33.5730 O.2     3  CYS3       -0.2714
     20  CB        43.1240  -26.6960   34.7480 C.3     3  CYS3        0.0997
     21  SG        44.8890  -27.1090   34.9840 S.3     3  CYS3       -0.0797
     22  N         40.2710  -28.4510   33.6830 N.am    4  THR4       -0.1936
     23  CA        38.8160  -28.5050   33.8500 C.3     4  THR4        0.2028
     24  C         38.5310  -28.3530   35.3350 C.2     4  THR4        0.2643
     25  O         38.9320  -29.2040   36.1220 O.2     4  THR4       -0.2714
     26  CB        38.1940  -29.8320   33.3810 C.3     4  THR4        0.1808
     27  OG1       38.8240  -30.2670   32.1710 O.3     4  THR4       -0.2208
     28  CG2       36.6900  -29.6580   33.1690 C.3     4  THR4        0.0379
     29  N         37.8700  -27.2610   35.7000 N.am    5  THR5       -0.1937
     30  CA        37.6960  -26.8480   37.0890 C.3     5  THR5        0.2013
     31  C         36.2150  -26.9530   37.4530 C.2     5  THR5        0.2484
     32  O         35.3940  -26.2000   36.9270 O.2     5  THR5       -0.2729
     33  CB        38.1490  -25.3890   37.2680 C.3     5  THR5        0.1807
     34  OG1       39.4970  -25.2500   36.7980 O.3     5  THR5       -0.2208
     35  CG2       38.0410  -24.9220   38.7120 C.3     5  THR5        0.0379
     36  N         35.8670  -27.9000   38.3370 N.am    6  PRO6       -0.2715
     37  CA        34.5010  -27.9210   38.8770 C.3     6  PRO6        0.1536
     38  C         34.2270  -26.6110   39.5950 C.2     6  PRO6        0.2599
     39  O         35.0750  -26.1700   40.3740 O.2     6  PRO6       -0.2715
     40  CB        34.5290  -29.0730   39.8840 C.3     6  PRO6        0.0310
     41  CG        35.6150  -29.9760   39.4050 C.3     6  PRO6        0.0237
     42  CD        36.6630  -29.0530   38.8000 C.3     6  PRO6        0.0939
     43  N         33.0810  -25.9840   39.3350 N.am    7  CYS7       -0.1932
     44  CA        32.8560  -24.6550   39.8970 C.3     7  CYS7        0.2093
     45  C         31.9460  -24.6560   41.1410 C.2     7  CYS7        0.3851
     46  O         31.9990  -25.6280   41.9200 O.co2   7  CYS7       -0.2437
     47  CB        32.4320  -23.6730   38.7930 C.3     7  CYS7        0.1019
     48  SG        33.8640  -23.1850   37.7360 S.3     7  CYS7       -0.0797
     49  OXT       31.2080  -23.6970   41.4160 O.co2   7  CYS7       -0.2437
@<TRIPOS>BOND
     1    15    13   ar
     2    13    12    1
     3    13    14   ar
     4    12    11    1
     5     1     2    1
     6    11     8    1
     7     2     3    1
     8     2     5    1
     9     7     8    1
    10     7     3   am
    11     8     9    1
    12     3     4    2
    13     5     6    1
    14     9    10    2
    15     9    16   am
    16    27    26    1
    17    16    17    1
    18    28    26    1
    19    26    23    1
    20    17    18    1
    21    17    20    1
    22    19    18    2
    23    18    22   am
    24    22    23    1
    25    23    24    1
    26    20    21    1
    27    24    29   am
    28    24    25    2
    29    29    30    1
    30    34    33    1
    31    32    31    2
    32    30    33    1
    33    30    31    1
    34    33    35    1
    35    31    36   am
    36    48    47    1
    37    36    42    1
    38    36    37    1
    39    47    44    1
    40    42    41    1
    41    37    38    1
    42    37    40    1
    43    43    38   am
    44    43    44    1
    45    41    40    1
    46    38    39    2
    47    44    45    1
    48    45    49   ar
    49    45    46   ar
