@<TRIPOS>MOLECULE
3m5p_F6P_A_1.pdb
 16 16 0 0 0
SMALL
GASTEIGER

@<TRIPOS>ATOM
      1  O1        44.2620   59.2120   17.9440 O.3   701  F6P701     -0.2148
      2  C1        45.3610   58.7860   17.1230 C.3   701  F6P701      0.2434
      3  C2        44.6460   58.4860   15.8190 C.3   701  F6P701      0.2807
      4  O2        44.1410   59.7700   15.2970 O.3   701  F6P701     -0.1896
      5  C3        45.4500   57.8220   14.7030 C.3   701  F6P701      0.2409
      6  O3        46.8440   58.1520   14.6390 O.3   701  F6P701     -0.2149
      7  C4        45.1920   56.3320   14.9940 C.3   701  F6P701      0.2167
      8  O4        45.4600   55.5200   13.8850 O.3   701  F6P701     -0.2175
      9  C5        43.7210   56.3190   15.4450 C.3   701  F6P701      0.1808
     10  O5        43.6320   57.5370   16.2370 O.3   701  F6P701     -0.3254
     11  C6        43.2760   55.0580   16.1880 C.3   701  F6P701      0.1859
     12  O6        44.1820   54.7550   17.2860 O.3   701  F6P701     -0.2675
     13  P         44.2340   53.2370   17.8490 P.3   701  F6P701      0.5327
     14  O1P       42.8540   52.8250   18.3280 O.3   701  F6P701     -0.1145
     15  O2P       44.7040   52.2940   16.7500 O.2   701  F6P701     -0.2224
     16  O3P       45.2190   53.2500   19.0090 O.3   701  F6P701     -0.1145
@<TRIPOS>BOND
     1     8     7    1
     2     6     5    1
     3     5     7    1
     4     5     3    1
     5     7     9    1
     6     4     3    1
     7     9    11    1
     8     9    10    1
     9     3    10    1
    10     3     2    1
    11    11    12    1
    12    15    13    2
    13     2     1    1
    14    12    13    1
    15    13    14    1
    16    13    16    1
