@<TRIPOS>MOLECULE
3m5q_MAN_A_1.pdb
 11 11 0 0 0
SMALL
GASTEIGER

@<TRIPOS>ATOM
      1  C1        43.7130   28.0280   15.6680 C.3   364  MAN364      0.1777
      2  C2        42.2890   27.6800   15.2130 C.3   364  MAN364      0.2141
      3  C3        42.2680   26.4720   14.2540 C.3   364  MAN364      0.2173
      4  C4        43.2210   26.7400   13.1010 C.3   364  MAN364      0.2142
      5  C5        44.5890   27.1400   13.6220 C.3   364  MAN364      0.1810
      6  C6        45.5090   27.5820   12.5010 C.3   364  MAN364      0.2141
      7  O2        41.7610   28.7990   14.5280 O.3   364  MAN364     -0.2176
      8  O3        40.9790   26.2700   13.7490 O.3   364  MAN364     -0.2175
      9  O4        43.3140   25.5250   12.3380 O.3   364  MAN364     -0.2176
     10  O5        44.5220   28.2580   14.4630 O.3   364  MAN364     -0.3481
     11  O6        46.7460   27.9660   13.0540 O.3   364  MAN364     -0.2176
@<TRIPOS>BOND
     1     9     4    1
     2     6    11    1
     3     6     5    1
     4     4     5    1
     5     4     3    1
     6     5    10    1
     7     8     3    1
     8     3     2    1
     9    10     1    1
    10     7     2    1
    11     2     1    1
