@<TRIPOS>MOLECULE
3m5q_HEM_A_1.pdb
 43 50 0 0 0
SMALL
GASTEIGER

@<TRIPOS>ATOM
      1  CHA       57.6060   24.0290   35.5500 C.2   396  HEM396      0.0000
      2  CHB       59.4760   19.6050   36.2050 C.2   396  HEM396      0.0000
      3  CHC       56.2150   18.7580   39.7180 C.2   396  HEM396      0.0000
      4  CHD       54.6210   23.3300   39.3350 C.2   396  HEM396      0.0000
      5  C1A       58.4440   22.9110   35.4420 C.ar  396  HEM396      0.0000
      6  C2A       59.5810   22.8120   34.5630 C.ar  396  HEM396      0.0000
      7  C3A       60.1160   21.5750   34.7650 C.ar  396  HEM396      0.0000
      8  C4A       59.2810   20.9120   35.7480 C.ar  396  HEM396      0.0000
      9  CMA       61.3290   20.9430   34.1030 C.3   396  HEM396      0.0000
     10  CAA       60.1190   23.8830   33.6550 C.3   396  HEM396      0.0000
     11  CBA       61.1270   24.8090   34.3510 C.3   396  HEM396      0.0000
     12  CGA       61.8210   25.7100   33.3380 C.2   396  HEM396      0.0000
     13  O1A       62.6380   25.1850   32.5060 O.co2 396  HEM396      0.0000
     14  O2A       61.5490   26.9370   33.3230 O.co2 396  HEM396      0.0000
     15  C1B       58.7130   18.9490   37.1890 C.2   396  HEM396      0.0000
     16  C2B       58.9310   17.6010   37.6340 C.2   396  HEM396      0.0000
     17  C3B       57.9420   17.3310   38.5760 C.2   396  HEM396      0.0000
     18  C4B       57.1800   18.5560   38.7740 C.2   396  HEM396      0.0000
     19  CMB       60.0360   16.7040   37.1130 C.3   396  HEM396      0.0000
     20  CAB       57.6730   16.1120   39.2840 C.2   396  HEM396      0.0000
     21  CBB       57.9510   14.8770   38.8500 C.2   396  HEM396      0.0000
     22  C1C       55.5830   19.9820   39.9970 C.ar  396  HEM396      0.0000
     23  C2C       54.6080   20.1840   41.0700 C.ar  396  HEM396      0.0000
     24  C3C       54.2070   21.4950   41.0220 C.ar  396  HEM396      0.0000
     25  C4C       54.8830   22.0600   39.8570 C.ar  396  HEM396      0.0000
     26  CMC       54.2890   19.1390   42.1050 C.3   396  HEM396      0.0000
     27  CAC       53.3430   22.2170   41.9090 C.2   396  HEM396      0.0000
     28  CBC       52.2940   21.7930   42.6250 C.2   396  HEM396      0.0000
     29  C1D       55.2030   23.8690   38.1730 C.2   396  HEM396      0.0000
     30  C2D       54.8530   25.1460   37.6110 C.2   396  HEM396      0.0000
     31  C3D       55.6990   25.3500   36.5670 C.2   396  HEM396      0.0000
     32  C4D       56.5680   24.2050   36.4600 C.2   396  HEM396      0.0000
     33  CMD       53.6620   25.9740   38.0200 C.3   396  HEM396      0.0000
     34  CAD       55.6920   26.5000   35.5880 C.3   396  HEM396      0.0000
     35  CBD       56.5470   27.6930   35.9040 C.3   396  HEM396      0.0000
     36  CGD       56.3850   28.8170   34.8520 C.2   396  HEM396      0.0000
     37  O1D       57.0290   29.8890   34.9740 O.co2 396  HEM396      0.0000
     38  O2D       55.5590   28.6460   33.9510 O.co2 396  HEM396      0.0000
     39  NA        58.2600   21.7500   36.1700 N.ar  396  HEM396      0.0000
     40  NB        57.6590   19.5180   37.8760 N.2   396  HEM396      0.0000
     41  NC        55.6920   21.1160   39.2140 N.ar  396  HEM396      0.0000
     42  ND        56.2320   23.2860   37.4490 N.2   396  HEM396      0.0000
     43 FE         56.7880   21.3150   37.5210 Fe    396  HEM396      0.0000
@<TRIPOS>BOND
     1    13    12   ar
     2    14    12   ar
     3    12    11    1
     4    10    11    1
     5    10     6    1
     6    38    36   ar
     7     9     7    1
     8     6     7   ar
     9     6     5   ar
    10     7     8   ar
    11    36    37   ar
    12    36    35    1
    13     5     1    2
    14     5    39   ar
    15     1    32    1
    16    34    35    1
    17    34    31    1
    18     8    39   ar
    19     8     2    2
    20    39    43    1
    21     2    15    1
    22    32    31    1
    23    32    42    2
    24    31    30    2
    25    19    16    1
    26    15    16    1
    27    15    40    2
    28    42    43    1
    29    42    29    1
    30    43    40    1
    31    43    41    1
    32    30    33    1
    33    30    29    1
    34    16    17    2
    35    40    18    1
    36    29     4    2
    37    17    18    1
    38    17    20    1
    39    18     3    2
    40    21    20    2
    41    41    25   ar
    42    41    22   ar
    43     4    25    1
    44     3    22    1
    45    25    24   ar
    46    22    23   ar
    47    24    23   ar
    48    24    27    1
    49    23    26    1
    50    27    28    2
