@<TRIPOS>MOLECULE
3m5t_BFG_A_1.pdb
 20 21 0 0 0
SMALL
GASTEIGER

@<TRIPOS>ATOM
      1  C4        19.1160    9.3160   13.1240 C.ar  501  BFG501     -0.0179
      2  C5        19.6070    9.2140   14.4320 C.ar  501  BFG501     -0.0039
      3  C6        20.1660   10.3290   15.0650 C.ar  501  BFG501     -0.0003
      4  C7        18.5450    8.1190   12.3250 C.3   501  BFG501      0.0537
      5  C8        17.6440    7.2210   13.1840 C.ar  501  BFG501     -0.0179
      6  C10       15.4820    6.7410   14.1990 C.ar  501  BFG501     -0.0003
      7  C13       18.1290    6.0450   13.7750 C.ar  501  BFG501     -0.0039
      8  C15       19.2300    6.1670   10.6690 C.2   501  BFG501      0.2421
      9  C2        19.7210   11.6720   13.0970 C.ar  501  BFG501     -0.0003
     10  C3        19.1860   10.5470   12.4600 C.ar  501  BFG501     -0.0039
     11  C14       19.6120    7.3660   11.4960 C.3   501  BFG501      0.0955
     12  N17       19.9300    5.0340   10.9410 N.am  501  BFG501     -0.2044
     13  C18       20.1630    4.0330    9.9110 C.3   501  BFG501      0.1276
     14  C19       21.6060    4.1090    9.3470 C.3   501  BFG501      0.0920
     15  S20       21.7140    3.0810    7.8400 S.3   501  BFG501     -0.0802
     16  O16       18.0500    6.1140   10.2070 O.2   501  BFG501     -0.2733
     17  C12       17.3080    5.2210   14.5500 C.ar  501  BFG501     -0.0003
     18  C11       15.9660    5.5570   14.7570 C.ar  501  BFG501     -0.0000
     19  C9        16.3000    7.5590   13.4180 C.ar  501  BFG501     -0.0039
     20  C1        20.2110   11.5600   14.4040 C.ar  501  BFG501     -0.0000
@<TRIPOS>BOND
     1    15    14    1
     2    14    13    1
     3    13    12    1
     4    16     8    2
     5     8    12   am
     6     8    11    1
     7    11     4    1
     8     4     1    1
     9     4     5    1
    10    10     9   ar
    11    10     1   ar
    12     9    20   ar
    13     1     2   ar
    14     5    19   ar
    15     5     7   ar
    16    19     6   ar
    17     7    17   ar
    18     6    18   ar
    19    20     3   ar
    20     2     3   ar
    21    17    18   ar
