@<TRIPOS>MOLECULE
3m64_393_A_1.pdb
 25 26 0 0 0
SMALL
GASTEIGER

@<TRIPOS>ATOM
      1  C1        16.7770   -4.1840   10.8350 C.ar  600  393600      0.1426
      2  N2        17.2800   -3.2860    9.9500 N.pl3 600  393600      0.0577
      3  O3        18.4780   -3.0830    9.9440 O.2   600  393600     -0.1261
      4  O4        16.5190   -2.7060    9.1840 O.2   600  393600     -0.1261
      5  C5        17.5770   -4.6560   11.8790 C.ar  600  393600      0.0215
      6  C6        17.1010   -5.5250   12.8440 C.ar  600  393600      0.0011
      7  C7        18.0660   -5.9550   13.9440 C.3   600  393600      0.1418
      8  N8        17.4240   -6.8150   14.9350 N.am  600  393600     -0.1967
      9  C9        17.5930   -8.1430   14.8220 C.2   600  393600      0.2680
     10  C10       16.7510   -8.9750   15.7680 C.ar  600  393600      0.0890
     11  C11       16.1670  -10.1370   15.2800 C.ar  600  393600      0.0085
     12  C12       15.3840  -10.9040   16.1450 C.ar  600  393600      0.0117
     13  C13       15.2110  -10.4680   17.4620 C.ar  600  393600      0.0607
     14 CL1        14.2230  -11.4190   18.5140 Cl    600  393600     -0.0821
     15  C15       15.7890   -9.3160   17.9640 C.ar  600  393600      0.0484
     16  C16       16.5660   -8.5700   17.0950 C.ar  600  393600      0.1446
     17  O17       17.3030   -7.4950   17.5680 O.3   600  393600     -0.4635
     18  C18       16.7750   -6.7150   18.6030 C.3   600  393600      0.3186
     19  C19       15.5950   -5.9030   18.1380 C.2   600  393600      0.4084
     20  O20       15.3820   -5.7430   16.9130 O.co2 600  393600     -0.2415
     21  O21       14.8850   -5.4270   19.0640 O.co2 600  393600     -0.2415
     22  O22       18.2720   -8.6930   13.9610 O.2   600  393600     -0.2682
     23  C23       15.7550   -5.9220   12.7940 C.ar  600  393600     -0.0025
     24  C24       14.9200   -5.4620   11.7590 C.ar  600  393600      0.0014
     25  C25       15.4510   -4.5960   10.7830 C.ar  600  393600      0.0241
@<TRIPOS>BOND
     1     4     2    2
     2     3     2    2
     3     2     1    1
     4    25     1   ar
     5    25    24   ar
     6     1     5   ar
     7    24    23   ar
     8     5     6   ar
     9    23     6   ar
    10     6     7    1
    11     7     8    1
    12    22     9    2
    13     9     8   am
    14     9    10    1
    15    11    10   ar
    16    11    12   ar
    17    10    16   ar
    18    12    13   ar
    19    20    19   ar
    20    16    17    1
    21    16    15   ar
    22    13    15   ar
    23    13    14    1
    24    17    18    1
    25    19    18    1
    26    19    21   ar
