@<TRIPOS>MOLECULE
3m64_NAP_A_1.pdb
 48 52 0 0 0
SMALL
GASTEIGER

@<TRIPOS>ATOM
      1  PA        22.4510   -4.7780   26.9760 P.3   500  NAP500      0.2189
      2  O1A       23.3730   -3.7210   26.4730 O.2   500  NAP500     -0.5170
      3  O2A       21.3820   -4.4490   27.9260 O.3   500  NAP500     -0.4371
      4  O5B       23.3750   -5.9740   27.4900 O.3   500  NAP500     -0.3112
      5  C5B       22.7550   -7.1670   28.0150 C.3   500  NAP500      0.1813
      6  C4B       23.9470   -8.0890   28.3460 C.3   500  NAP500      0.1820
      7  O4B       24.6460   -7.5210   29.4310 O.3   500  NAP500     -0.3136
      8  C3B       23.5790   -9.5170   28.8070 C.3   500  NAP500      0.2157
      9  O3B       24.5590  -10.4170   28.2800 O.3   500  NAP500     -0.2175
     10  C2B       23.6840   -9.3630   30.3390 C.3   500  NAP500      0.2314
     11  O2B       23.9670  -10.6260   30.9250 O.3   500  NAP500     -0.2630
     12  C1B       24.8530   -8.4170   30.4890 C.3   500  NAP500      0.3158
     13  N9A       24.7430   -7.6880   31.7210 N.pl3 500  NAP500     -0.1439
     14  C8A       23.6620   -7.0140   32.2600 C.3   500  NAP500      0.3377
     15  N7A       23.9330   -6.3900   33.3750 N.2   500  NAP500     -0.2095
     16  C5A       25.2660   -6.6580   33.5900 C.2   500  NAP500      0.2526
     17  C6A       26.0740   -6.2340   34.6660 C.2   500  NAP500      0.4393
     18  N6A       25.7140   -5.4750   35.6840 N.pl3 500  NAP500      0.2180
     19  N1A       27.4110   -6.6900   34.5850 N.2   500  NAP500      0.0021
     20  C2A       27.8890   -7.4870   33.5580 C.3   500  NAP500      0.5254
     21  N3A       27.0680   -7.8900   32.5230 N.2   500  NAP500     -0.0055
     22  C4A       25.7550   -7.4570   32.5740 C.2   500  NAP500      0.3518
     23  O3        21.8470   -5.4980   25.6360 O.3   500  NAP500     -0.2703
     24  PN        20.4570   -5.5830   24.8550 P.3   500  NAP500      0.2189
     25  O1N       19.6480   -6.7240   25.3750 O.3   500  NAP500     -0.4371
     26  O2N       20.8060   -5.6210   23.3970 O.2   500  NAP500     -0.5170
     27  O5D       19.7260   -4.1770   25.0750 O.3   500  NAP500     -0.3112
     28  C5D       18.8660   -3.9320   26.2590 C.3   500  NAP500      0.1813
     29  C4D       17.4570   -4.0650   25.7650 C.3   500  NAP500      0.1799
     30  O4D       17.0920   -3.0430   24.7900 O.3   500  NAP500     -0.3327
     31  C3D       16.9680   -5.3740   25.1020 C.3   500  NAP500      0.2158
     32  O3D       16.9270   -6.5030   25.9320 O.3   500  NAP500     -0.2175
     33  C2D       15.6370   -4.9000   24.4890 C.3   500  NAP500      0.2309
     34  O2D       14.6680   -4.8740   25.5330 O.3   500  NAP500     -0.2158
     35  C1D       15.9740   -3.5080   24.0040 C.3   500  NAP500      0.2263
     36  N1N       16.4450   -3.4340   22.5740 N.pl3 500  NAP500     -0.2787
     37  C2N       15.5490   -2.8420   21.6820 C.3   500  NAP500      0.1244
     38  C3N       15.9590   -2.8630   20.3230 C.2   500  NAP500      0.0544
     39  C7N       15.0440   -2.2130   19.2830 C.2   500  NAP500      0.2818
     40  O7N       15.2420   -2.4590   18.1080 O.2   500  NAP500     -0.2670
     41  N7N       14.1010   -1.4080   19.7600 N.am  500  NAP500     -0.0839
     42  C4N       17.1890   -3.4640   19.9080 C.2   500  NAP500      0.0033
     43  C5N       18.0990   -4.0510   20.8400 C.2   500  NAP500      0.0157
     44  C6N       17.7130   -4.0080   22.2040 C.2   500  NAP500      0.0633
     45  P2B       22.8880  -11.5240   31.7520 P.3   500  NAP500      0.5328
     46  O1X       23.4480  -12.9510   31.5270 O.3   500  NAP500     -0.1145
     47  O2X       22.9710  -11.0370   33.1730 O.3   500  NAP500     -0.1145
     48  O3X       21.4970  -11.2860   31.1850 O.2   500  NAP500     -0.2224
@<TRIPOS>BOND
     1    40    39    2
     2    39    41   am
     3    39    38    1
     4    42    38    2
     5    42    43    1
     6    38    37    1
     7    43    44    2
     8    37    36    1
     9    44    36    1
    10    36    35    1
    11    26    24    2
    12    35    33    1
    13    35    30    1
    14    33    31    1
    15    33    34    1
    16    30    29    1
    17    24    27    1
    18    24    25    1
    19    24    23    1
    20    27    28    1
    21    31    29    1
    22    31    32    1
    23    23     1    1
    24    29    28    1
    25     2     1    2
    26     1     4    1
    27     1     3    1
    28     4     5    1
    29     5     6    1
    30     9     8    1
    31     6     8    1
    32     6     7    1
    33     8    10    1
    34     7    12    1
    35    10    12    1
    36    10    11    1
    37    12    13    1
    38    11    45    1
    39    48    45    2
    40    46    45    1
    41    13    14    1
    42    13    22    1
    43    45    47    1
    44    14    15    1
    45    21    22    2
    46    21    20    1
    47    22    16    1
    48    15    16    2
    49    20    19    1
    50    16    17    1
    51    19    17    2
    52    17    18    1
