@<TRIPOS>MOLECULE
3m67_E36_A_1.pdb
 28 31 0 0 0
SMALL
GASTEIGER

@<TRIPOS>ATOM
      1  O1        -0.9270   10.1030   12.6310 O.3   262  E36262     -0.4683
      2  C2        -0.0930   10.6550   13.6500 C.3   262  E36262      0.2526
      3  C3        -0.2270    9.8520   14.9910 C.3   262  E36262      0.2526
      4  O4        -1.3620    9.0050   15.0230 O.3   262  E36262     -0.4683
      5  C5        -1.4000    8.1260   13.9740 C.ar  262  E36262      0.1751
      6  C6        -1.1380    8.7250   12.6270 C.ar  262  E36262      0.1751
      7  C7        -1.1110    7.9580   11.5160 C.ar  262  E36262      0.0757
      8  C8        -1.3320    6.5110   11.7280 C.ar  262  E36262      0.1778
      9  N9        -1.3290    5.4380   10.7570 N.2   262  E36262     -0.3322
     10  C10       -1.5480    4.3620   11.4530 C.1   262  E36262      0.1684
     11  N11       -1.7210    4.6760   12.8490 N.2   262  E36262     -0.3322
     12  C12       -1.5620    6.0270   12.9320 C.ar  262  E36262      0.1778
     13  C13       -1.6090    6.8340   14.1510 C.ar  262  E36262      0.0757
     14  S14       -1.7000    2.6640   10.8590 S.3   262  E36262     -0.0151
     15  C15       -2.8380    2.0910   12.2030 C.3   262  E36262      0.1118
     16  C16       -4.0810    3.0480   12.3070 C.3   262  E36262      0.1861
     17  O17       -4.5050    3.6230   11.2210 O.3   262  E36262     -0.2173
     18  C18       -4.7750    3.2600   13.6590 C.ar  262  E36262      0.0100
     19  C19       -4.9800    2.1460   14.6020 C.ar  262  E36262      0.0191
     20  C20       -5.5860    2.3660   15.7880 C.ar  262  E36262      0.1353
     21  C21       -6.0250    3.7320   16.0690 C.ar  262  E36262      0.0763
     22  C22       -5.8820    4.7600   15.2190 C.ar  262  E36262      0.0125
     23  C23       -5.2350    4.5050   13.9510 C.ar  262  E36262     -0.0009
     24  S24       -5.8860    0.9300   16.8560 S.O2  262  E36262      0.0943
     25  O25       -7.4410    0.8990   16.8550 O.2   262  E36262     -0.1503
     26 CL26       -6.7940    3.9290   17.5810 Cl    262  E36262     -0.0809
     27  O27       -5.2700    1.1430   18.2330 O.2   262  E36262     -0.1503
     28  N28       -5.1900   -0.3770   16.0070 N.3   262  E36262      0.0392
@<TRIPOS>BOND
     1     9    10    2
     2     9     8    2
     3    14    10    1
     4    14    15    1
     5    17    16    1
     6    10    11    2
     7     7     8   ar
     8     7     6   ar
     9     8    12   ar
    10    15    16    1
    11    16    18    1
    12     6     1    1
    13     6     5   ar
    14     1     2    1
    15    11    12    2
    16    12    13   ar
    17     2     3    1
    18    18    23   ar
    19    18    19   ar
    20    23    22   ar
    21     5    13   ar
    22     5     4    1
    23    19    20   ar
    24     3     4    1
    25    22    21   ar
    26    20    21   ar
    27    20    24    1
    28    28    24    1
    29    21    26    1
    30    25    24    2
    31    24    27    2
