@<TRIPOS>MOLECULE
3m6a_ADP_A_1.pdb
 27 29 0 0 0
SMALL
GASTEIGER

@<TRIPOS>ATOM
      1  PB        34.0150    5.8770    5.8570 P.3   783  ADP783      0.5373
      2  O1B       34.7980    6.8540    5.0120 O.2   783  ADP783     -0.2221
      3  O2B       32.8970    6.4650    6.6430 O.3   783  ADP783     -0.1143
      4  O3B       34.7540    4.8110    6.6240 O.3   783  ADP783     -0.1143
      5  PA        34.7950    4.0880    4.3180 P.3   783  ADP783      0.2231
      6  O1A       36.0120    4.9650    4.3630 O.2   783  ADP783     -0.5169
      7  O2A       34.6610    2.8360    5.1390 O.3   783  ADP783     -0.4370
      8  O3A       33.5070    4.9660    4.6720 O.3   783  ADP783     -0.2261
      9  O5'       34.6270    3.7570    2.7570 O.3   783  ADP783     -0.3111
     10  C5'       35.7600    3.2100    2.0910 C.3   783  ADP783      0.1813
     11  C4'       35.8440    1.8050    2.6400 C.3   783  ADP783      0.1821
     12  O4'       34.5960    1.5880    3.2860 O.3   783  ADP783     -0.3135
     13  C3'       35.9780    0.7640    1.5550 C.3   783  ADP783      0.2184
     14  O3'       37.2380    0.1080    1.6610 O.3   783  ADP783     -0.2174
     15  C2'       34.8540   -0.1880    1.8520 C.3   783  ADP783      0.2570
     16  O2'       35.2260   -1.0820    2.8840 O.3   783  ADP783     -0.2130
     17  C1'       33.8420    0.6530    2.5430 C.3   783  ADP783      0.3186
     18  N9        32.9940    1.3470    1.5510 N.pl3 783  ADP783     -0.1439
     19  C8        31.9680    2.1150    1.9460 C.3   783  ADP783      0.3377
     20  N7        31.2630    2.6510    0.9020 N.2   783  ADP783     -0.2095
     21  C5        31.8270    2.2370   -0.2430 C.2   783  ADP783      0.2526
     22  C6        31.5240    2.4520   -1.6900 C.2   783  ADP783      0.4393
     23  N6        30.4990    3.2160   -2.1640 N.pl3 783  ADP783      0.2180
     24  N1        32.3380    1.8410   -2.5460 N.2   783  ADP783      0.0021
     25  C2        33.3520    1.0780   -2.1010 C.3   783  ADP783      0.5254
     26  N3        33.6770    0.8280   -0.8110 N.2   783  ADP783     -0.0055
     27  C4        32.9630    1.3640    0.1920 C.2   783  ADP783      0.3518
@<TRIPOS>BOND
     1    24    25    1
     2    24    22    2
     3    23    22    1
     4    25    26    1
     5    22    21    1
     6    26    27    2
     7    21    27    1
     8    21    20    2
     9    27    18    1
    10    20    19    1
    11    18    19    1
    12    18    17    1
    13    13    14    1
    14    13    15    1
    15    13    11    1
    16    15    17    1
    17    15    16    1
    18    10    11    1
    19    10     9    1
    20    17    12    1
    21    11    12    1
    22     9     5    1
    23     5     6    2
    24     5     8    1
    25     5     7    1
    26     8     1    1
    27     2     1    2
    28     1     4    1
    29     1     3    1
