@<TRIPOS>MOLECULE
3m6b_1RG_A_1.pdb
 33 35 0 0 0
SMALL
GASTEIGER

@<TRIPOS>ATOM
      1  C         -7.1310   -4.8800   -0.1020 C.2   308  1RG308      0.2614
      2  N         -7.0240   -4.6060    2.3530 N.3   308  1RG308     -0.2093
      3  O         -8.2730   -4.5490   -0.0200 O.2   308  1RG308     -0.2715
      4  CA        -6.2140   -4.9400    1.1540 C.3   308  1RG308      0.1516
      5  CB        -5.7520   -6.3780    1.3860 C.3   308  1RG308      0.0390
      6  CD        -6.7940   -5.6640    3.3560 C.3   308  1RG308      0.1000
      7  CG        -6.6190   -6.9220    2.5460 C.3   308  1RG308      0.0673
      8  CAA      -11.6290  -11.0690    4.9870 C.2   308  1RG308      0.2115
      9  CAB      -10.2410  -11.4880    4.4120 C.3   308  1RG308      0.1175
     10  OAC      -12.4240  -10.6330    4.1950 O.2   308  1RG308     -0.2882
     11  CAD       -9.1880  -10.3670    4.7530 C.3   308  1RG308      0.1141
     12  CAE       -9.7220  -12.9250    4.7390 C.3   308  1RG308      0.1613
     13  CAF       -9.4490  -13.1350    6.2430 C.3   308  1RG308      0.0360
     14  OAG      -10.6640  -13.8610    4.2910 O.3   308  1RG308     -0.2226
     15  CAH       -8.3360   -9.9340    3.5310 C.3   308  1RG308      0.0387
     16  CAI       -8.8650   -8.5150    3.2320 C.3   308  1RG308      0.0957
     17  NAJ      -10.0080   -9.1560    5.0360 N.2   308  1RG308     -0.2688
     18  SAK       -8.2130   -7.5870    1.8380 S.3   308  1RG308     -0.1341
     19  CAL       -9.7710   -8.1490    4.2140 C.2   308  1RG308      0.1428
     20  CAM      -10.4160   -7.0280    4.3140 C.2   308  1RG308      0.4014
     21  CAS       -8.4940  -10.7890    2.2630 C.3   308  1RG308      0.0033
     22  OAT      -10.3890   -6.1650    3.5040 O.co2 308  1RG308     -0.2392
     23  OAU      -10.9340   -6.8780    5.3920 O.co2 308  1RG308     -0.2392
     24  NAX       -6.5520   -5.1420   -1.2660 N.am  308  1RG308     -0.1780
     25  CAY       -7.1300   -5.1930   -2.4770 C.ar  308  1RG308      0.0736
     26  CAZ       -6.5350   -5.9520   -3.4440 C.ar  308  1RG308      0.0232
     27  CBA       -7.0890   -6.0510   -4.7200 C.ar  308  1RG308      0.0811
     28  CBB       -8.2400   -5.3990   -5.0200 C.ar  308  1RG308      0.0067
     29  CBC       -8.8100   -4.6320   -4.0790 C.ar  308  1RG308      0.0015
     30  CBD       -8.2630   -4.5260   -2.8370 C.ar  308  1RG308      0.0166
     31  CBE       -6.4790   -6.9080   -5.8120 C.2   308  1RG308      0.3878
     32  OBF       -7.1120   -7.1170   -6.8460 O.co2 308  1RG308     -0.2406
     33  OBG       -5.3700   -7.3670   -5.5620 O.co2 308  1RG308     -0.2406
@<TRIPOS>BOND
     1    32    31   ar
     2    31    33   ar
     3    31    27    1
     4    28    27   ar
     5    28    29   ar
     6    27    26   ar
     7    29    30   ar
     8    26    25   ar
     9    30    25   ar
    10    25    24    1
    11    24     1   am
    12     1     3    2
    13     1     4    1
    14     4     5    1
    15     4     2    1
    16     5     7    1
    17    18     7    1
    18    18    16    1
    19    21    15    1
    20     2     6    1
    21     7     6    1
    22    16    15    1
    23    16    19    1
    24    22    20   ar
    25    15    11    1
    26    10     8    2
    27    19    20    1
    28    19    17    2
    29    14    12    1
    30    20    23   ar
    31     9    12    1
    32     9    11    1
    33     9     8    1
    34    12    13    1
    35    11    17    1
