@<TRIPOS>MOLECULE
3m6f_BJZ_A_1.pdb
 37 41 0 0 0
SMALL
GASTEIGER

@<TRIPOS>ATOM
      1  C1        -5.9740   -0.3550   28.4070 C.ar    1  BJZ1        0.0598
      2  C2        -7.1610    0.2840   27.9800 C.ar    1  BJZ1        0.0268
      3  C4        -7.8720    1.1230   28.8960 C.ar    1  BJZ1        0.0639
      4  C5        -7.3270    1.3300   30.1760 C.ar    1  BJZ1        0.0268
      5  C7        -6.1400    0.6880   30.5640 C.ar    1  BJZ1        0.0598
      6  C8        -5.4570   -0.1730   29.6950 C.ar    1  BJZ1        0.0229
      7 CL10       -5.5160    0.9920   32.1730 Cl      1  BJZ1       -0.0822
      8  N11       -9.1040    1.6450   28.5790 N.am    1  BJZ1       -0.1909
      9  C12      -10.2190    1.5700   29.3560 C.2     1  BJZ1        0.3172
     10  N13      -11.2740    2.0750   28.6980 N.am    1  BJZ1       -0.2549
     11  C14      -10.9240    2.4560   27.3350 C.3     1  BJZ1        0.1545
     12  C15       -9.4000    2.2090   27.3770 C.2     1  BJZ1        0.2544
     13  O16       -8.6300    2.4830   26.4510 O.2     1  BJZ1       -0.2723
     14  C17      -11.2150    3.9130   26.9380 C.3     1  BJZ1        0.1196
     15  N20      -11.5990    3.7830   25.5290 N.pl3   1  BJZ1       -0.2907
     16  C21      -11.4550    2.4270   24.9970 C.3     1  BJZ1        0.0987
     17  C24      -11.5590    1.5730   26.2490 C.3     1  BJZ1        0.0689
     18  C26      -11.0030    0.1580   26.1760 C.ar    1  BJZ1       -0.0187
     19  C27      -11.5440   -0.8190   27.0310 C.ar    1  BJZ1       -0.0035
     20  C29      -10.9650   -2.0990   27.1200 C.ar    1  BJZ1        0.0100
     21  C31       -9.8640   -2.4130   26.3020 C.ar    1  BJZ1        0.0684
     22  C32       -9.3290   -1.4770   25.4150 C.ar    1  BJZ1        0.0100
     23  C34       -9.9100   -0.1970   25.3370 C.ar    1  BJZ1       -0.0035
     24  C36       -9.3230   -3.7420   26.3490 C.1     1  BJZ1        0.1004
     25  N37       -8.8790   -4.8110   26.3930 N.1     1  BJZ1       -0.1908
     26  C38      -12.1200    4.8260   24.7860 C.ar    1  BJZ1        0.1318
     27  N39      -12.4140    6.0050   25.4090 N.ar    1  BJZ1       -0.2290
     28  C40      -12.9240    7.0480   24.6940 C.ar    1  BJZ1        0.1068
     29  C42      -13.1420    6.9810   23.3100 C.ar    1  BJZ1        0.0990
     30  C43      -12.8270    5.7780   22.6610 C.ar    1  BJZ1        0.0110
     31  C45      -12.3250    4.6870   23.3940 C.ar    1  BJZ1        0.0345
     32  C47      -13.6690    8.1410   22.5670 C.2     1  BJZ1        0.3893
     33  O48      -13.7640    8.1500   21.3780 O.co2   1  BJZ1       -0.2405
     34  O49      -14.0130    9.1790   23.3390 O.co2   1  BJZ1       -0.2405
     35  C51      -12.6450    2.1280   29.2500 C.3     1  BJZ1        0.1169
     36  O55      -10.3000    1.1100   30.4910 O.2     1  BJZ1       -0.2516
     37 CL56       -5.0970   -1.3710   27.3310 Cl      1  BJZ1       -0.0822
@<TRIPOS>BOND
     1    33    32   ar
     2    32    29    1
     3    32    34   ar
     4    30    29   ar
     5    30    31   ar
     6    29    28   ar
     7    31    26   ar
     8    28    27   ar
     9    26    27   ar
    10    26    15    1
    11    16    15    1
    12    16    17    1
    13    23    22   ar
    14    23    18   ar
    15    22    21   ar
    16    15    14    1
    17    18    17    1
    18    18    19   ar
    19    17    11    1
    20    21    24    1
    21    21    20   ar
    22    24    25    3
    23    13    12    2
    24    14    11    1
    25    19    20   ar
    26    37     1    1
    27    11    12    1
    28    11    10    1
    29    12     8   am
    30     2     1   ar
    31     2     3   ar
    32     1     6   ar
    33     8     3    1
    34     8     9   am
    35    10    35    1
    36    10     9   am
    37     3     4   ar
    38     9    36    2
    39     6     5   ar
    40     4     5   ar
    41     5     7    1
