@<TRIPOS>MOLECULE
3m6g_ATP_A_1.pdb
 31 33 0 0 0
SMALL
GASTEIGER

@<TRIPOS>ATOM
      1  PG       -12.9170  -16.2330  -47.2610 P.3   1380  ATP1380     0.5373
      2  O1G      -12.1410  -16.6020  -48.5030 O.2   1380  ATP1380    -0.2221
      3  O2G      -14.0340  -15.2520  -47.5040 O.3   1380  ATP1380    -0.1143
      4  O3G      -13.2720  -17.4790  -46.4620 O.3   1380  ATP1380    -0.1143
      5  PB       -10.7290  -15.6660  -45.4020 P.3   1380  ATP1380     0.2277
      6  O1B       -9.4600  -14.8740  -45.6660 O.2   1380  ATP1380    -0.5168
      7  O2B      -10.5950  -17.1620  -45.1640 O.3   1380  ATP1380    -0.4368
      8  O3B      -11.9150  -15.2620  -46.4130 O.3   1380  ATP1380    -0.2258
      9  PA       -11.1100  -15.4420  -42.5170 P.3   1380  ATP1380     0.2189
     10  O1A      -12.0830  -16.5340  -42.0750 O.3   1380  ATP1380    -0.4371
     11  O2A       -9.6350  -15.6330  -42.2100 O.2   1380  ATP1380    -0.5170
     12  O3A      -11.3300  -15.0030  -44.0580 O.3   1380  ATP1380    -0.2700
     13  O5'      -11.5690  -14.0830  -41.7990 O.3   1380  ATP1380    -0.3112
     14  C5'      -11.0230  -12.8000  -42.1280 C.3   1380  ATP1380     0.1813
     15  C4'      -12.1370  -11.7800  -41.9510 C.3   1380  ATP1380     0.1821
     16  O4'      -12.6400  -11.9210  -40.6190 O.3   1380  ATP1380    -0.3135
     17  C3'      -11.6880  -10.3260  -42.0860 C.3   1380  ATP1380     0.2184
     18  O3'      -12.6980   -9.6160  -42.8050 O.3   1380  ATP1380    -0.2174
     19  C2'      -11.6430   -9.8410  -40.6480 C.3   1380  ATP1380     0.2570
     20  O2'      -11.8410   -8.4360  -40.4730 O.3   1380  ATP1380    -0.2130
     21  C1'      -12.7670  -10.6480  -40.0100 C.3   1380  ATP1380     0.3186
     22  N9       -12.5780  -10.7500  -38.5610 N.pl3 1380  ATP1380    -0.1439
     23  C8       -11.4960  -11.2750  -37.9570 C.3   1380  ATP1380     0.3377
     24  N7       -11.6250  -11.2130  -36.6190 N.2   1380  ATP1380    -0.2095
     25  C5       -12.8000  -10.6190  -36.3490 C.2   1380  ATP1380     0.2526
     26  C6       -13.5370  -10.2330  -35.1270 C.2   1380  ATP1380     0.4393
     27  N6       -12.9940  -10.4930  -33.9250 N.pl3 1380  ATP1380     0.2180
     28  N1       -14.7410   -9.6200  -35.2550 N.2   1380  ATP1380     0.0021
     29  C2       -15.2620   -9.3630  -36.4720 C.3   1380  ATP1380     0.5254
     30  N3       -14.6350   -9.6860  -37.6320 N.2   1380  ATP1380    -0.0055
     31  C4       -13.4250  -10.3050  -37.6350 C.2   1380  ATP1380     0.3518
@<TRIPOS>BOND
     1     2     1    2
     2     3     1    1
     3     1     4    1
     4     1     8    1
     5     8     5    1
     6     6     5    2
     7     5     7    1
     8     5    12    1
     9    12     9    1
    10    18    17    1
    11     9    11    2
    12     9    10    1
    13     9    13    1
    14    14    15    1
    15    14    13    1
    16    17    15    1
    17    17    19    1
    18    15    16    1
    19    19    20    1
    20    19    21    1
    21    16    21    1
    22    21    22    1
    23    22    23    1
    24    22    31    1
    25    23    24    1
    26    31    30    2
    27    31    25    1
    28    30    29    1
    29    24    25    2
    30    29    28    1
    31    25    26    1
    32    28    26    2
    33    26    27    1
