@<TRIPOS>MOLECULE
3m6h_2RG_A_1.pdb
 33 35 0 0 0
SMALL
GASTEIGER

@<TRIPOS>ATOM
      1  C         -2.7590   -8.3390    3.5650 C.2   308  2RG308      0.2614
      2  N         -4.8820   -7.5910    2.4050 N.3   308  2RG308     -0.2093
      3  O         -2.7040   -9.3510    2.8550 O.2   308  2RG308     -0.2715
      4  CA        -3.8310   -7.2140    3.3670 C.3   308  2RG308      0.1516
      5  CB        -4.5600   -6.9180    4.6920 C.3   308  2RG308      0.0390
      6  CD        -6.0560   -6.8330    2.8590 C.3   308  2RG308      0.1000
      7  CG        -6.0430   -7.0820    4.3590 C.3   308  2RG308      0.0673
      8  CAA      -11.7660  -11.4300    5.1940 C.3   308  2RG308      0.1865
      9  CAB      -10.4430  -11.8880    4.5980 C.3   308  2RG308      0.0858
     10  OAC      -12.5570  -10.5910    4.3610 O.3   308  2RG308     -0.2203
     11  CAD       -9.3650  -10.8080    4.8480 C.3   308  2RG308      0.1093
     12  CAE      -10.1540  -13.2400    5.2630 C.3   308  2RG308      0.1564
     13  CAF       -8.8170  -13.8710    4.8680 C.3   308  2RG308      0.0356
     14  OAG      -10.2610  -13.1070    6.6970 O.3   308  2RG308     -0.2230
     15  CAH       -8.3970  -10.5920    3.6550 C.3   308  2RG308      0.0384
     16  CAI       -8.0960   -9.0830    3.7390 C.3   308  2RG308      0.0957
     17  NAJ      -10.0530   -9.5100    5.0470 N.2   308  2RG308     -0.2692
     18  SAK       -6.6230   -8.7770    4.8030 S.3   308  2RG308     -0.1341
     19  CAL       -9.3750   -8.5640    4.4070 C.2   308  2RG308      0.1428
     20  CAM       -9.8960   -7.1390    4.3540 C.2   308  2RG308      0.4014
     21  CAS       -9.0020  -10.9930    2.3090 C.3   308  2RG308      0.0033
     22  OAT      -10.9660   -6.9040    4.9420 O.co2 308  2RG308     -0.2392
     23  OAU       -9.2360   -6.2840    3.7470 O.co2 308  2RG308     -0.2392
     24  NAX       -1.9070   -8.0510    4.5540 N.am  308  2RG308     -0.1780
     25  CAY       -0.8750   -8.7700    5.0050 C.ar  308  2RG308      0.0736
     26  CAZ       -0.9510  -10.1580    5.2020 C.ar  308  2RG308      0.0232
     27  CBA        0.1530  -10.8390    5.7140 C.ar  308  2RG308      0.0811
     28  CBB        1.3140  -10.1430    6.0440 C.ar  308  2RG308      0.0067
     29  CBC        1.3980   -8.7680    5.8540 C.ar  308  2RG308      0.0015
     30  CBD        0.2910   -8.0840    5.3480 C.ar  308  2RG308      0.0166
     31  CBE        0.1030  -12.3470    5.9430 C.2   308  2RG308      0.3878
     32  OBF       -0.9370  -12.9580    5.6660 O.co2 308  2RG308     -0.2406
     33  OBG        1.1100  -12.8900    6.4110 O.co2 308  2RG308     -0.2406
@<TRIPOS>BOND
     1    21    15    1
     2     2     6    1
     3     2     4    1
     4     3     1    2
     5     6     7    1
     6     4     1    1
     7     4     5    1
     8     1    24   am
     9    15    16    1
    10    15    11    1
    11    16    19    1
    12    16    18    1
    13    23    20   ar
    14    20    19    1
    15    20    22   ar
    16     7     5    1
    17     7    18    1
    18    10     8    1
    19    19    17    2
    20    24    25    1
    21     9    11    1
    22     9     8    1
    23     9    12    1
    24    11    17    1
    25    13    12    1
    26    25    26   ar
    27    25    30   ar
    28    26    27   ar
    29    12    14    1
    30    30    29   ar
    31    32    31   ar
    32    27    31    1
    33    27    28   ar
    34    29    28   ar
    35    31    33   ar
