@<TRIPOS>MOLECULE
3m6i_NAD_A_1.pdb
 44 48 0 0 0
SMALL
GASTEIGER

@<TRIPOS>ATOM
      1  PA        48.0300  -22.9110    9.9700 P.3   501  NAD501      0.2189
      2  O1A       48.3800  -24.3740    9.9230 O.2   501  NAD501     -0.5170
      3  O2A       46.7040  -22.4510   10.5200 O.3   501  NAD501     -0.4371
      4  O5B       48.2070  -22.4500    8.4510 O.3   501  NAD501     -0.3112
      5  C5B       48.9740  -23.2870    7.6000 C.3   501  NAD501      0.1813
      6  C4B       48.1630  -23.4260    6.3310 C.3   501  NAD501      0.1821
      7  O4B       49.0120  -23.9830    5.3290 O.3   501  NAD501     -0.3135
      8  C3B       46.9940  -24.3890    6.4840 C.3   501  NAD501      0.2184
      9  O3B       45.7860  -23.7340    6.1080 O.3   501  NAD501     -0.2174
     10  C2B       47.3080  -25.5010    5.5090 C.3   501  NAD501      0.2570
     11  O2B       46.1390  -26.0380    4.9090 O.3   501  NAD501     -0.2130
     12  C1B       48.1910  -24.7770    4.5110 C.3   501  NAD501      0.3186
     13  N9A       49.0500  -25.6460    3.7010 N.pl3 501  NAD501     -0.1439
     14  C8A       49.6380  -26.7780    4.0880 C.3   501  NAD501      0.3377
     15  N7A       50.3130  -27.2880    3.0370 N.2   501  NAD501     -0.2095
     16  C5A       50.1480  -26.4520    1.9910 C.2   501  NAD501      0.2526
     17  C6A       50.6090  -26.4450    0.6730 C.2   501  NAD501      0.4393
     18  N6A       51.3970  -27.4460    0.2100 N.pl3 501  NAD501      0.2180
     19  N1A       50.2380  -25.4300   -0.1420 N.2   501  NAD501      0.0021
     20  C2A       49.4460  -24.4360    0.3080 C.3   501  NAD501      0.5254
     21  N3A       48.9960  -24.4140    1.5670 N.2   501  NAD501     -0.0055
     22  C4A       49.3340  -25.4130    2.4220 C.2   501  NAD501      0.3518
     23  O3        49.1770  -22.0810   10.7080 O.3   501  NAD501     -0.2703
     24  PN        49.1730  -20.4840   10.8160 P.3   501  NAD501      0.2189
     25  O1N       48.3820  -19.8810    9.6890 O.2   501  NAD501     -0.5170
     26  O2N       48.8610  -20.0550   12.2360 O.3   501  NAD501     -0.4371
     27  O5D       50.7370  -20.1800   10.5730 O.3   501  NAD501     -0.3112
     28  C5D       51.4580  -20.6090    9.4010 C.3   501  NAD501      0.1813
     29  C4D       52.9570  -20.7020    9.6960 C.3   501  NAD501      0.1799
     30  O4D       53.5020  -19.4360   10.0700 O.3   501  NAD501     -0.3327
     31  C3D       53.2370  -21.6600   10.8600 C.3   501  NAD501      0.2158
     32  O3D       54.2490  -22.5910   10.4540 O.3   501  NAD501     -0.2175
     33  C2D       53.6640  -20.7390   11.9960 C.3   501  NAD501      0.2309
     34  O2D       54.5540  -21.3470   12.9360 O.3   501  NAD501     -0.2158
     35  C1D       54.3130  -19.6140   11.2160 C.3   501  NAD501      0.2263
     36  N1N       54.4050  -18.3470   11.9330 N.pl3 501  NAD501     -0.2787
     37  C2N       55.6370  -17.8310   11.9500 C.3   501  NAD501      0.1244
     38  C3N       55.9330  -16.6300   12.5810 C.2   501  NAD501      0.0544
     39  C7N       57.3630  -16.1450   12.4770 C.2   501  NAD501      0.2818
     40  O7N       57.7920  -15.2690   13.2320 O.2   501  NAD501     -0.2670
     41  N7N       58.1310  -16.6590   11.4950 N.am  501  NAD501     -0.0839
     42  C4N       54.8970  -15.9320   13.2210 C.2   501  NAD501      0.0033
     43  C5N       53.6090  -16.4830   13.1710 C.2   501  NAD501      0.0157
     44  C6N       53.3700  -17.7080   12.5230 C.2   501  NAD501      0.0633
@<TRIPOS>BOND
     1    19    20    1
     2    19    17    2
     3    18    17    1
     4    20    21    1
     5    17    16    1
     6    21    22    2
     7    16    22    1
     8    16    15    2
     9    22    13    1
    10    15    14    1
    11    13    14    1
    12    13    12    1
    13    12     7    1
    14    12    10    1
    15    11    10    1
    16     7     6    1
    17    10     8    1
    18     9     8    1
    19     6     8    1
    20     6     5    1
    21     5     4    1
    22     4     1    1
    23    28    29    1
    24    28    27    1
    25    25    24    2
    26    29    30    1
    27    29    31    1
    28     2     1    2
    29     1     3    1
    30     1    23    1
    31    30    35    1
    32    32    31    1
    33    27    24    1
    34    23    24    1
    35    24    26    1
    36    31    33    1
    37    35    36    1
    38    35    33    1
    39    41    39   am
    40    36    37    1
    41    36    44    1
    42    37    38    1
    43    33    34    1
    44    39    38    1
    45    39    40    2
    46    44    43    2
    47    38    42    2
    48    43    42    1
