@<TRIPOS>MOLECULE
3m6l_TPP_A_1.pdb
 26 27 0 0 0
SMALL
GASTEIGER

@<TRIPOS>ATOM
      1  N1'        6.6680   -3.7480  -42.4310 N.2   5001  TPP5001    -0.1861
      2  C2'        5.6930   -3.6840  -41.5270 C.1   5001  TPP5001     0.0663
      3  CM2        6.1070   -3.6780  -40.0680 C.3   5001  TPP5001     0.1291
      4  N3'        4.3640   -3.5990  -41.7580 N.2   5001  TPP5001    -0.3368
      5  C4'        3.9360   -3.5010  -43.0200 C.2   5001  TPP5001     0.2292
      6  N4'        2.6430   -3.3630  -43.2090 N.pl3 5001  TPP5001    -0.0925
      7  C5'        4.9520   -3.6100  -44.1210 C.2   5001  TPP5001     0.0654
      8  C6'        6.2920   -3.7190  -43.7520 C.2   5001  TPP5001     0.1115
      9  C7'        4.5160   -3.5880  -45.6360 C.3   5001  TPP5001     0.1237
     10  N3         3.8010   -4.9210  -45.9910 N.pl3 5001  TPP5001    -0.2970
     11  C2         2.4490   -5.2410  -46.0250 C.3   5001  TPP5001     0.1543
     12  S1         1.9410   -6.9160  -46.3050 S.3   5001  TPP5001    -0.0951
     13  C5         3.6460   -7.2640  -46.5340 C.2   5001  TPP5001     0.0164
     14  C4         4.4660   -6.0670  -46.2820 C.2   5001  TPP5001     0.0279
     15  CM4        5.9360   -6.2130  -46.3250 C.3   5001  TPP5001     0.0473
     16  C6         4.2300   -8.6110  -46.8860 C.3   5001  TPP5001     0.0661
     17  C7         3.3280   -9.6380  -47.5520 C.3   5001  TPP5001     0.1544
     18  O7         2.8360  -10.1970  -46.4020 O.3   5001  TPP5001    -0.3134
     19  PA         1.9370  -11.4140  -46.1580 P.3   5001  TPP5001     0.2230
     20  O1A        1.8040  -11.3880  -44.6980 O.3   5001  TPP5001    -0.4370
     21  O2A        2.6720  -12.5960  -46.7460 O.2   5001  TPP5001    -0.5169
     22  O3A        0.6470  -11.0710  -46.9770 O.3   5001  TPP5001    -0.2261
     23  PB        -0.1460  -11.6550  -48.2510 P.3   5001  TPP5001     0.5373
     24  O1B       -1.5650  -11.4200  -47.9270 O.3   5001  TPP5001    -0.1143
     25  O2B        0.2530  -13.0790  -48.5180 O.3   5001  TPP5001    -0.1143
     26  O3B        0.3310  -10.9270  -49.4640 O.2   5001  TPP5001    -0.2221
@<TRIPOS>BOND
     1    26    23    2
     2    25    23    1
     3    23    24    1
     4    23    22    1
     5    17    16    1
     6    17    18    1
     7    22    19    1
     8    16    13    1
     9    21    19    2
    10    13    12    1
    11    13    14    2
    12    18    19    1
    13    15    14    1
    14    12    11    1
    15    14    10    1
    16    19    20    1
    17    11    10    1
    18    10     9    1
    19     9     7    1
    20     7     8    2
    21     7     5    1
    22     8     1    1
    23     6     5    1
    24     5     4    2
    25     1     2    2
    26     4     2    2
    27     2     3    1
