@<TRIPOS>MOLECULE
3m6l_R5P_A_1.pdb
 14 13 0 0 0
SMALL
GASTEIGER

@<TRIPOS>ATOM
      1  C1         1.3810   -2.2530  -46.7720 C.3   701  R5P701      0.2175
      2  O1         0.4470   -2.9390  -45.8730 O.3   701  R5P701     -0.2175
      3  C2         1.0080   -2.4600  -48.2480 C.3   701  R5P701      0.2175
      4  O2         1.4450   -3.7210  -48.7930 O.3   701  R5P701     -0.2175
      5  C3         1.2790   -1.3040  -49.2500 C.3   701  R5P701      0.2174
      6  O3        -0.0900   -0.9990  -49.4830 O.3   701  R5P701     -0.2175
      7  C4         1.7610   -1.5020  -50.7240 C.3   701  R5P701      0.2147
      8  O4         2.7500   -2.5500  -50.7770 O.3   701  R5P701     -0.2176
      9  C5         2.1820   -0.1750  -51.4680 C.3   701  R5P701      0.1892
     10  O5         2.0760   -0.1630  -52.9480 O.3   701  R5P701     -0.2674
     11  P          2.7040    1.0600  -53.8670 P.3   701  R5P701      0.5327
     12  O1P        4.1770    0.6900  -54.4550 O.3   701  R5P701     -0.1145
     13  O2P        2.7330    2.2770  -52.7950 O.3   701  R5P701     -0.1145
     14  O3P        1.8530    1.5480  -54.9970 O.2   701  R5P701     -0.2224
@<TRIPOS>BOND
     1    14    11    2
     2    12    11    1
     3    11    10    1
     4    11    13    1
     5    10     9    1
     6     9     7    1
     7     8     7    1
     8     7     5    1
     9     6     5    1
    10     5     3    1
    11     4     3    1
    12     3     1    1
    13     1     2    1
