@<TRIPOS>MOLECULE
3m6p_BB2_A_1.pdb
 27 27 0 0 0
SMALL
GASTEIGER

@<TRIPOS>ATOM
      1  C5        16.6930   11.4440   26.4200 C.3   194  BB2194      0.0603
      2  C3        16.2320   11.4980   27.8370 C.2   194  BB2194      0.0873
      3  O4        16.8700   10.8950   28.6730 O.2   194  BB2194     -0.5395
      4  N1        15.1070   12.1800   28.1040 N.am  194  BB2194     -0.2030
      5  O2        14.7060   12.1920   29.4080 O.3   194  BB2194     -0.4026
      6  C6        16.3060   10.0010   26.0410 C.3   194  BB2194      0.0845
      7  C12       16.9130    9.6400   24.7250 C.2   194  BB2194      0.2417
      8  O13       16.8880   10.4350   23.7850 O.2   194  BB2194     -0.2733
      9  C7        14.7340    9.9090   25.8150 C.3   194  BB2194      0.0095
     10  C8        14.2780    8.5110   25.2870 C.3   194  BB2194      0.0005
     11  C9        12.7890    8.4730   25.0830 C.3   194  BB2194      0.0000
     12  C10       12.3180    6.9530   25.0570 C.3   194  BB2194      0.0000
     13  C11       13.1440    6.0580   24.0800 C.3   194  BB2194      0.0000
     14  N14       17.4130    8.4370   24.6770 N.am  194  BB2194     -0.1978
     15  C15       17.9520    7.9160   23.4410 C.3   194  BB2194      0.1711
     16  C16       19.4650    7.6840   23.5130 C.3   194  BB2194      0.0289
     17  C18       20.1800    9.0590   23.6460 C.3   194  BB2194      0.0023
     18  C17       19.7830    6.8770   24.7190 C.3   194  BB2194      0.0023
     19  C19       17.1280    6.6430   23.0870 C.2   194  BB2194      0.2455
     20  O20       16.6840    5.9060   23.9880 O.2   194  BB2194     -0.2730
     21  N21       16.8840    6.3400   21.7840 N.am  194  BB2194     -0.2772
     22  C22       16.1200    5.1700   21.3430 C.3   194  BB2194      0.1083
     23  C23       17.3290    7.1430   20.6180 C.3   194  BB2194      0.0935
     24  C24       16.3290    6.7780   19.5230 C.3   194  BB2194      0.0233
     25  C25       15.9020    5.3640   19.8400 C.3   194  BB2194      0.0243
     26  C26       16.9330    3.8650   21.5450 C.3   194  BB2194      0.2017
     27  O27       15.9890    2.7900   21.3710 O.3   194  BB2194     -0.2186
@<TRIPOS>BOND
     1    24    25    1
     2    24    23    1
     3    25    22    1
     4    23    21    1
     5    22    26    1
     6    22    21    1
     7    27    26    1
     8    21    19   am
     9    19    15    1
    10    19    20    2
    11    15    16    1
    12    15    14    1
    13    16    17    1
    14    16    18    1
    15     8     7    2
    16    13    12    1
    17    14     7   am
    18     7     6    1
    19    12    11    1
    20    11    10    1
    21    10     9    1
    22     9     6    1
    23     6     1    1
    24     1     2    1
    25     2     4   am
    26     2     3    2
    27     4     5    1
