@<TRIPOS>MOLECULE
3m6q_BB2_A_1.pdb
 27 27 0 0 0
SMALL
GASTEIGER

@<TRIPOS>ATOM
      1  C5         2.7360  -16.8050  -28.3820 C.3   194  BB2194      0.0603
      2  C3         2.2210  -16.5830  -26.9590 C.2   194  BB2194      0.0873
      3  O4         2.8840  -17.0620  -26.0520 O.2   194  BB2194     -0.5395
      4  N1         1.0770  -15.9230  -26.7400 N.am  194  BB2194     -0.2030
      5  O2         0.8780  -15.8570  -25.4360 O.3   194  BB2194     -0.4026
      6  C6         2.2260  -18.1560  -28.8850 C.3   194  BB2194      0.0845
      7  C12        2.5760  -18.5130  -30.3640 C.2   194  BB2194      0.2417
      8  O13        2.4540  -17.7430  -31.3370 O.2   194  BB2194     -0.2733
      9  C7         0.6570  -18.1000  -28.8610 C.3   194  BB2194      0.0095
     10  C8         0.1280  -19.4400  -29.4200 C.3   194  BB2194      0.0005
     11  C9        -1.4010  -19.5800  -29.5090 C.3   194  BB2194      0.0000
     12  C10       -1.7540  -21.1040  -29.4050 C.3   194  BB2194      0.0000
     13  C11       -1.8550  -21.6740  -30.7910 C.3   194  BB2194      0.0000
     14  N14        2.9900  -19.7800  -30.4480 N.am  194  BB2194     -0.1978
     15  C15        3.2570  -20.4000  -31.6900 C.3   194  BB2194      0.1711
     16  C16        4.7310  -20.7700  -31.8880 C.3   194  BB2194      0.0289
     17  C18        5.3680  -19.6730  -32.8120 C.3   194  BB2194      0.0023
     18  C17        5.5540  -21.1290  -30.6270 C.3   194  BB2194      0.0023
     19  C19        2.3510  -21.6480  -31.7390 C.2   194  BB2194      0.2455
     20  O20        2.0620  -22.2310  -30.6660 O.2   194  BB2194     -0.2730
     21  N21        1.8660  -21.9790  -33.0050 N.am  194  BB2194     -0.2772
     22  C22        1.0360  -23.1240  -33.4230 C.3   194  BB2194      0.1083
     23  C23        2.2520  -21.1880  -34.2300 C.3   194  BB2194      0.0935
     24  C24        1.5270  -21.7400  -35.4530 C.3   194  BB2194      0.0233
     25  C25        1.0700  -23.1250  -34.9790 C.3   194  BB2194      0.0243
     26  C26        1.6820  -24.4580  -32.9330 C.3   194  BB2194      0.2017
     27  O27        1.1100  -25.6590  -33.5480 O.3   194  BB2194     -0.2186
@<TRIPOS>BOND
     1    24    25    1
     2    24    23    1
     3    25    22    1
     4    23    21    1
     5    27    26    1
     6    22    21    1
     7    22    26    1
     8    21    19   am
     9    17    16    1
    10    16    15    1
    11    16    18    1
    12    19    15    1
    13    19    20    2
    14    15    14    1
    15     8     7    2
    16    13    12    1
    17    14     7   am
    18     7     6    1
    19    11    10    1
    20    11    12    1
    21    10     9    1
    22     6     9    1
    23     6     1    1
    24     1     2    1
    25     2     4   am
    26     2     3    2
    27     4     5    1
