@<TRIPOS>MOLECULE
3m6r_BB2_A_1.pdb
 27 27 0 0 0
SMALL
GASTEIGER

@<TRIPOS>ATOM
      1  C5       -14.4930    6.5380  -30.9450 C.3   194  BB2194      0.0603
      2  C3       -13.0760    6.0100  -30.3690 C.2   194  BB2194      0.0873
      3  O4       -12.9100    5.0710  -31.1580 O.2   194  BB2194     -0.5395
      4  N1       -12.1660    6.2950  -29.4450 N.am  194  BB2194     -0.2030
      5  O2       -11.0260    5.5230  -29.2970 O.3   194  BB2194     -0.4026
      6  C6       -15.5390    5.7470  -30.0750 C.3   194  BB2194      0.0845
      7  C12      -16.8890    6.3080  -30.6430 C.2   194  BB2194      0.2417
      8  O13      -17.0380    7.5400  -30.7230 O.2   194  BB2194     -0.2733
      9  C7       -15.4020    6.1400  -28.5770 C.3   194  BB2194      0.0095
     10  C8       -16.4430    5.3020  -27.7910 C.3   194  BB2194      0.0005
     11  C9       -16.4480    5.5840  -26.3190 C.3   194  BB2194      0.0000
     12  C10      -17.3450    4.5260  -25.6810 C.3   194  BB2194      0.0000
     13  C11      -18.8040    4.9680  -25.7230 C.3   194  BB2194      0.0000
     14  N14      -17.7620    5.2940  -30.9740 N.am  194  BB2194     -0.1978
     15  C15      -19.1390    5.7910  -30.6900 C.3   194  BB2194      0.1711
     16  C16      -19.8890    5.6290  -32.0890 C.3   194  BB2194      0.0289
     17  C18      -19.6120    6.8170  -33.0460 C.3   194  BB2194      0.0023
     18  C17      -19.5010    4.2950  -32.8330 C.3   194  BB2194      0.0023
     19  C19      -19.9160    4.9540  -29.6240 C.2   194  BB2194      0.2455
     20  O20      -19.4120    3.9610  -29.1460 O.2   194  BB2194     -0.2730
     21  N21      -21.2540    5.7280  -29.3630 N.am  194  BB2194     -0.2772
     22  C22      -22.2220    5.2020  -28.3520 C.3   194  BB2194      0.1083
     23  C23      -21.8520    7.0110  -29.8960 C.3   194  BB2194      0.0935
     24  C24      -22.7320    7.5250  -28.7400 C.3   194  BB2194      0.0233
     25  C25      -23.3980    6.2000  -28.3140 C.3   194  BB2194      0.0243
     26  C26      -22.7530    3.8120  -28.7680 C.3   194  BB2194      0.2017
     27  O27      -23.6650    3.2990  -27.7990 O.3   194  BB2194     -0.2186
@<TRIPOS>BOND
     1    17    16    1
     2    18    16    1
     3    16    15    1
     4     3     2    2
     5    14    15    1
     6    14     7   am
     7     1     2    1
     8     1     6    1
     9     8     7    2
    10    15    19    1
    11     7     6    1
    12     2     4   am
    13     6     9    1
    14    23    21    1
    15    23    24    1
    16    19    21   am
    17    19    20    2
    18     4     5    1
    19    21    22    1
    20    26    22    1
    21    26    27    1
    22    24    25    1
    23     9    10    1
    24    22    25    1
    25    10    11    1
    26    11    12    1
    27    13    12    1
