@<TRIPOS>MOLECULE
3m79_HEM_A_1.pdb
 43 50 0 0 0
SMALL
GASTEIGER

@<TRIPOS>ATOM
      1  CHA       33.2190  -14.2700   58.2710 C.2   150  HEM150      0.0000
      2  CHB       32.8810  -13.6680   63.0650 C.2   150  HEM150      0.0000
      3  CHC       32.6000   -8.8780   62.4630 C.2   150  HEM150      0.0000
      4  CHD       32.6530   -9.4640   57.6480 C.2   150  HEM150      0.0000
      5  C1A       33.1650  -14.5110   59.6240 C.2   150  HEM150      0.0000
      6  C2A       33.2910  -15.8100   60.2450 C.2   150  HEM150      0.0000
      7  C3A       33.1970  -15.6610   61.5660 C.2   150  HEM150      0.0000
      8  C4A       33.0220  -14.2420   61.8250 C.2   150  HEM150      0.0000
      9  CMA       33.2770  -16.7930   62.6250 C.3   150  HEM150      0.0000
     10  CAA       33.4770  -17.1400   59.4880 C.3   150  HEM150      0.0000
     11  CBA       34.9490  -17.3760   59.1570 C.3   150  HEM150      0.0000
     12  CGA       34.9680  -18.6150   58.3080 C.2   150  HEM150      0.0000
     13  O1A       34.9230  -18.4570   57.0550 O.co2 150  HEM150      0.0000
     14  O2A       34.9990  -19.7420   58.8910 O.co2 150  HEM150      0.0000
     15  C1B       32.7890  -12.3150   63.3330 C.ar  150  HEM150      0.0000
     16  C2B       32.6690  -11.7160   64.6360 C.ar  150  HEM150      0.0000
     17  C3B       32.6050  -10.3910   64.4770 C.ar  150  HEM150      0.0000
     18  C4B       32.6560  -10.1190   63.0550 C.ar  150  HEM150      0.0000
     19  CMB       32.6410  -12.5160   65.9520 C.3   150  HEM150      0.0000
     20  CAB       32.4670   -9.2850   65.5560 C.2   150  HEM150      0.0000
     21  CBB       33.1380   -9.3110   66.7250 C.2   150  HEM150      0.0000
     22  C1C       32.5650   -8.6260   61.1110 C.2   150  HEM150      0.0000
     23  C2C       32.4770   -7.3130   60.5070 C.2   150  HEM150      0.0000
     24  C3C       32.5140   -7.4730   59.1750 C.2   150  HEM150      0.0000
     25  C4C       32.6050   -8.8920   58.9010 C.2   150  HEM150      0.0000
     26  CMC       32.3680   -5.9860   61.3010 C.3   150  HEM150      0.0000
     27  CAC       32.4410   -6.3750   58.0710 C.2   150  HEM150      0.0000
     28  CBC       32.5490   -5.0650   58.3700 C.2   150  HEM150      0.0000
     29  C1D       32.8160  -10.8010   57.3670 C.ar  150  HEM150      0.0000
     30  C2D       32.9080  -11.3700   56.0390 C.ar  150  HEM150      0.0000
     31  C3D       33.0790  -12.8690   56.2430 C.ar  150  HEM150      0.0000
     32  C4D       33.0890  -13.0480   57.6700 C.ar  150  HEM150      0.0000
     33  CMD       32.8410  -10.6150   54.6910 C.3   150  HEM150      0.0000
     34  CAD       33.2610  -13.9730   55.1780 C.3   150  HEM150      0.0000
     35  CBD       34.7790  -14.1520   55.0070 C.3   150  HEM150      0.0000
     36  CGD       35.1740  -14.9720   53.7980 C.2   150  HEM150      0.0000
     37  O1D       36.3920  -14.9450   53.4190 O.co2 150  HEM150      0.0000
     38  O2D       34.2810  -15.6520   53.2180 O.co2 150  HEM150      0.0000
     39  NA        32.9960  -13.5670   60.6110 N.2   150  HEM150      0.0000
     40  NB        32.7820  -11.3150   62.3970 N.ar  150  HEM150      0.0000
     41  NC        32.6480   -9.5720   60.0980 N.2   150  HEM150      0.0000
     42  ND        32.9300  -11.8090   58.3000 N.ar  150  HEM150      0.0000
     43 FE         32.8510  -11.5660   60.3460 Fe    150  HEM150      0.0000
@<TRIPOS>BOND
     1    38    36   ar
     2    37    36   ar
     3    36    35    1
     4    33    30    1
     5    35    34    1
     6    34    31    1
     7    30    31   ar
     8    30    29   ar
     9    31    32   ar
    10    13    12   ar
    11    29     4    2
    12    29    42   ar
    13     4    25    1
    14    32     1    2
    15    32    42   ar
    16    27    28    2
    17    27    24    1
    18     1     5    1
    19    42    43    1
    20    12    14   ar
    21    12    11    1
    22    25    24    1
    23    25    41    2
    24    11    10    1
    25    24    23    2
    26    10     6    1
    27     5     6    1
    28     5    39    2
    29    41    43    1
    30    41    22    1
    31     6     7    2
    32    43    39    1
    33    43    40    1
    34    23    22    1
    35    23    26    1
    36    39     8    1
    37    22     3    2
    38     7     8    1
    39     7     9    1
    40     8     2    2
    41    40    18   ar
    42    40    15   ar
    43     3    18    1
    44    18    17   ar
    45     2    15    1
    46    15    16   ar
    47    17    16   ar
    48    17    20    1
    49    16    19    1
    50    20    21    2
