@<TRIPOS>MOLECULE
3m7i_RP5_A_1.pdb
 14 14 0 0 0
SMALL
GASTEIGER

@<TRIPOS>ATOM
      1  C1'       -1.1030   -1.9010   48.6400 C.3   801  RP5801      0.3023
      2  O1'       -1.9870   -1.0560   49.3160 O.3   801  RP5801     -0.3237
      3  C2'       -0.7610   -3.0130   49.6150 C.3   801  RP5801      0.2433
      4  O2'       -1.4540   -4.1590   49.1870 O.3   801  RP5801     -0.2148
      5  C3'       -1.0880   -2.4680   50.9970 C.3   801  RP5801      0.2168
      6  O3'       -1.7130   -3.3820   51.8750 O.3   801  RP5801     -0.2175
      7  C4'       -2.0620   -1.3690   50.6800 C.3   801  RP5801      0.1809
      8  C5'       -1.6940   -0.1340   51.4420 C.3   801  RP5801      0.1859
      9  O5'       -2.1270   -0.3410   52.7790 O.3   801  RP5801     -0.2675
     10  P'        -2.6430    0.9680   53.4670 P.3   801  RP5801      0.5327
     11  O1X       -4.0120    0.8460   54.0690 O.3   801  RP5801     -0.1145
     12  O2X       -2.5080    2.0850   52.2850 O.2   801  RP5801     -0.2224
     13  O3X       -1.7550    1.3810   54.7540 O.3   801  RP5801     -0.1145
     14  O1         0.0890   -1.2020   48.3410 O.3   801  RP5801     -0.1869
@<TRIPOS>BOND
     1    14     1    1
     2     1     2    1
     3     1     3    1
     4     4     3    1
     5     2     7    1
     6     3     5    1
     7     7     5    1
     8     7     8    1
     9     5     6    1
    10     8     9    1
    11    12    10    2
    12     9    10    1
    13    10    11    1
    14    10    13    1
