@<TRIPOS>MOLECULE
3m7i_TPP_A_1.pdb
 26 27 0 0 0
SMALL
GASTEIGER

@<TRIPOS>ATOM
      1  N1'       -6.4850   -3.8200   42.3290 N.2   5001  TPP5001    -0.1861
      2  C2'       -5.5780   -3.7950   41.3650 C.1   5001  TPP5001     0.0663
      3  CM2       -5.9730   -3.8240   39.9050 C.3   5001  TPP5001     0.1291
      4  N3'       -4.2970   -3.6520   41.6870 N.2   5001  TPP5001    -0.3368
      5  C4'       -3.8690   -3.5430   42.9420 C.2   5001  TPP5001     0.2292
      6  N4'       -2.5590   -3.4070   43.1400 N.pl3 5001  TPP5001    -0.0925
      7  C5'       -4.8380   -3.6420   44.0340 C.2   5001  TPP5001     0.0654
      8  C6'       -6.1370   -3.7640   43.6230 C.2   5001  TPP5001     0.1115
      9  C7'       -4.4790   -3.5360   45.4930 C.3   5001  TPP5001     0.1237
     10  N3        -3.6860   -4.6730   45.8970 N.pl3 5001  TPP5001    -0.2970
     11  C2        -2.3650   -4.7060   46.0560 C.3   5001  TPP5001     0.1543
     12  S1        -1.7280   -6.3060   46.4170 S.3   5001  TPP5001    -0.0951
     13  C5        -3.3760   -6.8690   46.4760 C.2   5001  TPP5001     0.0164
     14  C4        -4.2830   -5.8590   46.1180 C.2   5001  TPP5001     0.0279
     15  CM4       -5.7570   -6.1700   46.0720 C.3   5001  TPP5001     0.0473
     16  C6        -3.8090   -8.2640   46.7950 C.3   5001  TPP5001     0.0661
     17  C7        -2.6390   -9.1460   46.9050 C.3   5001  TPP5001     0.1544
     18  O7        -3.1410  -10.4360   46.7520 O.3   5001  TPP5001    -0.3134
     19  PA        -2.0990  -11.4680   46.2360 P.3   5001  TPP5001     0.2230
     20  O1A       -1.8280  -11.3220   44.7820 O.2   5001  TPP5001    -0.5169
     21  O2A       -2.7030  -12.7710   46.6530 O.3   5001  TPP5001    -0.4370
     22  O3A       -0.7200  -11.0460   46.9480 O.3   5001  TPP5001    -0.2261
     23  PB        -0.1060  -11.7010   48.2870 P.3   5001  TPP5001     0.5373
     24  O1B        1.1190  -10.8840   48.5150 O.3   5001  TPP5001    -0.1143
     25  O2B       -0.0240  -13.2100   48.0410 O.2   5001  TPP5001    -0.2221
     26  O3B       -1.0730  -11.3690   49.3880 O.3   5001  TPP5001    -0.1143
@<TRIPOS>BOND
     1     3     2    1
     2     2     4    2
     3     2     1    2
     4     4     5    2
     5     1     8    1
     6     5     6    1
     7     5     7    1
     8     8     7    2
     9     7     9    1
    10    20    19    2
    11     9    10    1
    12    10    11    1
    13    10    14    1
    14    11    12    1
    15    15    14    1
    16    14    13    2
    17    19    21    1
    18    19    18    1
    19    19    22    1
    20    12    13    1
    21    13    16    1
    22    18    17    1
    23    16    17    1
    24    22    23    1
    25    25    23    2
    26    23    24    1
    27    23    26    1
