@<TRIPOS>MOLECULE
3m7j_MMA_A_1.pdb
 13 13 0 0 0
SMALL
GASTEIGER

@<TRIPOS>ATOM
      1  C1        50.6850   45.7070  -10.4260 C.3   277  MMA277      0.2695
      2  C2        49.7180   46.4540   -9.4300 C.3   277  MMA277      0.2406
      3  C3        50.2440   46.2240   -7.9660 C.3   277  MMA277      0.2198
      4  C4        50.4530   44.7160   -7.6780 C.3   277  MMA277      0.2144
      5  C5        51.2390   44.0320   -8.7810 C.3   277  MMA277      0.1835
      6  C6        51.5390   42.5330   -8.5170 C.3   277  MMA277      0.2142
      7  C7        52.6250   46.3670  -11.8580 C.3   277  MMA277      0.1769
      8  O1        52.0100   46.2630  -10.5680 O.3   277  MMA277     -0.3259
      9  O2        48.3540   46.1320   -9.6030 O.3   277  MMA277     -0.2149
     10  O3        49.5120   46.8820   -6.9670 O.3   277  MMA277     -0.2174
     11  O4        50.9470   44.4570   -6.3770 O.3   277  MMA277     -0.2176
     12  O5        50.6530   44.2980  -10.0610 O.3   277  MMA277     -0.3256
     13  O6        51.9960   41.7780   -9.6150 O.3   277  MMA277     -0.2176
@<TRIPOS>BOND
     1     7     8    1
     2     8     1    1
     3     1    12    1
     4     1     2    1
     5    12     5    1
     6    13     6    1
     7     9     2    1
     8     2     3    1
     9     5     6    1
    10     5     4    1
    11     3     4    1
    12     3    10    1
    13     4    11    1
