@<TRIPOS>MOLECULE
3m7r_VDX_A_1.pdb
 30 32 0 0 0
SMALL
GASTEIGER

@<TRIPOS>ATOM
      1  O2        16.6920   17.9360   34.4920 O.3   425  VDX425     -0.2227
      2  O3         4.1380   26.7470   34.8910 O.3   425  VDX425     -0.2257
      3  C1        13.8730   17.7990   35.5140 C.3   425  VDX425      0.1765
      4  C2        14.5730   16.7040   34.6640 C.3   425  VDX425      0.0707
      5  C3        15.6590   17.3310   33.6840 C.3   425  VDX425      0.1592
      6  C4        14.9930   18.4180   32.7480 C.3   425  VDX425      0.0591
      7  C5        14.2700   19.4930   33.5550 C.2   425  VDX425     -0.0213
      8  C6        14.4520   20.8850   33.4590 C.2   425  VDX425     -0.0051
      9  C7        13.8410   22.0640   34.1690 C.2   425  VDX425     -0.0088
     10  C8        13.5920   23.2450   33.6600 C.2   425  VDX425     -0.0446
     11  C9        13.9260   23.6500   32.1370 C.3   425  VDX425      0.0220
     12  C10       13.2690   18.8500   34.5460 C.2   425  VDX425      0.0039
     13  C11       12.6100   24.1240   31.2860 C.3   425  VDX425      0.0044
     14  C12       11.6820   25.1060   32.1620 C.3   425  VDX425      0.0006
     15  C13       11.3760   24.6400   33.7170 C.3   425  VDX425      0.0034
     16  C14       12.8100   24.3250   34.3790 C.3   425  VDX425      0.0183
     17  C15       12.3800   24.1250   35.9830 C.3   425  VDX425      0.0040
     18  C16       11.1440   25.0870   36.1240 C.3   425  VDX425      0.0003
     19  C17       10.9680   25.7350   34.7150 C.3   425  VDX425      0.0003
     20  C18       10.3890   23.2910   33.5490 C.3   425  VDX425      0.0003
     21  C19       11.9320   19.1690   34.5470 C.2   425  VDX425     -0.0024
     22  C20        9.5110   26.3190   34.3590 C.3   425  VDX425      0.0000
     23  C21        9.5150   27.7670   35.0340 C.3   425  VDX425      0.0000
     24  C22        8.2480   25.6550   35.0030 C.3   425  VDX425      0.0001
     25  C23        6.9620   25.8840   34.2000 C.3   425  VDX425      0.0025
     26  C24        5.8080   25.0780   34.5420 C.3   425  VDX425      0.0304
     27  C25        4.4130   25.5400   34.2290 C.3   425  VDX425      0.1268
     28  C26        4.2760   25.6810   32.7270 C.3   425  VDX425      0.0329
     29  C27        3.3450   24.4950   34.7100 C.3   425  VDX425      0.0329
     30  O1        12.8720   17.1940   36.4070 O.3   425  VDX425     -0.2182
@<TRIPOS>BOND
     1    13    11    1
     2    13    14    1
     3    11    10    1
     4    14    15    1
     5    28    27    1
     6     6     7    1
     7     6     5    1
     8     8     7    2
     9     8     9    1
    10    20    15    1
    11     7    12    1
    12    10     9    2
    13    10    16    1
    14     5     1    1
    15     5     4    1
    16    15    16    1
    17    15    19    1
    18    25    26    1
    19    25    24    1
    20    27    26    1
    21    27    29    1
    22    27     2    1
    23    22    19    1
    24    22    24    1
    25    22    23    1
    26    16    17    1
    27    12    21    2
    28    12     3    1
    29     4     3    1
    30    19    18    1
    31     3    30    1
    32    17    18    1
