@<TRIPOS>MOLECULE
3m7s_CBI_A_1.pdb
 23 24 0 0 0
SMALL
GASTEIGER

@<TRIPOS>ATOM
      1  C1         1.3740   11.2190   31.5180 C.3   274  CBI274      0.2695
      2  C2         0.0480   11.3450   30.8880 C.3   274  CBI274      0.2406
      3  C3        -0.7860   10.2370   31.3860 C.3   274  CBI274      0.2198
      4  C4        -0.1680    8.8620   30.9050 C.3   274  CBI274      0.2144
      5  C5         1.0220    8.8250   31.8910 C.3   274  CBI274      0.1835
      6  C6         1.3820    7.3480   32.0740 C.3   274  CBI274      0.2142
      7  O2        -0.6190   12.4860   31.3980 O.3   274  CBI274     -0.2149
      8  O3        -2.0610   10.3400   30.7310 O.3   274  CBI274     -0.2174
      9  O4        -0.9760    7.8170   31.0020 O.3   274  CBI274     -0.2176
     10  O5         1.9600    9.9300   31.1690 O.3   274  CBI274     -0.3256
     11  O6         0.9130    5.9930   31.9220 O.3   274  CBI274     -0.2176
     12  C1'        4.8830   15.1640   31.1580 C.3   274  CBI274      0.3023
     13  C2'        5.3460   13.7370   31.4720 C.3   274  CBI274      0.2433
     14  C3'        4.3890   12.7860   30.7930 C.3   274  CBI274      0.2168
     15  C4'        2.9850   13.0430   31.4340 C.3   274  CBI274      0.1804
     16  C5'        2.6030   14.4890   30.9900 C.3   274  CBI274      0.1804
     17  C6'        1.1940   15.0820   31.1330 C.3   274  CBI274      0.2141
     18  O1'        5.7570   16.1220   31.8190 O.3   274  CBI274     -0.1869
     19  O2'        6.6830   13.5730   30.9810 O.3   274  CBI274     -0.2148
     20  O3'        4.8210   11.4570   31.0710 O.3   274  CBI274     -0.2175
     21  O4'        2.0660   12.2410   30.8490 O.3   274  CBI274     -0.3257
     22  O5'        3.5230   15.3950   31.6200 O.3   274  CBI274     -0.3237
     23  O6'        0.5500   16.2650   31.1890 O.3   274  CBI274     -0.2176
@<TRIPOS>BOND
     1     8     3    1
     2    14    20    1
     3    14    15    1
     4    14    13    1
     5    21    15    1
     6    21     1    1
     7     2     3    1
     8     2     7    1
     9     2     1    1
    10     4     9    1
    11     4     3    1
    12     4     5    1
    13    19    13    1
    14    16    17    1
    15    16    15    1
    16    16    22    1
    17    17    23    1
    18    12    13    1
    19    12    22    1
    20    12    18    1
    21    10     1    1
    22    10     5    1
    23     5     6    1
    24    11     6    1
