@<TRIPOS>MOLECULE
3m7u_III_B_1.pdb
 34 34 0 0 0
SMALL
GASTEIGER

@<TRIPOS>ATOM
      1  N        -36.0330   -4.1150  -10.1480 N.3   2184  LEU2184    -0.1231
      2  CA       -36.1110   -5.4090   -9.4740 C.3   2184  LEU2184     0.1676
      3  C        -37.5120   -6.0000   -9.5830 C.2   2184  LEU2184     0.2402
      4  O        -38.4800   -5.3030   -9.8650 O.2   2184  LEU2184    -0.2735
      5  CB       -35.7260   -5.2760   -8.0050 C.3   2184  LEU2184     0.0284
      6  CG       -34.3130   -4.7790   -7.7380 C.3   2184  LEU2184     0.0019
      7  CD1      -34.0970   -4.7010   -6.2220 C.3   2184  LEU2184     0.0001
      8  CD2      -33.2720   -5.6880   -8.4100 C.3   2184  LEU2184     0.0001
      9  N        -37.6050   -7.2960   -9.3340 N.am  2185  GLN2185    -0.2972
     10  CA       -38.8380   -8.0340   -9.4910 C.3   2185  GLN2185     0.1493
     11  C        -39.4790   -8.2800   -8.1120 C.2   2185  GLN2185     0.2438
     12  O        -38.8580   -8.8910   -7.2390 O.2   2185  GLN2185    -0.2731
     13  CB       -38.4550   -9.3430  -10.1700 C.3   2185  GLN2185     0.0387
     14  CG       -39.5400  -10.3220  -10.4420 C.3   2185  GLN2185     0.0907
     15  CD       -38.9640  -11.5850  -11.0660 C.2   2185  GLN2185     0.2608
     16  OE1      -37.9890  -11.5280  -11.8330 O.2   2185  GLN2185    -0.2717
     17  NE2      -39.5370  -12.7320  -10.7180 N.am  2185  GLN2185    -0.0878
     18  H        -36.9470   -7.7800   -9.0650 H     2185  GLN2185     0.1499
     19  N        -40.7140   -7.7790   -7.8960 N.am  2186  PRO2186    -0.2716
     20  CA       -41.4220   -8.1310   -6.6590 C.3   2186  PRO2186     0.1536
     21  C        -41.6180   -9.6410   -6.5480 C.2   2186  PRO2186     0.2599
     22  O        -41.9380  -10.3060   -7.5400 O.2   2186  PRO2186    -0.2715
     23  CB       -42.7750   -7.4120   -6.8150 C.3   2186  PRO2186     0.0310
     24  CG       -42.4840   -6.2610   -7.7170 C.3   2186  PRO2186     0.0237
     25  CD       -41.4840   -6.8130   -8.7050 C.3   2186  PRO2186     0.0939
     26  N        -41.4120  -10.1730   -5.3500 N.am  2187  ILE2187    -0.1942
     27  CA       -41.4980  -11.6090   -5.1180 C.3   2187  ILE2187     0.1977
     28  C        -42.4410  -11.9080   -3.9540 C.2   2187  ILE2187     0.3842
     29  O        -42.5190  -13.0540   -3.4760 O.co2 2187  ILE2187    -0.2437
     30  CB       -40.0970  -12.2200   -4.8400 C.3   2187  ILE2187     0.0311
     31  CG1      -39.4510  -11.5680   -3.6070 C.3   2187  ILE2187     0.0023
     32  CG2      -39.2060  -12.1020   -6.0880 C.3   2187  ILE2187     0.0023
     33  CD1      -38.0250  -12.0010   -3.3500 C.3   2187  ILE2187     0.0001
     34  OXT      -43.1330  -10.9970   -3.4700 O.co2 2187  ILE2187    -0.2437
@<TRIPOS>BOND
     1    16    15    2
     2    15    17   am
     3    15    14    1
     4    14    13    1
     5    13    10    1
     6     1     2    1
     7     4     3    2
     8     3     2    1
     9     3     9   am
    10    10     9    1
    11    10    11    1
    12     2     5    1
    13     9    18    1
    14    25    19    1
    15    25    24    1
    16     8     6    1
    17    11    19   am
    18    11    12    2
    19     5     6    1
    20    19    20    1
    21     6     7    1
    22    24    23    1
    23    22    21    2
    24    23    20    1
    25    20    21    1
    26    21    26   am
    27    32    30    1
    28    26    27    1
    29    27    30    1
    30    27    28    1
    31    30    31    1
    32    28    29   ar
    33    28    34   ar
    34    31    33    1
