@<TRIPOS>MOLECULE
3m7w_DQA_A_1.pdb
 12 12 0 0 0
SMALL
GASTEIGER

@<TRIPOS>ATOM
      1  C1       -64.1170  -33.5170   23.8100 C.3   253  DQA253      0.2215
      2  C2       -65.3030  -33.4300   22.8520 C.3   253  DQA253      0.0771
      3  C3       -65.4680  -34.7610   22.1210 C.3   253  DQA253      0.1851
      4  O3       -66.6420  -34.7620   21.3150 O.3   253  DQA253     -0.2203
      5  C4       -64.2790  -34.9960   21.1910 C.3   253  DQA253      0.1823
      6  O4       -64.3680  -36.2930   20.5520 O.3   253  DQA253     -0.2204
      7  C5       -62.9490  -34.9080   21.9250 C.3   253  DQA253      0.0386
      8  C6       -62.8400  -33.8830   23.0650 C.3   253  DQA253      0.0444
      9  C        -63.8610  -32.2110   24.5320 C.2   253  DQA253      0.3917
     10  O1       -64.0270  -31.1450   23.9230 O.co2 253  DQA253     -0.2429
     11  O2       -63.4750  -32.2430   25.7320 O.co2 253  DQA253     -0.2429
     12  O6       -64.3960  -34.5170   24.8150 O.3   253  DQA253     -0.2140
@<TRIPOS>BOND
     1     6     5    1
     2     5     7    1
     3     5     3    1
     4     4     3    1
     5     7     8    1
     6     3     2    1
     7     2     1    1
     8     8     1    1
     9     1     9    1
    10     1    12    1
    11    10     9   ar
    12     9    11   ar
