@<TRIPOS>MOLECULE
3m84_AMP_A_1.pdb
 23 25 0 0 0
SMALL
GASTEIGER

@<TRIPOS>ATOM
      1  P         20.4470   48.2390   24.4790 P.3   354  AMP354      0.5327
      2  O1P       19.4500   49.0980   25.2250 O.3   354  AMP354     -0.1145
      3  O2P       19.9080   47.6390   23.2000 O.2   354  AMP354     -0.2224
      4  O3P       21.8200   48.8570   24.3580 O.3   354  AMP354     -0.1145
      5  O5'       20.6720   46.9890   25.4720 O.3   354  AMP354     -0.2675
      6  C5'       21.6130   47.0680   26.5390 C.3   354  AMP354      0.1860
      7  C4'       21.9290   45.7100   27.1180 C.3   354  AMP354      0.1823
      8  O4'       20.6880   44.9920   27.3690 O.3   354  AMP354     -0.3135
      9  C3'       22.7690   44.8020   26.2230 C.3   354  AMP354      0.2184
     10  O3'       23.6230   44.0020   27.0410 O.3   354  AMP354     -0.2174
     11  C2'       21.7280   43.9120   25.5510 C.3   354  AMP354      0.2570
     12  O2'       22.2270   42.6580   25.1320 O.3   354  AMP354     -0.2130
     13  C1'       20.6880   43.7670   26.6580 C.3   354  AMP354      0.3186
     14  N9        19.3180   43.5140   26.1940 N.pl3 354  AMP354     -0.1439
     15  C8        18.4740   44.4310   25.6750 C.3   354  AMP354      0.3377
     16  N7        17.2730   43.8730   25.3610 N.2   354  AMP354     -0.2095
     17  C5        17.3440   42.5700   25.6910 C.2   354  AMP354      0.2526
     18  C6        16.4350   41.4050   25.6210 C.2   354  AMP354      0.4393
     19  N6        15.1730   41.5310   25.1180 N.pl3 354  AMP354      0.2180
     20  N1        16.9120   40.2210   26.0720 N.2   354  AMP354      0.0021
     21  C2        18.1530   40.0590   26.5540 C.3   354  AMP354      0.5254
     22  N3        19.0320   41.0790   26.6450 N.2   354  AMP354     -0.0055
     23  C4        18.6910   42.3320   26.2370 C.2   354  AMP354      0.3518
@<TRIPOS>BOND
     1     3     1    2
     2     4     1    1
     3     1     2    1
     4     1     5    1
     5    19    18    1
     6    12    11    1
     7    16    15    1
     8    16    17    2
     9     5     6    1
    10    11     9    1
    11    11    13    1
    12    18    17    1
    13    18    20    2
    14    15    14    1
    15    17    23    1
    16    20    21    1
    17    14    23    1
    18    14    13    1
    19     9    10    1
    20     9     7    1
    21    23    22    2
    22     6     7    1
    23    21    22    1
    24    13     8    1
    25     7     8    1
