@<TRIPOS>MOLECULE
3m89_GSP_A_1.pdb
 32 34 0 0 0
SMALL
GASTEIGER

@<TRIPOS>ATOM
      1  PG       -18.2990  -22.9910  -20.8370 P.3   408  GSP408      0.4340
      2  O3B      -19.0790  -23.0480  -19.3760 O.3   408  GSP408     -0.2405
      3  S1G      -18.9740  -24.6010  -21.5030 S.3   408  GSP408      0.0416
      4  O2G      -18.7890  -21.6980  -21.3940 O.2   408  GSP408     -0.2423
      5  O3G      -16.8340  -23.2910  -20.7280 O.3   408  GSP408     -0.1305
      6  PB       -19.0160  -21.9530  -18.1140 P.3   408  GSP408      0.2262
      7  O1B      -18.1790  -20.9390  -18.7060 O.2   408  GSP408     -0.5168
      8  O2B      -20.3150  -21.4010  -17.6090 O.3   408  GSP408     -0.4369
      9  PA       -18.9770  -23.8550  -16.0120 P.3   408  GSP408      0.2189
     10  O1A      -20.0570  -23.2180  -15.2070 O.3   408  GSP408     -0.4371
     11  O2A      -19.1970  -25.0660  -16.8820 O.2   408  GSP408     -0.5170
     12  O3A      -18.3170  -22.7270  -16.8870 O.3   408  GSP408     -0.2701
     13  O5'      -17.7740  -24.2360  -14.9460 O.3   408  GSP408     -0.3112
     14  C5'      -16.4520  -23.5800  -14.8870 C.3   408  GSP408      0.1813
     15  C4'      -15.6960  -24.2420  -13.7520 C.3   408  GSP408      0.1799
     16  O4'      -16.6280  -24.6030  -12.6480 O.3   408  GSP408     -0.3326
     17  C3'      -14.9890  -25.5960  -14.1380 C.3   408  GSP408      0.2158
     18  O3'      -13.6270  -25.5400  -13.5980 O.3   408  GSP408     -0.2175
     19  C2'      -15.8500  -26.7430  -13.4630 C.3   408  GSP408      0.2310
     20  O2'      -15.0340  -27.8780  -13.0160 O.3   408  GSP408     -0.2158
     21  C1'      -16.6010  -26.0140  -12.2760 C.3   408  GSP408      0.2293
     22  N9       -18.0540  -26.3520  -12.0770 N.pl3 408  GSP408     -0.2354
     23  C8       -19.0880  -26.6970  -12.9460 C.3   408  GSP408      0.2246
     24  N7       -20.2530  -26.9380  -12.4070 N.2   408  GSP408     -0.2322
     25  C5       -19.9880  -26.7270  -11.0460 C.2   408  GSP408      0.2182
     26  C6       -20.9040  -26.8460   -9.8900 C.1   408  GSP408      0.2372
     27  O6       -22.0980  -27.1550  -10.0260 O.2   408  GSP408     -0.2069
     28  N1       -20.2120  -26.5410   -8.6590 N.2   408  GSP408     -0.2485
     29  C2       -18.8360  -26.1880   -8.5230 C.1   408  GSP408      0.2531
     30  N2       -18.3150  -25.9350   -7.3370 N.pl3 408  GSP408     -0.0226
     31  N3       -18.0020  -26.0930   -9.6130 N.2   408  GSP408     -0.3074
     32  C4       -18.6360  -26.3780  -10.8380 C.2   408  GSP408      0.2300
@<TRIPOS>BOND
     1     3     1    1
     2     4     1    2
     3     1     5    1
     4     1     2    1
     5     2     6    1
     6     7     6    2
     7     6     8    1
     8     6    12    1
     9    12     9    1
    10    11     9    2
    11     9    10    1
    12     9    13    1
    13    13    14    1
    14    14    15    1
    15    17    15    1
    16    17    18    1
    17    17    19    1
    18    15    16    1
    19    19    20    1
    20    19    21    1
    21    23    24    1
    22    23    22    1
    23    16    21    1
    24    24    25    2
    25    21    22    1
    26    22    32    1
    27    25    32    1
    28    25    26    1
    29    32    31    2
    30    27    26    2
    31    26    28    2
    32    31    29    2
    33    28    29    2
    34    29    30    1
