@<TRIPOS>MOLECULE
3m8b_MTN_A_1.pdb
 12 12 0 0 0
SMALL
GASTEIGER

@<TRIPOS>ATOM
      1  O1       -34.6100  -20.6270    7.4210 O.3   608  MTN608     -0.1175
      2  N1       -34.8940  -19.3300    7.5160 N.4   608  MTN608     -0.1311
      3  C1       -34.4820  -18.5620    8.7180 C.3   608  MTN608      0.0909
      4  C2       -35.3370  -17.2840    8.6820 C.2   608  MTN608     -0.0160
      5  C3       -35.9410  -17.3510    7.4800 C.2   608  MTN608     -0.0205
      6  C4       -37.0400  -16.5090    6.8340 C.3   608  MTN608      0.0917
      7  S1       -36.4700  -14.8410    6.4920 S.3   608  MTN608     -0.0773
      8  C5       -35.9020  -18.5900    6.7020 C.3   608  MTN608      0.0886
      9  C6       -37.3660  -19.6690    7.0450 C.3   608  MTN608      0.0227
     10  C7       -35.5210  -18.4830    5.1880 C.3   608  MTN608      0.0227
     11  C8       -35.0240  -19.5620    9.7900 C.3   608  MTN608      0.0230
     12  C9       -32.9470  -18.2250    9.0050 C.3   608  MTN608      0.0230
@<TRIPOS>BOND
     1    10     8    1
     2     7     6    1
     3     8     9    1
     4     8     5    1
     5     8     2    1
     6     6     5    1
     7     1     2    1
     8     5     4    2
     9     2     3    1
    10     4     3    1
    11     3    12    1
    12     3    11    1
