@<TRIPOS>MOLECULE
3m8b_C8E_A_1.pdb
 21 20 0 0 0
SMALL
GASTEIGER

@<TRIPOS>ATOM
      1  C1       -56.1170  -18.8130    2.7680 C.3   601  C8E601      0.0000
      2  C2       -56.1770  -17.7870    3.9060 C.3   601  C8E601      0.0000
      3  C3       -56.8880  -16.4930    3.5610 C.3   601  C8E601      0.0000
      4  C4       -57.5740  -15.8920    4.7560 C.3   601  C8E601      0.0000
      5  C5       -57.2600  -14.4500    5.0790 C.3   601  C8E601      0.0001
      6  C6       -58.4230  -13.5280    4.8380 C.3   601  C8E601      0.0026
      7  C7       -58.6040  -12.5630    5.9600 C.3   601  C8E601      0.0321
      8  C8       -58.5010  -11.1410    5.5550 C.3   601  C8E601      0.1423
      9  O9       -59.3120  -10.4250    6.4470 O.3   601  C8E601     -0.3511
     10  C10      -59.3340   -9.0860    6.0560 C.3   601  C8E601      0.1741
     11  C11      -60.1380   -8.3960    7.0930 C.3   601  C8E601      0.1742
     12  O12      -61.3840   -8.2910    6.5070 O.3   601  C8E601     -0.3484
     13  C13      -62.2730   -7.5990    7.3770 C.3   601  C8E601      0.1742
     14  C14      -63.5730   -8.3580    7.5810 C.3   601  C8E601      0.1742
     15  O15      -63.3440   -9.5590    8.3140 O.3   601  C8E601     -0.3484
     16  C16      -64.3940   -9.8030    9.2200 C.3   601  C8E601      0.1742
     17  C17      -64.9010  -11.2240    9.1340 C.3   601  C8E601      0.1742
     18  O18      -66.2040  -11.2330    8.6080 O.3   601  C8E601     -0.3483
     19  C19      -66.7960  -12.4870    8.8700 C.3   601  C8E601      0.1777
     20  C20      -68.2980  -12.4260    8.7270 C.3   601  C8E601      0.2140
     21  O21      -68.5670  -11.2760    7.9900 O.3   601  C8E601     -0.2176
@<TRIPOS>BOND
     1     1     2    1
     2     3     2    1
     3     3     4    1
     4     4     5    1
     5     6     5    1
     6     6     7    1
     7     8     7    1
     8     8     9    1
     9    10     9    1
    10    10    11    1
    11    12    11    1
    12    12    13    1
    13    13    14    1
    14    14    15    1
    15    21    20    1
    16    15    16    1
    17    18    19    1
    18    18    17    1
    19    20    19    1
    20    17    16    1
