@<TRIPOS>MOLECULE
3m8c_EQU_B_1.pdb
 20 23 0 0 0
SMALL
GASTEIGER

@<TRIPOS>ATOM
      1  C1        14.4610  -15.8940   50.4140 C.ar  130  EQU130      0.1957
      2  C2        15.5520  -15.2280   49.8380 C.ar  130  EQU130      0.0420
      3  C3        15.5570  -14.8980   48.4840 C.ar  130  EQU130      0.0029
      4  C4        14.3510  -15.2680   47.7220 C.ar  130  EQU130     -0.0041
      5  C5        13.2800  -15.9030   48.3210 C.ar  130  EQU130      0.0030
      6  C6        13.3400  -16.2380   49.6700 C.ar  130  EQU130      0.0420
      7  C10       16.6440  -14.2280   47.8810 C.ar  130  EQU130     -0.0002
      8  C11       16.5990  -13.8810   46.5350 C.ar  130  EQU130     -0.0046
      9  C12       15.4660  -14.2030   45.7460 C.ar  130  EQU130     -0.0260
     10  C13       14.2580  -14.9140   46.3050 C.ar  130  EQU130     -0.0261
     11  C16       15.4380  -13.8490   44.3110 C.3   130  EQU130      0.0290
     12  C17       13.9790  -13.5660   43.8960 C.3   130  EQU130      0.0556
     13  C18       13.0560  -14.7940   44.0670 C.3   130  EQU130      0.0119
     14  C19       12.9980  -15.3110   45.5250 C.3   130  EQU130      0.0265
     15  C24       16.2100  -12.5940   43.9030 C.3   130  EQU130      0.0125
     16  C25       15.5870  -12.3210   42.4910 C.3   130  EQU130      0.0648
     17  C26       14.2510  -13.0380   42.5050 C.2   130  EQU130      0.1502
     18  C27       13.3470  -12.3690   44.6230 C.3   130  EQU130      0.0077
     19  O1        14.4380  -16.1870   51.7260 O.3   130  EQU130     -0.2866
     20  O26       13.4590  -13.1770   41.5640 O.2   130  EQU130     -0.2961
@<TRIPOS>BOND
     1    20    17    2
     2    16    17    1
     3    16    15    1
     4    17    12    1
     5    12    13    1
     6    12    11    1
     7    12    18    1
     8    15    11    1
     9    13    14    1
    10    11     9    1
    11    14    10    1
    12     9    10   ar
    13     9     8   ar
    14    10     4   ar
    15     8     7   ar
    16     4     5   ar
    17     4     3   ar
    18     7     3   ar
    19     5     6   ar
    20     3     2   ar
    21     6     1   ar
    22     2     1   ar
    23     1    19    1
