@<TRIPOS>MOLECULE
3m8d_C8E_A_1.pdb
 21 20 0 0 0
SMALL
GASTEIGER

@<TRIPOS>ATOM
      1  C1        43.6120  -39.4920  -35.1180 C.3   702  C8E702      0.0000
      2  C2        42.8580  -39.9470  -33.8590 C.3   702  C8E702      0.0000
      3  C3        42.4310  -41.3980  -33.9140 C.3   702  C8E702      0.0000
      4  C4        41.4520  -41.7870  -32.8110 C.3   702  C8E702      0.0000
      5  C5        40.7050  -43.0490  -33.2350 C.3   702  C8E702      0.0001
      6  C6        40.0760  -43.7370  -32.0410 C.3   702  C8E702      0.0026
      7  C7        39.4310  -45.0710  -32.3970 C.3   702  C8E702      0.0321
      8  C8        38.2380  -45.2730  -31.4740 C.3   702  C8E702      0.1423
      9  O9        37.9490  -46.6320  -31.2950 O.3   702  C8E702     -0.3511
     10  C10       37.0090  -47.2100  -32.1370 C.3   702  C8E702      0.1741
     11  C11       36.6280  -48.6130  -31.6640 C.3   702  C8E702      0.1742
     12  O12       36.7770  -48.7140  -30.2730 O.3   702  C8E702     -0.3484
     13  C13       36.6220  -50.0660  -29.7690 C.3   702  C8E702      0.1742
     14  C14       37.8370  -51.0400  -29.8890 C.3   702  C8E702      0.1742
     15  O15       39.0330  -50.5320  -29.2490 O.3   702  C8E702     -0.3484
     16  C16       39.7220  -51.3100  -28.2730 C.3   702  C8E702      0.1742
     17  C17       41.2390  -51.0920  -28.3200 C.3   702  C8E702      0.1742
     18  O18       41.8350  -52.1120  -29.1260 O.3   702  C8E702     -0.3483
     19  C19       43.2540  -52.1860  -29.1270 C.3   702  C8E702      0.1777
     20  C20       43.7400  -53.5110  -28.5270 C.3   702  C8E702      0.2140
     21  O21       43.4960  -54.6220  -29.3700 O.3   702  C8E702     -0.2176
@<TRIPOS>BOND
     1     1     2    1
     2     3     2    1
     3     3     4    1
     4     5     4    1
     5     5     6    1
     6     7     6    1
     7     7     8    1
     8    10    11    1
     9    10     9    1
    10    11    12    1
    11     8     9    1
    12    12    13    1
    13    14    13    1
    14    14    15    1
    15    21    20    1
    16    15    16    1
    17    19    18    1
    18    19    20    1
    19    18    17    1
    20    17    16    1
