@<TRIPOS>MOLECULE
3m8d_MTN_A_1.pdb
 12 12 0 0 0
SMALL
GASTEIGER

@<TRIPOS>ATOM
      1  O1        34.7070  -20.8090  -28.8540 O.3   708  MTN708     -0.1175
      2  N1        33.5330  -21.6600  -29.0510 N.4   708  MTN708     -0.1311
      3  C1        32.3120  -21.6360  -28.2160 C.3   708  MTN708      0.0909
      4  C2        31.3960  -22.7360  -28.7550 C.2   708  MTN708     -0.0160
      5  C3        32.0110  -23.3390  -29.7670 C.2   708  MTN708     -0.0205
      6  C4        31.4930  -24.4660  -30.6310 C.3   708  MTN708      0.0917
      7  S1        29.7860  -24.0730  -31.1190 S.3   708  MTN708     -0.0773
      8  C5        33.3730  -22.7350  -30.0670 C.3   708  MTN708      0.0886
      9  C6        33.3050  -22.1410  -31.5020 C.3   708  MTN708      0.0227
     10  C7        34.4610  -23.8070  -29.8680 C.3   708  MTN708      0.0227
     11  C8        32.8110  -22.0290  -26.8380 C.3   708  MTN708      0.0230
     12  C9        31.5980  -20.2650  -28.2690 C.3   708  MTN708      0.0230
@<TRIPOS>BOND
     1     9     8    1
     2     7     6    1
     3     6     5    1
     4     8    10    1
     5     8     5    1
     6     8     2    1
     7     5     4    2
     8     2     1    1
     9     2     3    1
    10     4     3    1
    11    12     3    1
    12     3    11    1
