@<TRIPOS>MOLECULE
3m8m_HEM_A_1.pdb
 43 50 0 0 0
SMALL
GASTEIGER

@<TRIPOS>ATOM
      1  CHA       57.5320   23.9960   35.5310 C.2   396  HEM396      0.0000
      2  CHB       59.3670   19.5830   36.2540 C.2   396  HEM396      0.0000
      3  CHC       56.1560   18.8180   39.7110 C.2   396  HEM396      0.0000
      4  CHD       54.5520   23.3120   39.2550 C.2   396  HEM396      0.0000
      5  C1A       58.3500   22.8590   35.4390 C.ar  396  HEM396      0.0000
      6  C2A       59.4860   22.7390   34.5610 C.ar  396  HEM396      0.0000
      7  C3A       60.0260   21.5260   34.7710 C.ar  396  HEM396      0.0000
      8  C4A       59.2050   20.8640   35.7450 C.ar  396  HEM396      0.0000
      9  CMA       61.2430   20.8730   34.1410 C.3   396  HEM396      0.0000
     10  CAA       60.0380   23.8290   33.6660 C.3   396  HEM396      0.0000
     11  CBA       61.0530   24.7420   34.3360 C.3   396  HEM396      0.0000
     12  CGA       61.7740   25.5940   33.3110 C.2   396  HEM396      0.0000
     13  O1A       62.5610   25.0480   32.5200 O.co2 396  HEM396      0.0000
     14  O2A       61.5270   26.8260   33.2780 O.co2 396  HEM396      0.0000
     15  C1B       58.6280   18.9370   37.2090 C.2   396  HEM396      0.0000
     16  C2B       58.8360   17.5860   37.6770 C.2   396  HEM396      0.0000
     17  C3B       57.8540   17.3350   38.6080 C.2   396  HEM396      0.0000
     18  C4B       57.1140   18.5760   38.7780 C.2   396  HEM396      0.0000
     19  CMB       59.9360   16.6620   37.1880 C.3   396  HEM396      0.0000
     20  CAB       57.6120   16.1620   39.3290 C.2   396  HEM396      0.0000
     21  CBB       57.7970   14.8730   38.9310 C.2   396  HEM396      0.0000
     22  C1C       55.4810   20.0110   39.9620 C.ar  396  HEM396      0.0000
     23  C2C       54.5370   20.2170   41.0270 C.ar  396  HEM396      0.0000
     24  C3C       54.1510   21.5250   40.9770 C.ar  396  HEM396      0.0000
     25  C4C       54.8190   22.0800   39.8160 C.ar  396  HEM396      0.0000
     26  CMC       54.2730   19.2470   42.1210 C.3   396  HEM396      0.0000
     27  CAC       53.2970   22.2550   41.8600 C.2   396  HEM396      0.0000
     28  CBC       52.2250   21.7910   42.5650 C.2   396  HEM396      0.0000
     29  C1D       55.1110   23.8490   38.1070 C.2   396  HEM396      0.0000
     30  C2D       54.7990   25.1250   37.5280 C.2   396  HEM396      0.0000
     31  C3D       55.6380   25.3130   36.4820 C.2   396  HEM396      0.0000
     32  C4D       56.4820   24.1490   36.4090 C.2   396  HEM396      0.0000
     33  CMD       53.6380   26.0120   37.9490 C.3   396  HEM396      0.0000
     34  CAD       55.6840   26.4910   35.5360 C.3   396  HEM396      0.0000
     35  CBD       56.6640   27.5620   35.9030 C.3   396  HEM396      0.0000
     36  CGD       56.6330   28.7270   34.9350 C.2   396  HEM396      0.0000
     37  O1D       57.3390   29.6900   35.2430 O.co2 396  HEM396      0.0000
     38  O2D       55.8190   28.6850   33.9850 O.co2 396  HEM396      0.0000
     39  NA        58.1680   21.7050   36.1270 N.ar  396  HEM396      0.0000
     40  NB        57.5720   19.5330   37.8780 N.2   396  HEM396      0.0000
     41  NC        55.6070   21.1480   39.1930 N.ar  396  HEM396      0.0000
     42  ND        56.1300   23.2440   37.3970 N.2   396  HEM396      0.0000
     43 FE         56.7250   21.3190   37.5150 Fe    396  HEM396      0.0000
@<TRIPOS>BOND
     1    13    12   ar
     2    14    12   ar
     3    12    11    1
     4    10    11    1
     5    10     6    1
     6    38    36   ar
     7     9     7    1
     8     6     7   ar
     9     6     5   ar
    10     7     8   ar
    11    36    37   ar
    12    36    35    1
    13     5     1    2
    14     5    39   ar
    15     1    32    1
    16    34    35    1
    17    34    31    1
    18     8    39   ar
    19     8     2    2
    20    39    43    1
    21     2    15    1
    22    32    31    1
    23    32    42    2
    24    31    30    2
    25    19    16    1
    26    15    16    1
    27    15    40    2
    28    42    43    1
    29    42    29    1
    30    43    40    1
    31    43    41    1
    32    30    33    1
    33    30    29    1
    34    16    17    2
    35    40    18    1
    36    29     4    2
    37    17    18    1
    38    17    20    1
    39    18     3    2
    40    21    20    2
    41    41    25   ar
    42    41    22   ar
    43     4    25    1
    44     3    22    1
    45    25    24   ar
    46    22    23   ar
    47    24    23   ar
    48    24    27    1
    49    23    26    1
    50    27    28    2
