@<TRIPOS>MOLECULE
3m8m_MAN_A_1.pdb
 11 11 0 0 0
SMALL
GASTEIGER

@<TRIPOS>ATOM
      1  C1        43.7040   27.9330   15.6450 C.3   364  MAN364      0.1777
      2  C2        42.2960   27.5630   15.1940 C.3   364  MAN364      0.2141
      3  C3        42.2800   26.3430   14.2400 C.3   364  MAN364      0.2173
      4  C4        43.2620   26.5520   13.0840 C.3   364  MAN364      0.2142
      5  C5        44.6160   27.0260   13.5970 C.3   364  MAN364      0.1810
      6  C6        45.5150   27.5380   12.5070 C.3   364  MAN364      0.2141
      7  O2        41.6970   28.6380   14.4820 O.3   364  MAN364     -0.2176
      8  O3        40.9730   26.2180   13.7180 O.3   364  MAN364     -0.2175
      9  O4        43.3520   25.3650   12.3100 O.3   364  MAN364     -0.2176
     10  O5        44.5250   28.1380   14.4810 O.3   364  MAN364     -0.3481
     11  O6        46.8560   27.7970   12.8090 O.3   364  MAN364     -0.2176
@<TRIPOS>BOND
     1     9     4    1
     2     6    11    1
     3     6     5    1
     4     4     5    1
     5     4     3    1
     6     5    10    1
     7     8     3    1
     8     3     2    1
     9    10     1    1
    10     7     2    1
    11     2     1    1
