@<TRIPOS>MOLECULE
3m8p_65B_A_1.pdb
 28 30 0 0 0
SMALL
GASTEIGER

@<TRIPOS>ATOM
      1  C1        47.9040   63.5680   18.4550 C.ar  562  65B562      0.1399
      2  O17       47.2220   62.8850   17.4840 O.3   562  65B562     -0.4297
      3  C2        48.4750   62.9450   19.5340 C.ar  562  65B562      0.0131
      4  C2'       48.2670   61.4780   19.6200 C.3   562  65B562      0.0342
      5  C3        49.1690   63.6380   20.4660 C.ar  562  65B562      0.0090
      6  C4        49.3260   65.0450   20.2720 C.ar  562  65B562      0.0680
      7  C5        48.7950   65.7150   19.1790 C.ar  562  65B562      0.0090
      8  C6        48.0490   64.9330   18.2810 C.ar  562  65B562      0.0131
      9  C6'       47.3720   65.5150   17.0620 C.3   562  65B562      0.0342
     10  C13       47.9240   62.6310   16.3520 C.2   562  65B562      0.2879
     11  N12       49.1360   63.1130   16.0130 N.2   562  65B562     -0.2919
     12  C11       49.7040   62.7730   14.8630 C.1   562  65B562      0.2282
     13  N5        50.9760   63.2390   14.4950 N.pl3 562  65B562     -0.1253
     14  N16       49.0640   61.9550   14.0420 N.2   562  65B562     -0.3114
     15  C15       47.8750   61.4840   14.3090 C.2   562  65B562      0.2304
     16  N18       47.1780   60.6560   13.4450 N.pl3 562  65B562     -0.0955
     17  C14       47.2950   61.8310   15.4960 C.3   562  65B562      0.2171
     18  C21       51.6350   64.2330   15.1740 C.ar  562  65B562      0.0836
     19  C22       51.3040   64.5860   16.5010 C.ar  562  65B562      0.0181
     20  C23       52.0060   65.5850   17.1580 C.ar  562  65B562      0.0116
     21  C24       53.0340   66.2480   16.4800 C.ar  562  65B562      0.0685
     22  C25       53.3340   65.8760   15.1530 C.ar  562  65B562      0.0116
     23  C26       52.6570   64.8730   14.4880 C.ar  562  65B562      0.0181
     24  C27       53.8380   67.2970   17.0870 C.1   562  65B562      0.1004
     25  N27       54.5340   68.1430   17.4750 N.1   562  65B562     -0.1908
     26  C4'       50.0200   65.8690   21.2030 C.1   562  65B562      0.1004
     27  N4'       50.5830   66.5110   21.9770 N.1   562  65B562     -0.1908
     28 BR         45.6200   61.2370   16.0680 Br    562  65B562     -0.0612
@<TRIPOS>BOND
     1    16    15    1
     2    14    15    2
     3    14    12    2
     4    15    17    1
     5    23    22   ar
     6    23    18   ar
     7    13    12    1
     8    13    18    1
     9    12    11    2
    10    22    21   ar
    11    18    19   ar
    12    17    28    1
    13    17    10    1
    14    11    10    2
    15    10     2    1
    16    21    24    1
    17    21    20   ar
    18    19    20   ar
    19     9     8    1
    20    24    25    3
    21     2     1    1
    22     8     1   ar
    23     8     7   ar
    24     1     3   ar
    25     7     6   ar
    26     3     4    1
    27     3     5   ar
    28     6     5   ar
    29     6    26    1
    30    26    27    3
