@<TRIPOS>MOLECULE
3m8q_DJZ_A_1.pdb
 35 38 0 0 0
SMALL
GASTEIGER

@<TRIPOS>ATOM
      1  O1        47.0640   62.6010   17.1410 O.3   562  DJZ562     -0.4275
      2  C2        47.5350   62.2890   15.8800 C.2   562  DJZ562      0.2945
      3  N3        48.7320   62.8470   15.3710 N.2   562  DJZ562     -0.2988
      4  N4        48.5990   61.6920   13.2100 N.2   562  DJZ562     -0.1684
      5  C5        47.4070   61.1020   13.6790 C.2   562  DJZ562      0.1178
      6  C6        49.2650   62.5910   14.1000 C.1   562  DJZ562      0.1681
      7  C7        46.8480   61.3950   15.0290 C.2   562  DJZ562      0.0943
      8  C8        47.8630   63.3860   18.0110 C.ar  562  DJZ562      0.1402
      9  C9        47.9590   64.8070   17.7580 C.ar  562  DJZ562      0.0131
     10  C10       48.7900   65.6280   18.6130 C.ar  562  DJZ562      0.0090
     11  C11       49.4990   65.0310   19.7340 C.ar  562  DJZ562      0.0680
     12  C12       49.3860   63.5930   19.9980 C.ar  562  DJZ562      0.0090
     13  C13       48.5890   62.8170   19.1300 C.ar  562  DJZ562      0.0131
     14  C14       48.5800   61.3570   19.4720 C.3   562  DJZ562      0.0342
     15  C15       47.2110   65.5320   16.6070 C.3   562  DJZ562      0.0342
     16  C16       50.2820   65.9280   20.5330 C.1   562  DJZ562      0.1004
     17  N17       50.4310   63.2040   13.7160 N.pl3 562  DJZ562     -0.1637
     18  C18       51.3200   63.7750   14.6750 C.3   562  DJZ562      0.1074
     19  C19       52.7380   63.6800   14.1190 C.3   562  DJZ562      0.0398
     20  C20       53.5630   64.4980   15.0630 C.3   562  DJZ562      0.0742
     21  N21       53.1900   65.9110   15.0240 N.3   562  DJZ562     -0.2688
     22  C22       51.8770   66.0280   15.7000 C.3   562  DJZ562      0.0742
     23  C23       50.7880   65.2540   14.8930 C.3   562  DJZ562      0.0398
     24  N24       50.9040   66.6410   21.1680 N.1   562  DJZ562     -0.1908
     25  C25       54.2340   66.6740   15.7090 C.3   562  DJZ562      0.0991
     26  C26       54.0390   68.1930   15.5180 C.ar  562  DJZ562     -0.0061
     27  C27       54.5230   69.0390   16.5670 C.ar  562  DJZ562     -0.0016
     28  C28       54.3230   70.4360   16.3760 C.ar  562  DJZ562      0.0181
     29  C29       53.6670   71.0650   15.2100 C.ar  562  DJZ562      0.1057
     30  C30       53.1770   70.1840   14.1280 C.ar  562  DJZ562      0.0181
     31  C31       53.3660   68.7850   14.2870 C.ar  562  DJZ562     -0.0016
     32  S32       53.4770   72.9010   15.1240 S.O2  562  DJZ562      0.0104
     33  O33       54.2460   73.0980   13.9170 O.2   562  DJZ562     -0.1686
     34  O34       52.0440   73.1550   14.9050 O.2   562  DJZ562     -0.1686
     35  C35       54.4740   73.4980   16.5370 C.3   562  DJZ562      0.1816
@<TRIPOS>BOND
     1     4     5    1
     2     4     6    2
     3     5     7    2
     4    17     6    1
     5    17    18    1
     6    33    32    2
     7     6     3    2
     8    19    18    1
     9    19    20    1
    10    30    31   ar
    11    30    29   ar
    12    31    26   ar
    13    18    23    1
    14    23    22    1
    15    34    32    2
    16    21    20    1
    17    21    22    1
    18    21    25    1
    19     7     2    1
    20    32    29    1
    21    32    35    1
    22    29    28   ar
    23     3     2    2
    24    26    25    1
    25    26    27   ar
    26     2     1    1
    27    28    27   ar
    28    15     9    1
    29     1     8    1
    30     9     8   ar
    31     9    10   ar
    32     8    13   ar
    33    10    11   ar
    34    13    14    1
    35    13    12   ar
    36    11    12   ar
    37    11    16    1
    38    16    24    3
