@<TRIPOS>MOLECULE
3m8r_HXZ_A_1.pdb
 31 32 0 0 0
SMALL
GASTEIGER

@<TRIPOS>ATOM
      1  C1        19.0560  -21.2990  -11.6630 C.3   113  HXZ113      0.0324
      2  N1        19.1330  -19.2460   -7.2730 N.am  113  HXZ113     -0.1794
      3  O1        18.1250  -16.0070  -11.2790 O.3   113  HXZ113     -0.2700
      4  P1        19.6520  -16.3000  -11.5410 P.3   113  HXZ113      0.2189
      5  C2        18.7940  -19.6890   -5.9110 C.1   113  HXZ113      0.2844
      6  O2        18.3660  -20.8140   -5.7350 O.2   113  HXZ113     -0.1918
      7  P2        16.9610  -16.2470  -12.3230 P.3   113  HXZ113      0.2277
      8  C3        20.3530  -22.0200  -11.8570 C.3   113  HXZ113      0.0027
      9  N3        18.9660  -18.8140   -4.8300 N.2   113  HXZ113     -0.2455
     10  O3        16.3380  -14.8680  -12.7830 O.3   113  HXZ113     -0.2258
     11  P3        17.0280  -13.9870  -13.8900 P.3   113  HXZ113      0.5373
     12  C4        19.4590  -17.5400   -5.0320 C.1   113  HXZ113      0.2134
     13  O4        19.6130  -16.7930   -4.0770 O.2   113  HXZ113     -0.2088
     14  C5        19.7940  -17.1050   -6.3620 C.2   113  HXZ113      0.0891
     15  O5        17.6790  -12.7280  -13.2340 O.3   113  HXZ113     -0.1143
     16  C6        19.6130  -18.0120   -7.4790 C.2   113  HXZ113      0.0877
     17  O6        15.9380  -13.5280  -14.9090 O.2   113  HXZ113     -0.2221
     18  O7        18.1100  -14.7850  -14.5850 O.3   113  HXZ113     -0.1143
     19  O8        15.8370  -17.0450  -11.5860 O.3   113  HXZ113     -0.4368
     20  O9        17.4550  -17.0330  -13.5150 O.2   113  HXZ113     -0.5168
     21  C1'       18.9800  -20.1510   -8.4150 C.3   113  HXZ113      0.2089
     22  O10       20.0150  -16.2550  -13.0560 O.2   113  HXZ113     -0.5170
     23  O11       20.4760  -15.2400  -10.8440 O.3   113  HXZ113     -0.4371
     24  C2'       17.6080  -20.3040   -9.0270 C.3   113  HXZ113      0.0873
     25  C3'       17.7340  -19.6150  -10.3210 C.3   113  HXZ113      0.1833
     26  O3'       16.6730  -19.6060  -11.2110 O.3   113  HXZ113     -0.2204
     27  C4'       19.1110  -20.0350  -10.8200 C.3   113  HXZ113      0.1501
     28  O4'       19.9240  -20.3080   -9.5770 O.3   113  HXZ113     -0.3364
     29  C5'       19.7140  -18.8860  -11.6200 C.3   113  HXZ113      0.1786
     30  O5'       20.0310  -17.7150  -10.9350 O.3   113  HXZ113     -0.3113
     31  C5M       20.3290  -15.7140   -6.6140 C.3   113  HXZ113      0.0462
@<TRIPOS>BOND
     1    17    11    2
     2    18    11    1
     3    11    15    1
     4    11    10    1
     5    20     7    2
     6    22     4    2
     7    10     7    1
     8     7    19    1
     9     7     3    1
    10     8     1    1
    11     1    27    1
    12    29    30    1
    13    29    27    1
    14     4     3    1
    15     4    30    1
    16     4    23    1
    17    26    25    1
    18    27    25    1
    19    27    28    1
    20    25    24    1
    21    28    21    1
    22    24    21    1
    23    21     2    1
    24    16     2    1
    25    16    14    2
    26     2     5   am
    27    31    14    1
    28    14    12    1
    29     5     6    2
    30     5     9    2
    31    12     9    2
    32    12    13    2
