@<TRIPOS>MOLECULE
3m8s_HXB_A_1.pdb
 30 31 0 0 0
SMALL
GASTEIGER

@<TRIPOS>ATOM
      1  C1        19.1760  -21.3230  -11.6890 C.3   113  HXB113      0.0349
      2  N1        19.1540  -19.2830   -7.3410 N.am  113  HXB113     -0.1794
      3  O1        18.1530  -15.9420  -11.2270 O.3   113  HXB113     -0.2700
      4  P1        19.6540  -16.3050  -11.4920 P.3   113  HXB113      0.2189
      5  C2        18.8200  -19.7310   -5.9860 C.1   113  HXB113      0.2844
      6  O2        18.4130  -20.8830   -5.8010 O.2   113  HXB113     -0.1918
      7  P2        16.9990  -16.2620  -12.2260 P.3   113  HXB113      0.2277
      8  N3        19.0010  -18.8280   -4.8930 N.2   113  HXB113     -0.2455
      9  O3        16.3830  -14.9140  -12.7580 O.3   113  HXB113     -0.2258
     10  P3        17.1360  -13.9580  -13.7490 P.3   113  HXB113      0.5373
     11  C4        19.4780  -17.5500   -5.1150 C.1   113  HXB113      0.2134
     12  O4        19.6230  -16.7900   -4.1630 O.2   113  HXB113     -0.2088
     13  C5        19.7980  -17.1080   -6.4610 C.2   113  HXB113      0.0891
     14  O5        16.1230  -13.4210  -14.7280 O.2   113  HXB113     -0.2221
     15  C6        19.6180  -18.0210   -7.5710 C.2   113  HXB113      0.0877
     16  O6        18.2790  -14.7060  -14.5100 O.3   113  HXB113     -0.1143
     17  O7        17.7530  -12.7700  -12.9690 O.3   113  HXB113     -0.1143
     18  O8        15.9240  -17.0070  -11.4630 O.3   113  HXB113     -0.4368
     19  O9        17.4960  -17.1270  -13.4270 O.2   113  HXB113     -0.5168
     20  C1'       18.9290  -20.1890   -8.4640 C.3   113  HXB113      0.2089
     21  O10       19.9760  -16.2710  -12.9730 O.2   113  HXB113     -0.5170
     22  O11       20.5490  -15.2560  -10.7360 O.3   113  HXB113     -0.4371
     23  C2'       17.5680  -20.3680   -9.1360 C.3   113  HXB113      0.0873
     24  C3'       17.7420  -19.7210  -10.4440 C.3   113  HXB113      0.1833
     25  O3'       16.7160  -19.8470  -11.3740 O.3   113  HXB113     -0.2204
     26  C4'       19.1700  -20.0850  -10.8530 C.3   113  HXB113      0.1502
     27  O4'       19.9020  -20.3560   -9.5940 O.3   113  HXB113     -0.3364
     28  C5'       19.7920  -18.9290  -11.6090 C.3   113  HXB113      0.1786
     29  O5'       19.9560  -17.7350  -10.8940 O.3   113  HXB113     -0.3113
     30  C5M       20.3110  -15.7160   -6.7060 C.3   113  HXB113      0.0462
@<TRIPOS>BOND
     1    14    10    2
     2    16    10    1
     3    10    17    1
     4    10     9    1
     5    19     7    2
     6    21     4    2
     7     9     7    1
     8     7    18    1
     9     7     3    1
    10     1    26    1
    11    28    29    1
    12    28    26    1
    13     4     3    1
    14     4    29    1
    15     4    22    1
    16    25    24    1
    17    26    24    1
    18    26    27    1
    19    24    23    1
    20    27    20    1
    21    23    20    1
    22    20     2    1
    23    15     2    1
    24    15    13    2
    25     2     5   am
    26    30    13    1
    27    13    11    1
    28     5     6    2
    29     5     8    2
    30    11     8    2
    31    11    12    2
