@<TRIPOS>MOLECULE
3m8t_4NZ_A_1.pdb
 13 13 0 0 0
SMALL
GASTEIGER

@<TRIPOS>ATOM
      1  S          4.2250   10.3310   -1.0140 S.O2  295  4NZ295      0.0935
      2  C1         7.6950   12.2300    0.9780 C.ar  295  4NZ295      0.1430
      3  N1         4.3730    8.7370   -0.9140 N.3   295  4NZ295      0.0392
      4  O1         3.0160   10.9000   -0.4320 O.2   295  4NZ295     -0.1503
      5  C2         7.6560   10.8480    0.8330 C.ar  295  4NZ295      0.0254
      6  O2         4.4000   10.7520   -2.3790 O.2   295  4NZ295     -0.1503
      7  C3         6.5630   10.2560    0.1940 C.ar  295  4NZ295      0.0217
      8  C4         5.5060   11.0240   -0.2600 C.ar  295  4NZ295      0.1251
      9  C5         5.5590   12.4100   -0.1280 C.ar  295  4NZ295      0.0217
     10  C6         6.6580   13.0170    0.4760 C.ar  295  4NZ295      0.0254
     11  N7         8.7430   12.8720    1.6450 N.pl3 295  4NZ295      0.0577
     12  O12        9.5480   12.2200    2.2730 O.2   295  4NZ295     -0.1261
     13  O13        8.8030   14.1010    1.6200 O.2   295  4NZ295     -0.1261
@<TRIPOS>BOND
     1     6     1    2
     2     1     3    1
     3     1     4    2
     4     1     8    1
     5     8     9   ar
     6     8     7   ar
     7     9    10   ar
     8     7     5   ar
     9    10     2   ar
    10     5     2   ar
    11     2    11    1
    12    13    11    2
    13    11    12    2
