@<TRIPOS>MOLECULE
3m8z_HSX_A_1.pdb
 14 14 0 0 0
SMALL
GASTEIGER

@<TRIPOS>ATOM
      1  C1'       14.9860    8.9690    7.5450 C.3   401  HSX401      0.3023
      2  O1'       16.1420    8.1100    7.5100 O.3   401  HSX401     -0.3237
      3  C2'       15.3490   10.2070    6.7340 C.3   401  HSX401      0.2433
      4  O2'       14.5390   10.2050    5.5700 O.3   401  HSX401     -0.2148
      5  C3'       16.7930    9.9620    6.3340 C.3   401  HSX401      0.2168
      6  O3'       17.0170   10.4520    5.0210 O.3   401  HSX401     -0.2175
      7  C4'       16.8390    8.4460    6.3210 C.3   401  HSX401      0.1809
      8  C5'       18.2830    7.9720    6.4460 C.3   401  HSX401      0.1859
      9  O5'       18.7960    8.2740    7.7310 O.3   401  HSX401     -0.2675
     10  P'        19.8480    7.2910    8.4380 P.3   401  HSX401      0.5327
     11  O1X       20.9550    6.9240    7.5530 O.2   401  HSX401     -0.2224
     12  O2X       20.3020    8.0890    9.7550 O.3   401  HSX401     -0.1145
     13  O3X       19.0140    6.0350    8.9650 O.3   401  HSX401     -0.1145
     14  O1        13.8910    8.3490    6.8740 O.3   401  HSX401     -0.1869
@<TRIPOS>BOND
     1     6     5    1
     2     4     3    1
     3     7     5    1
     4     7     8    1
     5     7     2    1
     6     5     3    1
     7     8     9    1
     8     3     1    1
     9    14     1    1
    10     2     1    1
    11    11    10    2
    12     9    10    1
    13    10    13    1
    14    10    12    1
