@<TRIPOS>MOLECULE
3m93_M7G_A_1.pdb
 29 31 0 0 0
SMALL
GASTEIGER

@<TRIPOS>ATOM
      1  PA        -4.5780  -14.4720  -32.6400 P.3     1  M7G1        0.2231
      2  O1A       -3.1260  -14.4970  -32.2140 O.3     1  M7G1       -0.4370
      3  O2A       -5.3470  -15.7750  -32.6150 O.2     1  M7G1       -0.5169
      4  O3A       -5.4220  -13.3930  -31.7500 O.3     1  M7G1       -0.2261
      5  O5'       -4.5990  -13.8110  -34.1190 O.3     1  M7G1       -0.3111
      6  PB        -6.4150  -12.1940  -32.2600 P.3     1  M7G1        0.5373
      7  O1B       -5.8290  -11.3990  -33.4140 O.2     1  M7G1       -0.2221
      8  O2B       -6.7950  -11.4120  -31.0200 O.3     1  M7G1       -0.1143
      9  O3B       -7.7410  -12.9530  -32.7940 O.3     1  M7G1       -0.1143
     10  C5'       -5.3030  -14.3290  -35.2520 C.3     1  M7G1        0.1813
     11  C4'       -4.3810  -14.0990  -36.4420 C.3     1  M7G1        0.1799
     12  O4'       -3.2150  -14.8980  -36.2570 O.3     1  M7G1       -0.3326
     13  C3'       -4.9780  -14.5070  -37.7790 C.3     1  M7G1        0.2158
     14  O3'       -4.5540  -13.5540  -38.7700 O.3     1  M7G1       -0.2175
     15  C2'       -4.4120  -15.8910  -38.0680 C.3     1  M7G1        0.2310
     16  O2'       -4.0860  -16.0840  -39.4570 O.3     1  M7G1       -0.2158
     17  C1'       -3.1540  -15.9550  -37.2150 C.3     1  M7G1        0.2287
     18  N9        -2.9440  -17.2340  -36.4920 N.pl3   1  M7G1       -0.2454
     19  C8        -2.8620  -17.3680  -35.1570 C.3     1  M7G1        0.1735
     20  N7        -2.6380  -18.6520  -34.8390 N.3     1  M7G1       -0.2343
     21  CM7       -2.5010  -19.1760  -33.4550 C.3     1  M7G1        0.0924
     22  C5        -2.5700  -19.3150  -35.9970 C.3     1  M7G1        0.2475
     23  C6        -2.3520  -20.6690  -36.2300 C.1     1  M7G1        0.2145
     24  O6        -2.1850  -21.4820  -35.2930 O.2     1  M7G1       -0.2115
     25  N1        -2.3370  -21.0840  -37.5240 N.2     1  M7G1       -0.2526
     26  C2        -2.5230  -20.2080  -38.5460 C.1     1  M7G1        0.2525
     27  N2        -2.4970  -20.6590  -39.8160 N.pl3   1  M7G1       -0.0226
     28  N3        -2.7320  -18.8910  -38.3190 N.2     1  M7G1       -0.3118
     29  C4        -2.7580  -18.4330  -37.0440 C.2     1  M7G1        0.2086
@<TRIPOS>BOND
     1    27    26    1
     2    16    15    1
     3    14    13    1
     4    26    28    2
     5    26    25    2
     6    28    29    2
     7    15    13    1
     8    15    17    1
     9    13    11    1
    10    25    23    2
    11    17    18    1
    12    17    12    1
    13    29    18    1
    14    29    22    1
    15    18    19    1
    16    11    12    1
    17    11    10    1
    18    23    22    1
    19    23    24    2
    20    22    20    1
    21    10     5    1
    22    19    20    1
    23    20    21    1
    24     5     1    1
    25     7     6    2
    26     9     6    1
    27     1     3    2
    28     1     2    1
    29     1     4    1
    30     6     4    1
    31     6     8    1
