@<TRIPOS>MOLECULE
3m94_M7M_A_1.pdb
 31 33 0 0 0
SMALL
GASTEIGER

@<TRIPOS>ATOM
      1  OAX        7.8120   12.1920    3.4680 O.3     1  M7M1       -0.1143
      2  OAY        6.7100   11.6030    5.5970 O.3     1  M7M1       -0.1143
      3  PAZ        6.4400   12.2750    4.2970 P.3     1  M7M1        0.5373
      4  OBA        5.3300   11.7750    3.4370 O.2     1  M7M1       -0.2221
      5  OBB        1.9920   21.5080    0.0090 O.2     1  M7M1       -0.2115
      6  CBC        2.4060   19.7330    2.0700 C.3     1  M7M1        0.0924
      7  OBD        6.1800   13.8340    4.5650 O.3     1  M7M1       -0.2261
      8  NBE        2.1200   20.7570   -2.0930 N.2     1  M7M1       -0.2551
      9  CBF        2.1780   20.5710   -0.7800 C.1     1  M7M1        0.2144
     10  CBG        2.4670   19.3060   -0.3600 C.3     1  M7M1        0.2475
     11  NBH        2.5800   18.8990    0.8740 N.3     1  M7M1       -0.2343
     12  CBI        2.8650   17.6100    0.8220 C.3     1  M7M1        0.1735
     13  OBJ        3.7110   13.8640    4.9230 O.3     1  M7M1       -0.4370
     14  PBK        4.7980   14.5880    4.2600 P.3     1  M7M1        0.2231
     15  OBL        5.0210   16.0380    4.4770 O.2     1  M7M1       -0.5169
     16  CBM        2.3320   19.7370   -2.9210 C.1     1  M7M1        0.2141
     17  NBN        2.6140   18.4980   -2.5130 N.2     1  M7M1       -0.3141
     18  CBO        2.6830   18.2730   -1.2060 C.2     1  M7M1        0.2085
     19  NBP        2.9190   17.2320   -0.4460 N.pl3   1  M7M1       -0.2454
     20  CBQ        3.2110   15.8800   -0.9170 C.3     1  M7M1        0.2287
     21  OBR        3.4030   14.9900    0.1660 O.3     1  M7M1       -0.3326
     22  CBS        4.7730   14.7000    0.3820 C.3     1  M7M1        0.1799
     23  CBT        5.1740   15.1580    1.7660 C.3     1  M7M1        0.1813
     24  OBU        4.6320   14.2770    2.7170 O.3     1  M7M1       -0.3111
     25  NBV        2.2560   20.0130   -4.2110 N.pl3   1  M7M1       -0.2300
     26  CBW        2.4700   18.9710   -5.1780 C.3     1  M7M1        0.1254
     27  CBX        4.5170   15.9590   -1.6440 C.3     1  M7M1        0.2310
     28  CBY        5.5140   15.5770   -0.5850 C.3     1  M7M1        0.2158
     29  CBZ        1.9590   21.3650   -4.6170 C.3     1  M7M1        0.1254
     30  OCA        4.4550   14.9930   -2.6770 O.3     1  M7M1       -0.2158
     31  OCB        6.6240   14.8720   -1.1140 O.3     1  M7M1       -0.2175
@<TRIPOS>BOND
     1    26    25    1
     2    29    25    1
     3    25    16    1
     4    16    17    2
     5    16     8    2
     6    30    27    1
     7    17    18    2
     8     8     9    2
     9    27    20    1
    10    27    28    1
    11    18    19    1
    12    18    10    1
    13    31    28    1
    14    20    19    1
    15    20    21    1
    16     9    10    1
    17     9     5    2
    18    28    22    1
    19    19    12    1
    20    10    11    1
    21    21    22    1
    22    22    23    1
    23    12    11    1
    24    11     6    1
    25    23    24    1
    26    24    14    1
    27     4     3    2
    28     1     3    1
    29    14    15    2
    30    14     7    1
    31    14    13    1
    32     3     7    1
    33     3     2    1
