@<TRIPOS>MOLECULE
3m96_E38_A_1.pdb
 25 27 0 0 0
SMALL
GASTEIGER

@<TRIPOS>ATOM
      1  N1        -0.2710    4.6250   11.0300 N.2   265  E38265     -0.3323
      2  C2        -1.1940    3.7840   11.5270 C.1   265  E38265      0.1687
      3  N3        -1.8170    4.3030   12.6130 N.2   265  E38265     -0.3322
      4  C4        -1.2880    5.5040   12.7800 C.ar  265  E38265      0.1751
      5  C5        -0.3130    5.7000   11.8200 C.ar  265  E38265      0.1746
      6  C6         0.4660    6.8740   11.7480 C.ar  265  E38265      0.0362
      7  C7         0.2040    7.8520   12.7210 C.ar  265  E38265      0.0095
      8  C8        -0.8230    7.5760   13.6760 C.ar  265  E38265      0.0373
      9  C9        -1.6080    6.4480   13.7310 C.ar  265  E38265      0.0424
     10  S10       -1.6170    2.1790   10.8660 S.3   265  E38265     -0.0098
     11  C11       -3.0000    1.7600   12.0340 C.3   265  E38265      0.1432
     12  C12       -4.1650    2.7500   12.1140 C.2   265  E38265      0.1850
     13  O13       -4.6320    3.3460   11.0770 O.2   265  E38265     -0.2904
     14 BR14       -1.2970    8.7700   15.0770 Br    265  E38265     -0.0489
     15  C15       -4.7670    3.0550   13.5230 C.ar  265  E38265      0.0370
     16  C16       -5.0000    1.9870   14.4210 C.ar  265  E38265      0.0237
     17  C17       -5.5450    2.1980   15.6290 C.ar  265  E38265      0.1356
     18  C18       -5.9720    3.4660   16.0130 C.ar  265  E38265      0.0763
     19  C19       -5.7520    4.5410   15.1320 C.ar  265  E38265      0.0128
     20  C20       -5.1900    4.3260   13.9260 C.ar  265  E38265      0.0038
     21  S21       -5.8940    0.7730   16.6870 S.O2  265  E38265      0.0943
     22  O22       -7.3930    0.6870   16.6940 O.2   265  E38265     -0.1503
     23 CL23       -6.7030    3.7980   17.4640 Cl    265  E38265     -0.0809
     24  O24       -5.2650    1.0420   17.9690 O.2   265  E38265     -0.1503
     25  N25       -5.2850   -0.5600   16.0000 N.3   265  E38265      0.0392
@<TRIPOS>BOND
     1    10     2    1
     2    10    11    1
     3     1     2    2
     4     1     5    2
     5    13    12    2
     6     2     3    2
     7     6     5   ar
     8     6     7   ar
     9     5     4   ar
    10    11    12    1
    11    12    15    1
    12     3     4    2
    13     7     8   ar
    14     4     9   ar
    15    15    20   ar
    16    15    16   ar
    17     8     9   ar
    18     8    14    1
    19    20    19   ar
    20    16    17   ar
    21    19    18   ar
    22    17    18   ar
    23    17    21    1
    24    25    21    1
    25    18    23    1
    26    21    22    2
    27    21    24    2
