@<TRIPOS>MOLECULE
3m97_HEC_X_1.pdb
 43 50 0 0 0
SMALL
GASTEIGER

@<TRIPOS>ATOM
      1 FE         -5.5880   -1.8850   10.9820 Fe    141  HEC141      0.0000
      2  CHA       -8.0840   -3.5600    9.3090 C.2   141  HEC141      0.0000
      3  CHB       -4.7320   -4.8760   12.3070 C.2   141  HEC141      0.0000
      4  CHC       -2.9590   -0.3790   12.5360 C.2   141  HEC141      0.0000
      5  CHD       -6.6380    1.1740    9.9810 C.2   141  HEC141      0.0000
      6  NA        -6.1020   -3.5470   10.9530 N.2   141  HEC141      0.0000
      7  C1A       -7.2240   -4.1840   10.2130 C.2   141  HEC141      0.0000
      8  C2A       -7.4490   -5.6970   10.2310 C.2   141  HEC141      0.0000
      9  C3A       -6.5130   -6.1380   11.1040 C.2   141  HEC141      0.0000
     10  C4A       -5.7770   -4.9080   11.4960 C.2   141  HEC141      0.0000
     11  CMA       -6.2610   -7.5780   11.5120 C.3   141  HEC141      0.0000
     12  CAA       -8.6150   -6.4980    9.5700 C.3   141  HEC141      0.0000
     13  CBA       -9.7300   -6.5210   10.6550 C.3   141  HEC141      0.0000
     14  CGA      -10.9630   -7.3030   10.1940 C.2   141  HEC141      0.0000
     15  O1A      -11.0200   -7.8490    9.1230 O.co2 141  HEC141      0.0000
     16  O2A      -11.9470   -7.1610   11.0130 O.co2 141  HEC141      0.0000
     17  NB        -4.1060   -2.4860   12.1840 N.ar  141  HEC141      0.0000
     18  C1B       -3.9410   -3.7590   12.7070 C.ar  141  HEC141      0.0000
     19  C2B       -2.8430   -3.7520   13.6270 C.ar  141  HEC141      0.0000
     20  C3B       -2.3590   -2.5020   13.6530 C.ar  141  HEC141      0.0000
     21  C4B       -3.1200   -1.7610   12.7700 C.ar  141  HEC141      0.0000
     22  CMB       -2.5500   -5.0490   14.4960 C.3   141  HEC141      0.0000
     23  CAB       -1.1660   -2.0350   14.4880 C.3   141  HEC141      0.0000
     24  CBB        0.1030   -2.8550   14.2180 C.3   141  HEC141      0.0000
     25  NC        -5.1560   -0.2090   11.0840 N.2   141  HEC141      0.0000
     26  C1C       -3.9160    0.4250   11.7720 C.2   141  HEC141      0.0000
     27  C2C       -3.6430    1.9410   11.7320 C.2   141  HEC141      0.0000
     28  C3C       -4.6590    2.3540   11.0480 C.2   141  HEC141      0.0000
     29  C4C       -5.4650    1.2240   10.7330 C.2   141  HEC141      0.0000
     30  CMC       -2.4890    2.6230   12.3990 C.3   141  HEC141      0.0000
     31  CAC       -5.1790    3.6480   10.5540 C.3   141  HEC141      0.0000
     32  CBC       -4.2640    4.7960   10.1510 C.3   141  HEC141      0.0000
     33  ND        -7.1330   -1.2510    9.8200 N.ar  141  HEC141      0.0000
     34  C1D       -7.4130    0.0690    9.5380 C.ar  141  HEC141      0.0000
     35  C2D       -8.5040    0.0580    8.5570 C.ar  141  HEC141      0.0000
     36  C3D       -8.8310   -1.3160    8.3410 C.ar  141  HEC141      0.0000
     37  C4D       -8.0220   -2.1680    9.1830 C.ar  141  HEC141      0.0000
     38  CMD       -9.0450    1.3530    7.8960 C.3   141  HEC141      0.0000
     39  CAD       -9.9140   -1.7980    7.3450 C.3   141  HEC141      0.0000
     40  CBD       -9.0720   -2.0790    6.0900 C.3   141  HEC141      0.0000
     41  CGD       -9.8600   -2.4770    4.8450 C.2   141  HEC141      0.0000
     42  O1D      -11.1170   -2.5210    4.9490 O.co2 141  HEC141      0.0000
     43  O2D       -9.1790   -2.7390    3.7980 O.co2 141  HEC141      0.0000
@<TRIPOS>BOND
     1    43    41   ar
     2    41    42   ar
     3    41    40    1
     4    40    39    1
     5    39    36    1
     6    38    35    1
     7    36    35   ar
     8    36    37   ar
     9    35    34   ar
    10    15    14   ar
    11    37     2    2
    12    37    33   ar
    13     2     7    1
    14    34    33   ar
    15    34     5    2
    16    12     8    1
    17    12    13    1
    18    33     1    1
    19     5    29    1
    20    32    31    1
    21    14    13    1
    22    14    16   ar
    23     7     8    1
    24     7     6    2
    25     8     9    2
    26    31    28    1
    27    29    28    1
    28    29    25    2
    29     6     1    1
    30     6    10    1
    31     1    25    1
    32     1    17    1
    33    28    27    2
    34    25    26    1
    35     9    10    1
    36     9    11    1
    37    10     3    2
    38    27    26    1
    39    27    30    1
    40    26     4    2
    41    17    18   ar
    42    17    21   ar
    43     3    18    1
    44     4    21    1
    45    18    19   ar
    46    21    20   ar
    47    19    20   ar
    48    19    22    1
    49    20    23    1
    50    24    23    1
