@<TRIPOS>MOLECULE
3m98_E02_A_1.pdb
 23 25 0 0 0
SMALL
GASTEIGER

@<TRIPOS>ATOM
      1  N1        -2.8830    4.1650   10.2040 N.3   263  E02263     -0.2380
      2  C2        -3.1500    4.4890    8.8230 C.3   263  E02263      0.2014
      3  N3        -2.0180    4.4370    8.1440 N.2   263  E02263     -0.2549
      4  C4        -1.0070    4.0840    9.0940 C.2   263  E02263      0.0740
      5  C5        -1.5460    3.9340   10.3020 C.3   263  E02263      0.1221
      6  C6        -0.8170    3.5870   11.5070 C.2   263  E02263     -0.0044
      7  C7         0.4880    3.4150   11.3640 C.2   263  E02263     -0.0028
      8  C8         1.1220    3.5850   10.0020 C.2   263  E02263      0.0010
      9  C9         0.4190    3.9060    8.9000 C.2   263  E02263      0.0160
     10  C10       -3.7690    4.0690   11.4020 C.3   263  E02263      0.1443
     11  C11       -3.5730    2.9780   12.5190 C.2   263  E02263      0.1893
     12  O12       -2.9500    1.9040   12.3830 O.2   263  E02263     -0.2899
     13  C13       -4.3850    3.2270   13.8460 C.ar  263  E02263      0.0375
     14  C14       -4.7270    2.1030   14.6970 C.ar  263  E02263      0.0238
     15  C15       -5.4020    2.3030   15.8380 C.ar  263  E02263      0.1356
     16  C16       -5.9050    3.5950   16.1810 C.ar  263  E02263      0.0763
     17  C17       -5.6030    4.6620   15.4110 C.ar  263  E02263      0.0128
     18  C18       -4.8570    4.4670   14.2170 C.ar  263  E02263      0.0038
     19  S19       -5.8750    0.8320   16.8520 S.O2  263  E02263      0.0943
     20  O20       -5.2440    1.0380   18.2120 O.2   263  E02263     -0.1503
     21 CL21       -6.7690    3.8080   17.6330 Cl    263  E02263     -0.0809
     22  O22       -7.3790    0.7750   16.7840 O.2   263  E02263     -0.1503
     23  N23       -5.2220   -0.4760   16.1190 N.3   263  E02263      0.0392
@<TRIPOS>BOND
     1     3     2    1
     2     3     4    2
     3     2     1    1
     4     9     4    1
     5     9     8    2
     6     4     5    1
     7     8     7    1
     8     1     5    1
     9     1    10    1
    10     5     6    1
    11     7     6    2
    12    10    11    1
    13    12    11    2
    14    11    13    1
    15    13    18   ar
    16    13    14   ar
    17    18    17   ar
    18    14    15   ar
    19    17    16   ar
    20    15    16   ar
    21    15    19    1
    22    23    19    1
    23    16    21    1
    24    22    19    2
    25    19    20    2
