@<TRIPOS>MOLECULE
3m9f_595_A_1.pdb
 46 48 0 0 0
SMALL
GASTEIGER

@<TRIPOS>ATOM
      1  C        -13.7280   23.8690   -2.7340 C.ar  100  595100      0.0892
      2  N        -12.9780   24.4600   -1.7810 N.pl3 100  595100     -0.1281
      3  O        -17.9530   21.7060   -5.5680 O.2   100  595100     -0.1528
      4  S        -16.3170   21.8720   -6.0010 S.O2  100  595100      0.0633
      5  C1       -13.6140   24.1790   -4.0880 C.ar  100  595100      0.0194
      6  C2       -14.3950   23.5670   -5.0720 C.ar  100  595100      0.0213
      7  C3       -15.3670   22.6010   -4.7850 C.ar  100  595100      0.1223
      8  C4       -15.4890   22.2980   -3.4310 C.ar  100  595100      0.0213
      9  C5       -14.7000   22.9030   -2.4450 C.ar  100  595100      0.0194
     10  N6       -15.6970   20.3240   -6.3300 N.3   100  595100     -0.1543
     11  O7       -16.1120   22.7840   -7.4070 O.2   100  595100     -0.1528
     12  C8       -16.2970   19.1910   -5.5510 C.3   100  595100      0.1124
     13  C9       -16.9660   18.1000   -6.4050 C.3   100  595100      0.0205
     14  C10      -14.9460   20.1280   -7.6000 C.3   100  595100      0.0958
     15  C11      -13.4440   20.3240   -7.4430 C.3   100  595100      0.0191
     16  C12      -13.0000   21.6920   -7.9520 C.3   100  595100      0.0014
     17  C13      -13.4550   21.9340   -9.3960 C.3   100  595100      0.0000
     18  C14      -11.4720   21.7510   -7.9050 C.3   100  595100      0.0000
     19  C15      -18.2260   18.6580   -7.0930 C.3   100  595100      0.0033
     20  C16      -18.8900   17.7100   -8.1040 C.3   100  595100      0.0217
     21  C17      -19.4910   16.4720   -7.4360 C.3   100  595100      0.0954
     22  N18      -20.6910   16.8280   -6.6860 N.am  100  595100     -0.2057
     23  C19      -21.2030   16.1570   -5.6410 C.2   100  595100      0.2620
     24  C20      -22.5330   16.6210   -5.1110 C.3   100  595100      0.1841
     25  N21      -23.5800   15.6720   -5.4830 N.am  100  595100     -0.1604
     26  C22      -24.5860   15.7710   -6.3710 C.2   100  595100      0.4217
     27  O23      -25.3890   14.7020   -6.4900 O.3   100  595100     -0.4294
     28  C24      -26.5620   14.7750   -7.3370 C.3   100  595100      0.2574
     29  O25      -24.8640   16.7280   -7.0890 O.2   100  595100     -0.2245
     30  C26      -15.4730   18.6230   -4.3780 C.3   100  595100      0.1996
     31  O27      -14.0880   18.3200   -4.6190 O.3   100  595100     -0.2189
     32  O28      -20.6330   15.2210   -5.1020 O.2   100  595100     -0.2715
     33  C29      -23.6100   17.7300   -2.9820 C.ar  100  595100     -0.0163
     34  C30      -21.1340   17.8830   -3.3570 C.ar  100  595100     -0.0163
     35  C31      -20.0610   17.2570   -2.7250 C.ar  100  595100     -0.0039
     36  C32      -18.8950   17.9760   -2.4410 C.ar  100  595100     -0.0003
     37  C33      -18.7420   19.3210   -2.7690 C.ar  100  595100     -0.0000
     38  C34      -19.8060   19.9630   -3.4000 C.ar  100  595100     -0.0003
     39  C35      -20.9640   19.2340   -3.6660 C.ar  100  595100     -0.0039
     40  C36      -23.7220   17.5600   -1.5990 C.ar  100  595100     -0.0039
     41  C37      -24.7800   18.1120   -0.8850 C.ar  100  595100     -0.0003
     42  C38      -25.7570   18.8630   -1.5420 C.ar  100  595100     -0.0000
     43  C39      -25.6550   19.0510   -2.9170 C.ar  100  595100     -0.0003
     44  C40      -24.5870   18.4870   -3.6230 C.ar  100  595100     -0.0039
     45  C41      -19.9070   15.4960   -8.5470 C.3   100  595100      0.0234
     46  C42      -22.4080   17.1100   -3.6670 C.3   100  595100      0.0735
@<TRIPOS>BOND
     1    17    16    1
     2    45    21    1
     3    20    21    1
     4    20    19    1
     5    16    18    1
     6    16    15    1
     7    14    15    1
     8    14    10    1
     9    21    22    1
    10    11     4    2
    11    28    27    1
    12    19    13    1
    13    29    26    2
    14    22    23   am
    15    27    26    1
    16    13    12    1
    17    26    25   am
    18    10     4    1
    19    10    12    1
    20     4     3    2
    21     4     7    1
    22    23    24    1
    23    23    32    2
    24    12    30    1
    25    25    24    1
    26    24    46    1
    27     6     7   ar
    28     6     5   ar
    29     7     8   ar
    30    31    30    1
    31     5     1   ar
    32    46    34    1
    33    46    33    1
    34    39    38   ar
    35    39    34   ar
    36    44    33   ar
    37    44    43   ar
    38     8     9   ar
    39    38    37   ar
    40    34    35   ar
    41    33    40   ar
    42    43    42   ar
    43    37    36   ar
    44     1     9   ar
    45     1     2    1
    46    35    36   ar
    47    40    41   ar
    48    42    41   ar
