@<TRIPOS>MOLECULE
3m9i_3PE_A_1.pdb
 28 27 0 0 0
SMALL
GASTEIGER

@<TRIPOS>ATOM
      1  P          2.6910   -6.1030    7.1070 P.3   301  3PE301      0.2141
      2  N          0.0420   -2.4460    8.0970 N.3   301  3PE301     -0.1286
      3  O11        3.9160   -6.0740    8.1510 O.3   301  3PE301     -0.3100
      4  O12        3.2390   -5.8270    5.7280 O.2   301  3PE301     -0.5172
      5  O13        1.8100   -4.8350    7.5630 O.3   301  3PE301     -0.3125
      6  O14        1.8840   -7.3550    7.3610 O.3   301  3PE301     -0.4373
      7  C11        0.5560   -4.5640    6.9410 C.3   301  3PE301      0.1696
      8  C12       -0.3650   -3.8690    7.9360 C.3   301  3PE301      0.1417
      9  C1         5.0370   -6.9380    7.9760 C.3   301  3PE301      0.1964
     10  C2         6.2180   -6.4080    8.7790 C.3   301  3PE301      0.2420
     11  C3         7.2550   -5.8190    7.8300 C.3   301  3PE301      0.2543
     12  O31        7.5210   -4.4660    8.1960 O.3   301  3PE301     -0.4444
     13  O32        9.5210   -4.5680    7.4130 O.2   301  3PE301     -0.2501
     14  C31        8.8080   -4.0070    8.2280 C.2   301  3PE301      0.3171
     15  C32        9.2860   -2.9270    9.1690 C.3   301  3PE301      0.1096
     16  C33        9.7020   -3.5550   10.4940 C.3   301  3PE301      0.0116
     17  C34       10.5500   -2.5900   11.3140 C.3   301  3PE301      0.0006
     18  C35        9.8690   -2.2510   12.6340 C.3   301  3PE301      0.0000
     19  C36       10.6970   -2.7400   13.8170 C.3   301  3PE301      0.0000
     20  C37        9.8490   -2.8190   15.0810 C.3   301  3PE301      0.0000
     21  C38       10.3940   -3.8720   16.0380 C.3   301  3PE301      0.0000
     22  O21        5.7670   -5.3960    9.6770 O.3   301  3PE301     -0.4457
     23  O22        4.4630   -5.9230   11.4630 O.2   301  3PE301     -0.2501
     24  C21        5.5630   -5.8890   10.9360 C.2   301  3PE301      0.3171
     25  C22        6.8350   -6.3780   11.5870 C.3   301  3PE301      0.1096
     26  C23        7.1540   -5.5070   12.7960 C.3   301  3PE301      0.0116
     27  C24        6.8940   -6.2590   14.0950 C.3   301  3PE301      0.0006
     28  C25        8.2030   -6.6820   14.7530 C.3   301  3PE301      0.0000
@<TRIPOS>BOND
     1     4     1    2
     2     7     5    1
     3     7     8    1
     4     1     6    1
     5     1     5    1
     6     1     3    1
     7    13    14    2
     8    11    12    1
     9    11    10    1
    10     8     2    1
    11     9     3    1
    12     9    10    1
    13    12    14    1
    14    14    15    1
    15    10    22    1
    16    15    16    1
    17    22    24    1
    18    16    17    1
    19    24    23    2
    20    24    25    1
    21    17    18    1
    22    25    26    1
    23    18    19    1
    24    26    27    1
    25    19    20    1
    26    27    28    1
    27    20    21    1
