@<TRIPOS>MOLECULE
3m9m_CTP_B_1.pdb
 28 29 0 0 0
SMALL
GASTEIGER

@<TRIPOS>ATOM
      1  N1        19.3570  -12.3310   -9.7120 N.am  2001  CTP2001    -0.1802
      2  C2        17.9950  -12.5460  -10.0320 C.1   2001  CTP2001     0.2756
      3  N3        17.3450  -13.6610   -9.6170 N.2   2001  CTP2001    -0.3024
      4  C4        17.9820  -14.6420   -8.9150 C.2   2001  CTP2001     0.2346
      5  C5        19.3810  -14.5500   -8.5230 C.2   2001  CTP2001     0.0687
      6  C6        20.0130  -13.3560   -8.9780 C.2   2001  CTP2001     0.0835
      7  O2        17.2860  -11.6850  -10.6950 O.2   2001  CTP2001    -0.1925
      8  N4        17.2200  -15.6770   -8.5920 N.pl3 2001  CTP2001    -0.0921
      9  C1'       20.0080  -11.0700  -10.1980 C.3   2001  CTP2001     0.2090
     10  C2'       20.1190   -9.8970   -9.2330 C.3   2001  CTP2001     0.0874
     11  C3'       21.5880   -9.4880   -9.2760 C.3   2001  CTP2001     0.1857
     12  C4'       22.3350  -10.5050  -10.2090 C.3   2001  CTP2001     0.1773
     13  O4'       21.3120  -11.4350  -10.6310 O.3   2001  CTP2001    -0.3339
     14  O3'       21.8470   -8.2050   -9.8910 O.3   2001  CTP2001    -0.2203
     15  C5'       23.3660  -11.0270   -9.2540 C.3   2001  CTP2001     0.1812
     16  O5'       23.1980  -12.3680   -8.8360 O.3   2001  CTP2001    -0.3112
     17  PA        23.1790  -12.7220   -7.3150 P.3   2001  CTP2001     0.2189
     18  O1A       24.6710  -12.8310   -6.8720 O.3   2001  CTP2001    -0.4371
     19  O2A       22.4410  -14.0510   -7.2150 O.2   2001  CTP2001    -0.5170
     20  O3A       22.3230  -11.6480   -6.5600 O.3   2001  CTP2001    -0.2700
     21  PB        22.9810  -10.5640   -5.6470 P.3   2001  CTP2001     0.2277
     22  O1B       21.7740   -9.6710   -5.1880 O.3   2001  CTP2001    -0.4368
     23  O2B       24.0470   -9.7750   -6.4730 O.2   2001  CTP2001    -0.5168
     24  O3B       23.5370  -11.1910   -4.3150 O.3   2001  CTP2001    -0.2258
     25  PG        25.0320  -11.1410   -3.8290 P.3   2001  CTP2001     0.5373
     26  O1G       25.8280  -12.0030   -4.8460 O.2   2001  CTP2001    -0.2221
     27  O2G       25.0230  -11.8130   -2.4290 O.3   2001  CTP2001    -0.1143
     28  O3G       25.6390   -9.7160   -3.8220 O.3   2001  CTP2001    -0.1143
@<TRIPOS>BOND
     1     7     2    2
     2    13    12    1
     3    13     9    1
     4    12    11    1
     5    12    15    1
     6     9     1    1
     7     9    10    1
     8     2     1   am
     9     2     3    2
    10    14    11    1
    11     1     6    1
    12     3     4    2
    13    11    10    1
    14    15    16    1
    15     6     5    2
    16     4     8    1
    17     4     5    1
    18    16    17    1
    19    17    19    2
    20    17    18    1
    21    17    20    1
    22    20    21    1
    23    23    21    2
    24    21    22    1
    25    21    24    1
    26    26    25    2
    27    24    25    1
    28    25    28    1
    29    25    27    1
