@<TRIPOS>MOLECULE
3m9n_CTP_B_1.pdb
 28 29 0 0 0
SMALL
GASTEIGER

@<TRIPOS>ATOM
      1  N1       -18.9730   11.7520  -10.3550 N.am  2001  CTP2001    -0.1802
      2  C2       -17.6510   12.0230  -10.7540 C.1   2001  CTP2001     0.2756
      3  N3       -17.0630   13.2070  -10.4710 N.2   2001  CTP2001    -0.3024
      4  C4       -17.7170   14.1880   -9.7930 C.2   2001  CTP2001     0.2346
      5  C5       -19.0870   14.0430   -9.3310 C.2   2001  CTP2001     0.0687
      6  C6       -19.6580   12.7800   -9.6500 C.2   2001  CTP2001     0.0835
      7  O2       -16.9250   11.1680  -11.3950 O.2   2001  CTP2001    -0.1925
      8  N4       -17.0000   15.2970   -9.5820 N.pl3 2001  CTP2001    -0.0921
      9  C1'      -19.5330   10.4080  -10.6730 C.3   2001  CTP2001     0.2090
     10  C2'      -19.5360    9.4770   -9.4750 C.3   2001  CTP2001     0.0874
     11  C3'      -20.9860    9.1320   -9.2250 C.3   2001  CTP2001     0.1857
     12  C4'      -21.8610    9.7310  -10.4120 C.3   2001  CTP2001     0.1773
     13  O4'      -20.8840   10.5590  -11.1290 O.3   2001  CTP2001    -0.3339
     14  O3'      -21.2930    7.7190   -9.0620 O.3   2001  CTP2001    -0.2203
     15  C5'      -22.9340   10.3300   -9.5620 C.3   2001  CTP2001     0.1812
     16  O5'      -22.9790   11.7150   -9.3360 O.3   2001  CTP2001    -0.3112
     17  PA       -23.3030   12.0750   -7.8530 P.3   2001  CTP2001     0.2189
     18  O1A      -24.8320   12.0690   -7.7400 O.2   2001  CTP2001    -0.5170
     19  O2A      -22.6970   13.4670   -7.6030 O.3   2001  CTP2001    -0.4371
     20  O3A      -22.5590   10.9980   -6.9810 O.3   2001  CTP2001    -0.2700
     21  PB       -23.2490    9.9570   -6.0240 P.3   2001  CTP2001     0.2277
     22  O1B      -21.9910    9.1370   -5.5670 O.3   2001  CTP2001    -0.4368
     23  O2B      -24.2690    9.0190   -6.7470 O.2   2001  CTP2001    -0.5168
     24  O3B      -23.7890   10.6350   -4.7040 O.3   2001  CTP2001    -0.2258
     25  PG       -25.2020   10.4510   -3.9870 P.3   2001  CTP2001     0.5373
     26  O1G      -26.3650   10.7670   -4.9940 O.2   2001  CTP2001    -0.2221
     27  O2G      -25.1160   11.4550   -2.7980 O.3   2001  CTP2001    -0.1143
     28  O3G      -25.4110    9.0400   -3.4000 O.3   2001  CTP2001    -0.1143
@<TRIPOS>BOND
     1     7     2    2
     2    13     9    1
     3    13    12    1
     4     2     3    2
     5     2     1   am
     6     9     1    1
     7     9    10    1
     8     3     4    2
     9    12    15    1
    10    12    11    1
    11     1     6    1
    12     4     8    1
    13     4     5    1
    14     6     5    2
    15    15    16    1
    16    10    11    1
    17    16    17    1
    18    11    14    1
    19    17    18    2
    20    17    19    1
    21    17    20    1
    22    20    21    1
    23    23    21    2
    24    21    22    1
    25    21    24    1
    26    26    25    2
    27    24    25    1
    28    25    28    1
    29    25    27    1
