@<TRIPOS>MOLECULE
3m9o_ATP_B_1.pdb
 30 32 0 0 0
SMALL
GASTEIGER

@<TRIPOS>ATOM
      1  PG       -25.5620   10.9880   -4.6030 P.3   2001  ATP2001     0.5373
      2  O1G      -25.4720   12.4960   -4.0420 O.3   2001  ATP2001    -0.1143
      3  O2G      -25.8150    9.8510   -3.5270 O.3   2001  ATP2001    -0.1143
      4  O3G      -26.5970   10.9260   -5.7140 O.2   2001  ATP2001    -0.2221
      5  PB       -23.4130    9.9800   -6.4170 P.3   2001  ATP2001     0.2277
      6  O1B      -22.2230    9.1210   -6.0890 O.3   2001  ATP2001    -0.4368
      7  O2B      -24.5370    9.3540   -7.2610 O.2   2001  ATP2001    -0.5168
      8  O3B      -23.9730   10.7430   -5.1270 O.3   2001  ATP2001    -0.2258
      9  PA       -23.6260   12.3470   -8.1010 P.3   2001  ATP2001     0.2189
     10  O1A      -25.0510   12.0940   -8.0360 O.2   2001  ATP2001    -0.5170
     11  O2A      -23.0700   13.7110   -7.7520 O.3   2001  ATP2001    -0.4371
     12  O3A      -22.8180   11.2440   -7.2390 O.3   2001  ATP2001    -0.2700
     13  O5'      -23.1360   11.9800   -9.5470 O.3   2001  ATP2001    -0.3112
     14  C5'      -23.4800   10.7430  -10.1240 C.3   2001  ATP2001     0.1813
     15  C4'      -22.2840    9.8770  -10.5240 C.3   2001  ATP2001     0.1795
     16  O4'      -21.4460   10.5270  -11.4720 O.3   2001  ATP2001    -0.3155
     17  C3'      -21.3700    9.3650   -9.3840 C.3   2001  ATP2001     0.1883
     18  O3'      -21.5130    8.0290   -9.0390 O.3   2001  ATP2001    -0.2202
     19  C2'      -19.9690    9.6970   -9.7880 C.3   2001  ATP2001     0.1151
     20  C1'      -20.0470   10.4650  -11.1250 C.3   2001  ATP2001     0.2873
     21  N9       -19.4010   11.7690  -10.8050 N.pl3 2001  ATP2001    -0.1460
     22  C8       -19.9630   12.8130  -10.1530 C.3   2001  ATP2001     0.3377
     23  N7       -19.0760   13.7900   -9.9830 N.2   2001  ATP2001    -0.2095
     24  C5       -17.9070   13.4070  -10.5310 C.2   2001  ATP2001     0.2526
     25  C6       -16.5340   13.9720  -10.6560 C.2   2001  ATP2001     0.4393
     26  N6       -16.2340   15.2080  -10.1640 N.pl3 2001  ATP2001     0.2180
     27  N1       -15.5760   13.2080  -11.3080 N.2   2001  ATP2001     0.0021
     28  C2       -15.8390   11.9770  -11.7910 C.3   2001  ATP2001     0.5254
     29  N3       -17.0650   11.4200  -11.6960 N.2   2001  ATP2001    -0.0055
     30  C4       -18.1170   12.0710  -11.0560 C.2   2001  ATP2001     0.3518
@<TRIPOS>BOND
     1    28    29    1
     2    28    27    1
     3    29    30    2
     4    16    20    1
     5    16    15    1
     6    27    25    2
     7    20    21    1
     8    20    19    1
     9    30    21    1
    10    30    24    1
    11    21    22    1
    12    25    24    1
    13    25    26    1
    14    24    23    2
    15    15    14    1
    16    15    17    1
    17    22    23    1
    18    14    13    1
    19    19    17    1
    20    13     9    1
    21    17    18    1
    22     9    10    2
    23     9    11    1
    24     9    12    1
    25     7     5    2
    26    12     5    1
    27     5     6    1
    28     5     8    1
    29     4     1    2
    30     8     1    1
    31     1     2    1
    32     1     3    1
