@<TRIPOS>MOLECULE
3m9s_FMN_1_1.pdb
 31 33 0 0 0
SMALL
GASTEIGER

@<TRIPOS>ATOM
      1  N1        21.4590  -18.0340  110.2480 N.2   440  FMN440     -0.2887
      2  C2        22.1570  -18.4110  111.3380 C.1   440  FMN440      0.3669
      3  O2        21.5540  -18.5340  112.3850 O.2   440  FMN440     -0.1744
      4  N3        23.5010  -18.6310  111.2520 N.2   440  FMN440     -0.2300
      5  C4        24.1500  -18.4920  110.0540 C.1   440  FMN440      0.2513
      6  O4        25.3520  -18.7060  109.9740 O.2   440  FMN440     -0.2057
      7  C4A       23.4480  -18.1030  108.9380 C.2   440  FMN440      0.2703
      8  N5        24.0670  -17.9460  107.7150 N.2   440  FMN440     -0.3882
      9  C5A       23.3230  -17.5610  106.6270 C.2   440  FMN440      0.1277
     10  C6        23.9350  -17.4020  105.4000 C.3   440  FMN440      0.0820
     11  C7        23.1550  -17.0150  104.3260 C.2   440  FMN440     -0.0408
     12  C7M       23.8000  -16.8400  102.9920 C.3   440  FMN440      0.0265
     13  C8        21.7910  -16.7910  104.4760 C.2   440  FMN440     -0.0280
     14  C8M       20.9230  -16.3710  103.3390 C.3   440  FMN440      0.0304
     15  C9        21.1880  -16.9520  105.7050 C.2   440  FMN440      0.0123
     16  C9A       21.9680  -17.3440  106.7670 C.2   440  FMN440      0.0793
     17  N10       21.3750  -17.5070  107.9710 N.pl3 440  FMN440     -0.2545
     18  C10       22.0980  -17.8760  109.0560 C.2   440  FMN440      0.2449
     19  C1'       19.9360  -17.2370  108.1120 C.3   440  FMN440      0.1336
     20  C2'       19.2050  -18.5340  108.2910 C.3   440  FMN440      0.2048
     21  O2'       18.3590  -18.7330  107.1720 O.3   440  FMN440     -0.2185
     22  C3'       18.5070  -18.5200  109.6510 C.3   440  FMN440      0.2165
     23  O3'       19.5190  -18.8620  110.5770 O.3   440  FMN440     -0.2175
     24  C4'       17.2760  -19.4520  109.7090 C.3   440  FMN440      0.2147
     25  O4'       16.2630  -18.6450  109.1470 O.3   440  FMN440     -0.2176
     26  C5'       16.7470  -19.7890  111.1140 C.3   440  FMN440      0.1892
     27  O5'       15.3890  -19.3680  111.2560 O.3   440  FMN440     -0.2674
     28  P         14.8330  -18.1520  112.1850 P.3   440  FMN440      0.5327
     29  O1P       15.3290  -16.8220  111.6400 O.2   440  FMN440     -0.2224
     30  O2P       13.3270  -18.1530  112.2000 O.3   440  FMN440     -0.1145
     31  O3P       15.2970  -18.3160  113.6000 O.3   440  FMN440     -0.1145
@<TRIPOS>BOND
     1    12    11    1
     2    14    13    1
     3    11    13    2
     4    11    10    1
     5    13    15    1
     6    10     9    1
     7    15    16    2
     8     9    16    1
     9     9     8    2
    10    16    17    1
    11    21    20    1
    12     8     7    2
    13    17    19    1
    14    17    18    1
    15    19    20    1
    16    20    22    1
    17     7    18    1
    18     7     5    1
    19    18     1    2
    20    25    24    1
    21    22    24    1
    22    22    23    1
    23    24    26    1
    24     6     5    2
    25     5     4    2
    26     1     2    2
    27    26    27    1
    28     4     2    2
    29    27    28    1
    30     2     3    2
    31    29    28    2
    32    28    30    1
    33    28    31    1
