@<TRIPOS>MOLECULE
3m9v_TYD_A_1.pdb
 25 26 0 0 0
SMALL
GASTEIGER

@<TRIPOS>ATOM
      1  PA        19.7770   23.2830  -16.2620 P.3   901  TYD901      0.2231
      2  O1A       20.2690   23.0960  -17.6850 O.2   901  TYD901     -0.5169
      3  O2A       18.6010   22.4800  -15.7350 O.3   901  TYD901     -0.4370
      4  O3A       21.0150   23.1290  -15.2510 O.3   901  TYD901     -0.2261
      5  PB        22.3030   22.3310  -15.7890 P.3   901  TYD901      0.5373
      6  O1B       21.7090   21.1690  -16.5640 O.3   901  TYD901     -0.1143
      7  O2B       22.8910   21.9410  -14.4480 O.3   901  TYD901     -0.1143
      8  O3B       23.0400   23.3910  -16.5870 O.2   901  TYD901     -0.2221
      9  O5'       19.5460   24.8420  -15.9190 O.3   901  TYD901     -0.3111
     10  C5'       20.6040   25.7980  -15.8840 C.3   901  TYD901      0.1812
     11  C4'       19.7630   27.0430  -16.1310 C.3   901  TYD901      0.1773
     12  O4'       18.9530   27.3380  -15.0000 O.3   901  TYD901     -0.3339
     13  C3'       20.5590   28.2980  -16.4350 C.3   901  TYD901      0.1857
     14  O3'       20.1900   28.5420  -17.7940 O.3   901  TYD901     -0.2203
     15  C2'       19.8870   29.3860  -15.6120 C.3   901  TYD901      0.0874
     16  C1'       18.7050   28.7420  -14.8930 C.3   901  TYD901      0.2090
     17  N1        18.7040   29.1050  -13.4690 N.am  901  TYD901     -0.1794
     18  C2        17.6060   29.5910  -12.8930 C.1   901  TYD901      0.2844
     19  O2        16.5710   29.7520  -13.5830 O.2   901  TYD901     -0.1918
     20  N3        17.6320   29.9210  -11.5830 N.2   901  TYD901     -0.2455
     21  C4        18.7500   29.7510  -10.8390 C.1   901  TYD901      0.2134
     22  O4        18.7430   30.0620   -9.6290 O.2   901  TYD901     -0.2088
     23  C5        19.8980   29.2500  -11.4280 C.2   901  TYD901      0.0891
     24  C5M       21.1940   29.0360  -10.6920 C.3   901  TYD901      0.0462
     25  C6        19.8350   28.9260  -12.7760 C.2   901  TYD901      0.0877
@<TRIPOS>BOND
     1    14    13    1
     2     2     1    2
     3     8     5    2
     4     6     5    1
     5    13    11    1
     6    13    15    1
     7     1     9    1
     8     1     3    1
     9     1     4    1
    10    11    10    1
    11    11    12    1
    12     9    10    1
    13     5     4    1
    14     5     7    1
    15    15    16    1
    16    12    16    1
    17    16    17    1
    18    19    18    2
    19    17    18   am
    20    17    25    1
    21    18    20    2
    22    25    23    2
    23    20    21    2
    24    23    21    1
    25    23    24    1
    26    21    22    2
