@<TRIPOS>MOLECULE
3m9x_XYP_A_1.pdb
 10 10 0 0 0
SMALL
GASTEIGER

@<TRIPOS>ATOM
      1  O4A        4.7980   12.8650   22.4200 O.3   400  XYP400     -0.1869
      2  C1B        5.1770   12.5970   21.0900 C.3   400  XYP400      0.3024
      3  C2B        5.0370   13.9150   20.3870 C.3   400  XYP400      0.2434
      4  C3B        5.5290   13.7760   18.9350 C.3   400  XYP400      0.2199
      5  C4B        6.9760   13.2430   18.9240 C.3   400  XYP400      0.2143
      6  C5B        7.1520   12.0220   19.8040 C.3   400  XYP400      0.1804
      7  O2B        3.6660   14.3460   20.4700 O.3   400  XYP400     -0.2148
      8  O3B        5.3920   15.0730   18.3000 O.3   400  XYP400     -0.2174
      9  O4B        7.2900   12.6710   17.6490 O.3   400  XYP400     -0.2176
     10  O5B        6.5490   12.1980   21.0770 O.3   400  XYP400     -0.3237
@<TRIPOS>BOND
     1     9     5    1
     2     8     4    1
     3     5     4    1
     4     5     6    1
     5     4     3    1
     6     6    10    1
     7     3     7    1
     8     3     2    1
     9    10     2    1
    10     2     1    1
