@<TRIPOS>MOLECULE
3ma0_XYP_A_1.pdb
 10 10 0 0 0
SMALL
GASTEIGER

@<TRIPOS>ATOM
      1  O4A       63.4400  -50.1440   19.4330 O.3   400  XYP400     -0.1869
      2  C1B       62.3990  -49.5350   20.1600 C.3   400  XYP400      0.3024
      3  C2B       62.9430  -48.9880   21.4980 C.3   400  XYP400      0.2434
      4  C3B       61.7510  -48.5380   22.3120 C.3   400  XYP400      0.2199
      5  C4B       61.0320  -47.4320   21.5210 C.3   400  XYP400      0.2143
      6  C5B       60.7910  -47.8060   20.0250 C.3   400  XYP400      0.1804
      7  O2B       63.6850  -49.9750   22.1830 O.3   400  XYP400     -0.2148
      8  O3B       62.2320  -48.0580   23.5800 O.3   400  XYP400     -0.2174
      9  O4B       59.7560  -47.1690   22.1180 O.3   400  XYP400     -0.2176
     10  O5B       61.9300  -48.4190   19.3850 O.3   400  XYP400     -0.3237
@<TRIPOS>BOND
     1    10     6    1
     2    10     2    1
     3     1     2    1
     4     6     5    1
     5     2     3    1
     6     3     7    1
     7     3     4    1
     8     5     9    1
     9     5     4    1
    10     4     8    1
