@<TRIPOS>MOLECULE
3ma3_01I_A_1.pdb
 22 25 0 0 0
SMALL
GASTEIGER

@<TRIPOS>ATOM
      1  CAA      -21.8310   39.4900    0.7930 C.ar  313  01I313      0.0031
      2  CAB      -22.0270   39.4350   -0.5820 C.ar  313  01I313      0.0378
      3  CAC      -21.3520   38.5320   -1.3440 C.ar  313  01I313      0.1456
      4  CAD      -20.4410   37.6280   -0.8330 C.ar  313  01I313      0.0376
      5  CAE      -20.2320   37.6640    0.5230 C.ar  313  01I313      0.0061
      6  CAF      -20.9150   38.5890    1.3290 C.ar  313  01I313      0.0004
      7  CAG      -19.3340   36.8050    1.1370 C.ar  313  01I313      0.0379
      8  CAH      -19.1090   36.8610    2.4800 C.ar  313  01I313      0.1456
      9  CAI      -19.7900   37.7350    3.2900 C.ar  313  01I313      0.0375
     10  CAJ      -20.6840   38.6200    2.6980 C.ar  313  01I313      0.0031
     11  CAK      -22.8630   40.1630   -1.4960 C.ar  313  01I313      0.0474
     12  CAL      -22.6010   39.6310   -2.7600 C.ar  313  01I313      0.2246
     13  OAM      -21.7460   38.7000   -2.6930 O.2   313  01I313     -0.4468
     14  CAN      -18.4880   35.7740    0.6190 C.ar  313  01I313      0.0474
     15  CAO      -17.8210   35.2640    1.7430 C.ar  313  01I313      0.2246
     16  OAP      -18.1450   35.8740    2.8140 O.2   313  01I313     -0.4468
     17  CAQ      -16.8280   34.1810    1.9150 C.2   313  01I313      0.4216
     18  CAR      -23.1040   39.8960   -4.1450 C.2   313  01I313      0.4216
     19  OAS      -22.5000   39.3630   -5.1130 O.co2 313  01I313     -0.2371
     20  OAT      -16.2390   34.1050    3.0240 O.co2 313  01I313     -0.2371
     21  OAU      -16.6720   33.3860    0.9520 O.co2 313  01I313     -0.2371
     22  OAV      -24.0980   40.6420   -4.2990 O.co2 313  01I313     -0.2371
@<TRIPOS>BOND
     1    19    18   ar
     2    22    18   ar
     3    18    12    1
     4    12    13   ar
     5    12    11   ar
     6    13     3   ar
     7    11     2   ar
     8     3     4   ar
     9     3     2   ar
    10     4     5   ar
    11     2     1   ar
    12     5     7   ar
    13     5     6   ar
    14    14     7   ar
    15    14    15   ar
    16     1     6   ar
    17    21    17   ar
    18     7     8   ar
    19     6    10   ar
    20    15    17    1
    21    15    16   ar
    22    17    20   ar
    23     8    16   ar
    24     8     9   ar
    25    10     9   ar
