@<TRIPOS>MOLECULE
3ma6_DXR_A_1.pdb
 16 17 0 0 0
SMALL
GASTEIGER

@<TRIPOS>ATOM
      1  N1        -3.0080   22.9880   14.2960 N.2   299  DXR299     -0.0088
      2  C2        -1.7940   23.4940   14.0590 C.3   299  DXR299      0.5248
      3  N3        -0.8200   23.4360   14.9700 N.2   299  DXR299     -0.0027
      4  C4        -1.0410   22.8570   16.1710 C.2   299  DXR299      0.4078
      5  C5        -2.2990   22.3050   16.4350 C.3   299  DXR299      0.2598
      6  C6        -3.2810   22.3740   15.4670 C.2   299  DXR299      0.3400
      7  NAG       -0.0700   22.8200   17.0790 N.pl3 299  DXR299      0.2118
      8  CAH       -2.8950   21.6420   17.5020 C.2   299  DXR299      0.1003
      9  NAI       -4.1500   21.3620   17.1370 N.2   299  DXR299     -0.0958
     10  NAJ       -4.3640   21.7730   15.9850 N.pl3 299  DXR299     -0.0880
     11  CAK       -5.6780   21.5990   15.2530 C.3   299  DXR299      0.1509
     12  CAL       -5.4330   20.7020   14.0360 C.3   299  DXR299      0.0491
     13  CAM       -6.1970   22.9670   14.7950 C.3   299  DXR299      0.0491
     14  CAN       -6.7200   20.9370   16.1660 C.3   299  DXR299      0.0491
     15  CAO       -2.2650   21.3040   18.8560 C.3   299  DXR299      0.0462
     16  CAP       -2.3150   22.5390   19.7620 C.3   299  DXR299      0.0065
@<TRIPOS>BOND
     1    12    11    1
     2     2     1    1
     3     2     3    1
     4     1     6    2
     5    13    11    1
     6     3     4    2
     7    11    10    1
     8    11    14    1
     9     6    10    1
    10     6     5    1
    11    10     9    1
    12     4     5    1
    13     4     7    1
    14     5     8    1
    15     9     8    2
    16     8    15    1
    17    15    16    1
