@<TRIPOS>MOLECULE
3ma7_CD4_A_1.pdb
 46 45 0 0 0
SMALL
GASTEIGER

@<TRIPOS>ATOM
      1  C1       -13.8600    5.7550  -66.7170 C.3   2089  CD42089     0.0000
      2  C2       -13.5740    5.1520  -65.3340 C.3   2089  CD42089     0.0000
      3  C3       -14.6700    4.1850  -64.8650 C.3   2089  CD42089     0.0000
      4  C4       -14.0420    2.8650  -64.3700 C.3   2089  CD42089     0.0000
      5  C5       -14.6190    2.4140  -63.0090 C.3   2089  CD42089     0.0000
      6  C6       -13.5660    1.6540  -62.1900 C.3   2089  CD42089     0.0000
      7  C7       -13.7300    0.1440  -62.3240 C.3   2089  CD42089     0.0000
      8  C8       -12.7520   -0.6090  -61.3900 C.3   2089  CD42089     0.0000
      9  C9       -12.0690   -1.8110  -62.0810 C.3   2089  CD42089     0.0000
     10  C10      -13.0590   -2.9090  -62.5100 C.3   2089  CD42089     0.0000
     11  C11      -12.5550   -4.2990  -62.1380 C.3   2089  CD42089     0.0006
     12  C12      -11.5950   -4.8240  -63.2010 C.3   2089  CD42089     0.0116
     13  C13      -10.8410   -6.0480  -62.6940 C.3   2089  CD42089     0.1096
     14  C14      -10.7760   -7.1690  -63.7400 C.2   2089  CD42089     0.3171
     15  O1       -11.1310   -6.9990  -64.9060 O.2   2089  CD42089    -0.2501
     16  O2       -10.2340   -8.3640  -63.3950 O.3   2089  CD42089    -0.4457
     17  C15      -11.1370   -9.3710  -62.9720 C.3   2089  CD42089     0.2420
     18  C16      -10.8660   -9.5740  -61.4750 C.3   2089  CD42089     0.2543
     19  O3       -10.3320   -8.3460  -60.8880 O.3   2089  CD42089    -0.4444
     20  C17       -9.6480   -8.5330  -59.7230 C.2   2089  CD42089     0.3171
     21  O4        -8.5110   -9.0340  -59.7070 O.2   2089  CD42089    -0.2501
     22  C18      -10.3320   -8.0750  -58.4350 C.3   2089  CD42089     0.1096
     23  C19       -9.7550   -6.7380  -57.9760 C.3   2089  CD42089     0.0116
     24  C20      -10.8190   -5.6550  -57.7950 C.3   2089  CD42089     0.0006
     25  C21      -10.3570   -4.6940  -56.6860 C.3   2089  CD42089     0.0000
     26  C22      -10.6470   -3.2150  -57.0100 C.3   2089  CD42089     0.0000
     27  C23       -9.4290   -2.3470  -56.6710 C.3   2089  CD42089     0.0000
     28  C24       -9.7470   -1.2680  -55.6330 C.3   2089  CD42089     0.0000
     29  C25       -8.4460   -0.6650  -55.1030 C.3   2089  CD42089     0.0000
     30  C26       -8.3490    0.7950  -55.5180 C.3   2089  CD42089     0.0000
     31  C27       -7.3750    1.5320  -54.6150 C.3   2089  CD42089     0.0000
     32  C28      -10.7950  -10.6110  -63.7930 C.3   2089  CD42089     0.1964
     33  O5       -11.8990  -11.0030  -64.6170 O.3   2089  CD42089    -0.3100
     34  P1       -12.7460  -12.3320  -64.2330 P.3   2089  CD42089     0.2142
     35  O6       -11.7930  -13.4590  -64.0640 O.2   2089  CD42089    -0.5172
     36  O7       -13.6840  -11.9790  -63.1340 O.3   2089  CD42089    -0.4373
     37  O8       -13.6310  -12.6660  -65.6010 O.3   2089  CD42089    -0.3113
     38  C29      -15.0370  -12.3160  -65.7060 C.3   2089  CD42089     0.1845
     39  C30      -15.9840  -13.4860  -66.0810 C.3   2089  CD42089     0.2118
     40  O9       -15.6330  -14.0460  -67.3560 O.3   2089  CD42089    -0.2177
     41  C31      -15.9950  -14.5940  -65.0130 C.3   2089  CD42089     0.1891
     42  O10      -15.5220  -14.1240  -63.7480 O.3   2089  CD42089    -0.2674
     43  P2       -14.9130  -15.1790  -62.6960 P.3   2089  CD42089     0.5327
     44  O11      -14.1680  -14.3810  -61.5060 O.3   2089  CD42089    -0.1145
     45  O12      -16.2390  -15.7570  -61.9870 O.3   2089  CD42089    -0.1145
     46  O13      -14.0550  -16.1990  -63.3480 O.2   2089  CD42089    -0.2224
@<TRIPOS>BOND
     1    40    39    1
     2     1     2    1
     3    39    38    1
     4    39    41    1
     5    38    37    1
     6    37    34    1
     7     2     3    1
     8    41    42    1
     9    15    14    2
    10     3     4    1
    11    33    34    1
    12    33    32    1
    13     4     5    1
    14    34    35    2
    15    34    36    1
    16    32    17    1
    17    42    43    1
    18    14    16    1
    19    14    13    1
    20    16    17    1
    21    46    43    2
    22    12    13    1
    23    12    11    1
    24     5     6    1
    25    17    18    1
    26    43    45    1
    27    43    44    1
    28    10    11    1
    29    10     9    1
    30     7     6    1
    31     7     8    1
    32     9     8    1
    33    18    19    1
    34    19    20    1
    35    20    21    2
    36    20    22    1
    37    22    23    1
    38    23    24    1
    39    24    25    1
    40    26    25    1
    41    26    27    1
    42    27    28    1
    43    28    29    1
    44    30    29    1
    45    30    31    1
