@<TRIPOS>MOLECULE
3maa_FKP_A_1.pdb
 39 42 0 0 0
SMALL
GASTEIGER

@<TRIPOS>ATOM
      1  C1        16.6170   12.1860   16.9700 C.3   101  FKP101      0.1547
      2  O2        16.8550   13.3270   16.1520 O.3   101  FKP101     -0.2231
      3  C2        15.7550   12.6250   18.1420 C.3   101  FKP101      0.0330
      4  C3        14.3850   13.0720   17.6550 C.3   101  FKP101      0.0027
      5  C4        13.6800   12.0770   16.7340 C.3   101  FKP101      0.0027
      6  C5        14.5970   11.5180   15.6360 C.3   101  FKP101      0.0393
      7  C6        13.9290   10.5160   14.6640 C.3   101  FKP101      0.1943
      8  O3        13.5220    9.3120   15.3150 O.3   101  FKP101     -0.2192
      9  C7        14.8340   10.1780   13.4720 C.3   101  FKP101      0.2260
     10  O4        14.3000    9.1030   12.7120 O.3   101  FKP101     -0.4470
     11  C8        16.2660    9.8380   13.8780 C.3   101  FKP101      0.1639
     12  O1        17.0530    9.8890   12.7030 O.3   101  FKP101     -0.3524
     13  C9        16.8280   10.8790   14.8550 C.3   101  FKP101      0.2051
     14  O6        16.7970   12.1150   14.1340 O.3   101  FKP101     -0.2155
     15  C10       15.9910   11.0850   16.1220 C.3   101  FKP101      0.0652
     16  C11       18.2890   10.5850   15.1000 C.2   101  FKP101      0.1831
     17  O7        18.7650   10.4770   16.2250 O.2   101  FKP101     -0.2933
     18  C12       19.1820   10.4440   13.8880 C.3   101  FKP101      0.0985
     19  C13       18.4800    9.8280   12.6780 C.3   101  FKP101      0.1183
     20  C14       18.8760   10.6040   11.4630 C.2   101  FKP101      0.0006
     21  C15       17.9260   11.2500   10.8260 C.2   101  FKP101     -0.0025
     22  C16       18.9470    8.3960   12.4800 C.3   101  FKP101      0.0346
     23  C17       16.3580    8.3980   14.3770 C.3   101  FKP101      0.0365
     24  C18       12.5840   12.8540   16.0210 C.3   101  FKP101      0.0001
     25  C19       13.0410   11.0180   17.6340 C.3   101  FKP101      0.0001
     26  C20       15.9670    9.8330   17.0020 C.3   101  FKP101      0.0056
     27  C21       13.2300    9.5130   11.8280 C.2   101  FKP101      0.3170
     28  O5        13.3780   10.5260   11.1660 O.2   101  FKP101     -0.2501
     29  C22       11.9670    8.6820   11.7130 C.3   101  FKP101      0.1096
     30  C23       11.5650    8.0000   13.0260 C.3   101  FKP101      0.0131
     31  C24       10.6030    8.8680   13.8410 C.3   101  FKP101      0.0179
     32  C25        9.8600    8.1020   14.9390 C.3   101  FKP101      0.0722
     33  N1         9.4340    9.0180   16.0220 N.3   101  FKP101     -0.2703
     34  C26        9.4090    8.3040   17.3170 C.3   101  FKP101      0.0897
     35  C27        9.0300    9.2790   18.4370 C.3   101  FKP101      0.0897
     36  N2         7.7230    9.9070   18.1570 N.3   101  FKP101     -0.2691
     37  C28        7.7170   10.5980   16.8540 C.3   101  FKP101      0.0897
     38  C29        8.1080    9.6210   15.7430 C.3   101  FKP101      0.0897
     39  C30        7.4120   10.8650   19.2250 C.3   101  FKP101      0.0897
@<TRIPOS>BOND
     1    21    20    2
     2    28    27    2
     3    20    19    1
     4    29    27    1
     5    29    30    1
     6    27    10    1
     7    22    19    1
     8    19    12    1
     9    19    18    1
    10    12    11    1
    11    10     9    1
    12    30    31    1
    13     9    11    1
    14     9     7    1
    15    31    32    1
    16    11    23    1
    17    11    13    1
    18    18    16    1
    19    14    13    1
    20     7     8    1
    21     7     6    1
    22    13    16    1
    23    13    15    1
    24    32    33    1
    25    16    17    2
    26     6    15    1
    27     6     5    1
    28    38    33    1
    29    38    37    1
    30    24     5    1
    31    33    34    1
    32    15     1    1
    33    15    26    1
    34     2     1    1
    35     5    25    1
    36     5     4    1
    37    37    36    1
    38     1     3    1
    39    34    35    1
    40     4     3    1
    41    36    35    1
    42    36    39    1
