@<TRIPOS>MOLECULE
3maa_GSP_C_1.pdb
 32 34 0 0 0
SMALL
GASTEIGER

@<TRIPOS>ATOM
      1  PG        36.0090   -2.5790   -7.2250 P.3   395  GSP395      0.4340
      2  O3B       36.9940   -3.5850   -7.9700 O.3   395  GSP395     -0.2405
      3  S1G       34.4710   -3.2940   -6.9820 S.3   395  GSP395      0.0416
      4  O2G       36.6590   -2.1910   -5.8640 O.3   395  GSP395     -0.1305
      5  O3G       35.9100   -1.3500   -8.1600 O.2   395  GSP395     -0.2423
      6  PB        38.3650   -2.8660   -8.2820 P.3   395  GSP395      0.2262
      7  O1B       38.0970   -1.8120   -9.2770 O.2   395  GSP395     -0.5168
      8  O2B       38.9720   -2.3730   -7.0340 O.3   395  GSP395     -0.4369
      9  PA        40.4820   -4.5730   -8.0920 P.3   395  GSP395      0.2189
     10  O1A       41.1690   -3.4760   -7.3650 O.2   395  GSP395     -0.5170
     11  O2A       40.1760   -5.7320   -7.2220 O.3   395  GSP395     -0.4371
     12  O3A       39.2120   -4.0420   -8.8910 O.3   395  GSP395     -0.2701
     13  O5'       41.2810   -4.9460   -9.4450 O.3   395  GSP395     -0.3112
     14  C5'       40.6330   -5.5950  -10.5180 C.3   395  GSP395      0.1813
     15  C4'       41.2070   -6.9960  -10.6120 C.3   395  GSP395      0.1799
     16  O4'       41.8870   -7.0960  -11.8390 O.3   395  GSP395     -0.3326
     17  C3'       42.2350   -7.2670   -9.5120 C.3   395  GSP395      0.2158
     18  O3'       42.0740   -8.5560   -8.9650 O.3   395  GSP395     -0.2175
     19  C2'       43.5910   -7.1550  -10.1740 C.3   395  GSP395      0.2310
     20  O2'       44.3540   -8.3080   -9.9280 O.3   395  GSP395     -0.2158
     21  C1'       43.2970   -7.1200  -11.6610 C.3   395  GSP395      0.2293
     22  N9        43.8780   -5.9310  -12.3150 N.pl3 395  GSP395     -0.2354
     23  C8        43.8100   -4.6340  -11.8920 C.3   395  GSP395      0.2246
     24  N7        44.4490   -3.8650  -12.8070 N.2   395  GSP395     -0.2322
     25  C5        44.9280   -4.6400  -13.8040 C.2   395  GSP395      0.2182
     26  C6        45.6450   -4.3740  -14.9730 C.1   395  GSP395      0.2372
     27  O6        45.9800   -3.2350  -15.2820 O.2   395  GSP395     -0.2069
     28  N1        45.9930   -5.3980  -15.8080 N.2   395  GSP395     -0.2485
     29  C2        45.6190   -6.6720  -15.4790 C.1   395  GSP395      0.2531
     30  N2        45.9450   -7.6810  -16.2670 N.pl3 395  GSP395     -0.0226
     31  N3        44.9150   -6.9310  -14.3340 N.2   395  GSP395     -0.3074
     32  C4        44.5690   -5.9370  -13.5000 C.2   395  GSP395      0.2300
@<TRIPOS>BOND
     1    30    29    1
     2    28    29    2
     3    28    26    2
     4    29    31    2
     5    27    26    2
     6    26    25    1
     7    31    32    2
     8    25    32    1
     9    25    24    2
    10    32    22    1
    11    24    23    1
    12    22    23    1
    13    22    21    1
    14    16    21    1
    15    16    15    1
    16    21    19    1
    17    15    14    1
    18    15    17    1
    19    14    13    1
    20    19    20    1
    21    19    17    1
    22    17    18    1
    23    13     9    1
    24     7     6    2
    25    12     6    1
    26    12     9    1
    27     6     2    1
    28     6     8    1
    29     5     1    2
    30     9    10    2
    31     9    11    1
    32     2     1    1
    33     1     3    1
    34     1     4    1
