@<TRIPOS>MOLECULE
3maa_TAT_B_1.pdb
 31 33 0 0 0
SMALL
GASTEIGER

@<TRIPOS>ATOM
      1  N1         4.5570   17.7700   15.5650 N.2     1  TAT1        0.0021
      2  C2         5.2260   16.6180   15.5690 C.3     1  TAT1        0.5254
      3  N3         4.6230   15.4520   15.7900 N.2     1  TAT1       -0.0055
      4  C4         3.2980   15.3990   16.0230 C.2     1  TAT1        0.3518
      5  C5         2.5650   16.5820   16.0310 C.2     1  TAT1        0.2526
      6  C6         3.2340   17.7940   15.7920 C.2     1  TAT1        0.4393
      7  N6         2.6010   18.9660   15.7820 N.pl3   1  TAT1        0.2180
      8  N7         1.3010   16.2430   16.2820 N.2     1  TAT1       -0.2095
      9  C8         1.2370   14.9170   16.4260 C.3     1  TAT1        0.3377
     10  N9         2.4560   14.3950   16.2730 N.pl3   1  TAT1       -0.1439
     11  PA        -0.5710    8.7010   17.7800 P.3     1  TAT1        0.4081
     12  PB        -0.0930    9.0190   20.7750 P.3     1  TAT1        0.2302
     13  PG        -0.3490    7.3140   23.1330 P.3     1  TAT1        0.5373
     14  C1'        2.8290   12.9380   16.3600 C.3     1  TAT1        0.3186
     15  O1A        0.5370    6.0080   22.7180 O.2     1  TAT1       -0.2221
     16  O1B       -0.1980   10.3800   21.3690 O.3     1  TAT1       -0.4368
     17  S1G        0.5860    7.0640   17.7440 S.3     1  TAT1        0.0395
     18  C2'        2.7270   12.3060   17.7620 C.3     1  TAT1        0.2570
     19  O2'        3.7600   12.7540   18.6590 O.3     1  TAT1       -0.2130
     20  O2A       -1.7380    8.5810   16.8720 O.2     1  TAT1       -0.2446
     21  O2B        1.2430    8.4470   20.4880 O.2     1  TAT1       -0.5167
     22  O2G       -1.4180    6.9620   24.1060 O.3     1  TAT1       -0.1143
     23  C3'        2.9220   10.8270   17.3940 C.3     1  TAT1        0.2184
     24  O3'        4.3220   10.4760   17.3360 O.3     1  TAT1       -0.2174
     25  O3A       -0.9960    9.0630   19.3590 O.3     1  TAT1       -0.2418
     26  O3B       -0.9250    7.9710   21.7350 O.3     1  TAT1       -0.2257
     27  O3G        0.6900    8.3760   23.7910 O.3     1  TAT1       -0.1143
     28  C4'        2.2960   10.7220   15.9820 C.3     1  TAT1        0.1822
     29  O4'        1.9330   12.0850   15.5960 O.3     1  TAT1       -0.3135
     30  C5'        1.0280    9.8550   15.9660 C.3     1  TAT1        0.1844
     31  O5'        0.3410    9.9310   17.2300 O.3     1  TAT1       -0.2834
@<TRIPOS>BOND
     1     1     2    1
     2     1     6    2
     3     2     3    1
     4    29    28    1
     5    29    14    1
     6     7     6    1
     7     3     4    2
     8     6     5    1
     9    30    28    1
    10    30    31    1
    11    28    23    1
    12     4     5    1
    13     4    10    1
    14     5     8    2
    15    10    14    1
    16    10     9    1
    17     8     9    1
    18    14    18    1
    19    20    11    2
    20    31    11    1
    21    24    23    1
    22    23    18    1
    23    17    11    1
    24    18    19    1
    25    11    25    1
    26    25    12    1
    27    21    12    2
    28    12    16    1
    29    12    26    1
    30    26    13    1
    31    15    13    2
    32    13    27    1
    33    13    22    1
