@<TRIPOS>MOLECULE
3mag_3MA_A_1.pdb
 13 14 0 0 0
SMALL
GASTEIGER

@<TRIPOS>ATOM
      1  N9        16.5870   14.2580   22.1700 N.2   600  3MA600     -0.0346
      2  C4        17.1230   13.1000   21.6220 C.2   600  3MA600      0.3490
      3  N3        16.8770   11.8110   22.0090 N.pl3 600  3MA600     -0.1388
      4  CN3       15.9830   11.3630   23.0630 C.3   600  3MA600      0.2573
      5  C2        17.5900   10.9680   21.2410 C.3   600  3MA600      0.4720
      6  N1        18.4220   11.2170   20.2240 N.2   600  3MA600     -0.0113
      7  C6        18.6270   12.4840   19.8580 C.2   600  3MA600      0.3425
      8  N6        19.4260   12.7090   18.8290 N.pl3 600  3MA600     -0.2449
      9  C5        17.9490   13.5030   20.5930 C.2   600  3MA600      0.2440
     10  N7        17.9290   14.9000   20.4880 N.2   600  3MA600     -0.2045
     11  C8        17.1130   15.2860   21.4340 C.3   600  3MA600      0.3923
     12 HN61       19.6250   13.6690   18.5840 H     600  3MA600      0.2885
     13 HN62       19.8320   11.9270   18.3220 H     600  3MA600      0.2885
@<TRIPOS>BOND
     1    13     8    1
     2    12     8    1
     3     8     7    1
     4     7     6    2
     5     7     9    1
     6     6     5    1
     7    10     9    2
     8    10    11    1
     9     9     2    1
    10     5     3    1
    11    11     1    1
    12     2     3    1
    13     2     1    2
    14     3     4    1
