@<TRIPOS>MOLECULE
3mag_SAH_A_1.pdb
 30 32 0 0 0
SMALL
GASTEIGER

@<TRIPOS>ATOM
      1  N         -4.1560   12.7900   24.1290 N.3   400  SAH400     -0.2362
      2  CA        -4.2360   11.8010   25.1930 C.3   400  SAH400      0.1728
      3  CB        -2.9320   11.0000   25.2670 C.3   400  SAH400      0.0403
      4  CG        -2.6660   10.1730   24.0280 C.3   400  SAH400      0.0596
      5  SD        -1.2460    9.0460   24.1120 S.3   400  SAH400     -0.1375
      6  C         -4.5240   12.4600   26.5320 C.2   400  SAH400      0.3800
      7  O         -5.0810   13.5670   26.4890 O.co2 400  SAH400     -0.2441
      8  OXT       -4.4510   11.7620   27.5700 O.co2 400  SAH400     -0.2441
      9  C5'       -1.2410    8.5330   22.3890 C.3   400  SAH400      0.0899
     10  C4'       -2.4780    7.7520   21.9700 C.3   400  SAH400      0.1629
     11  O4'       -2.5240    7.6600   20.5710 O.3   400  SAH400     -0.3154
     12  C3'       -2.5930    6.3390   22.4290 C.3   400  SAH400      0.2132
     13  O3'       -3.6460    6.2900   23.3800 O.3   400  SAH400     -0.2176
     14  C2'       -2.9170    5.5300   21.2440 C.3   400  SAH400      0.2171
     15  O2'       -3.8690    4.4210   21.5050 O.3   400  SAH400     -0.3762
     16  C1'       -3.4560    6.5460   20.3360 C.3   400  SAH400      0.3149
     17  N9        -3.4230    6.0780   18.9200 N.pl3 400  SAH400     -0.1440
     18  C8        -2.3580    5.5340   18.1850 C.3   400  SAH400      0.3377
     19  N7        -2.6870    5.3100   16.9340 N.2   400  SAH400     -0.2098
     20  C5        -4.0360    5.7090   16.8400 C.2   400  SAH400      0.2438
     21  C6        -5.0070    5.7020   15.8260 C.2   400  SAH400      0.3428
     22  N6        -4.8200    5.2840   14.5650 N.pl3 400  SAH400     -0.2449
     23  N1        -6.2580    6.1150   16.1250 N.2   400  SAH400     -0.0059
     24  C2        -6.5790    6.5210   17.3080 C.3   400  SAH400      0.5252
     25  N3        -5.7540    6.5880   18.3380 N.2   400  SAH400     -0.0055
     26  C4        -4.4810    6.1610   18.0390 C.2   400  SAH400      0.3515
     27  HN1       -4.4430   12.4860   23.2430 H     400  SAH400      0.1419
     28 HO2'       -3.7460    3.8700   20.7200 H     400  SAH400      0.2107
     29 HN61       -3.8910    4.9810   14.3330 H     400  SAH400      0.2885
     30 HN62       -5.5610    5.2700   13.8750 H     400  SAH400      0.2885
@<TRIPOS>BOND
     1    30    22    1
     2    29    22    1
     3    22    21    1
     4    21    23    2
     5    21    20    1
     6    23    24    1
     7    20    19    2
     8    20    26    1
     9    19    18    1
    10    24    25    1
    11    26    25    2
    12    26    17    1
    13    18    17    1
    14    17    16    1
    15    16    11    1
    16    16    14    1
    17    11    10    1
    18    28    15    1
    19    14    15    1
    20    14    12    1
    21    10     9    1
    22    10    12    1
    23     9     5    1
    24    12    13    1
    25    27     1    1
    26     4     5    1
    27     4     3    1
    28     1     2    1
    29     2     3    1
    30     2     6    1
    31     7     6   ar
    32     6     8   ar
