@<TRIPOS>MOLECULE
3mak_GSH_A_1.pdb
 20 19 0 0 0
SMALL
GASTEIGER

@<TRIPOS>ATOM
      1  N1        25.0910   -2.0910   20.2870 N.3   210  GSH210     -0.1208
      2  CA1       26.4930   -1.8690   19.9530 C.3   210  GSH210      0.1948
      3  C1        26.6610   -0.7710   18.9290 C.2   210  GSH210      0.3819
      4  O11       27.7260   -0.1240   18.8630 O.co2 210  GSH210     -0.2441
      5  O12       25.7480   -0.5000   18.1210 O.co2 210  GSH210     -0.2441
      6  CB1       27.1000   -3.1600   19.4070 C.3   210  GSH210      0.0402
      7  CG1       28.6260   -3.1460   19.4660 C.3   210  GSH210      0.0889
      8  CD1       29.1610   -4.4170   18.8530 C.2   210  GSH210      0.2418
      9  OE1       28.2860   -5.4140   18.3780 O.2   210  GSH210     -0.2733
     10  N2        30.4780   -4.5600   18.7770 N.am  210  GSH210     -0.1968
     11  CA2       31.1030   -5.8740   18.6760 C.3   210  GSH210      0.1843
     12  C2        32.0850   -6.0190   19.8000 C.2   210  GSH210      0.2627
     13  O2        32.7640   -4.8800   20.2300 O.2   210  GSH210     -0.2714
     14  CB2       31.7640   -6.0490   17.3000 C.3   210  GSH210      0.0997
     15  SG2       30.6250   -5.7450   15.9010 S.3   210  GSH210     -0.0797
     16  N3        32.2760   -7.2160   20.3740 N.am  210  GSH210     -0.1917
     17  CA3       33.3150   -7.3970   21.3840 C.3   210  GSH210      0.2285
     18  C3        32.7850   -7.5780   22.7880 C.2   210  GSH210      0.3865
     19  O31       33.5210   -8.0570   23.6850 O.co2 210  GSH210     -0.2437
     20  O32       31.6060   -7.2680   23.0760 O.co2 210  GSH210     -0.2437
@<TRIPOS>BOND
     1    15    14    1
     2    14    11    1
     3     5     3   ar
     4     9     8    2
     5    11    10    1
     6    11    12    1
     7    10     8   am
     8     8     7    1
     9     4     3   ar
    10     3     2    1
    11     6     7    1
    12     6     2    1
    13    12    13    2
    14    12    16   am
    15     2     1    1
    16    16    17    1
    17    17    18    1
    18    18    20   ar
    19    18    19   ar
