@<TRIPOS>MOLECULE
3man_BMA_A_1.pdb
 11 11 0 0 0
SMALL
GASTEIGER

@<TRIPOS>ATOM
      1  C1        -4.2040    0.5160   32.1840 C.3   402  BMA402      0.1777
      2  C2        -4.4750   -0.8880   32.7920 C.3   402  BMA402      0.2141
      3  C3        -4.0220   -1.7870   31.6730 C.3   402  BMA402      0.2173
      4  C4        -4.8440   -1.3600   30.5220 C.3   402  BMA402      0.2142
      5  C5        -4.6530    0.0640   29.9560 C.3   402  BMA402      0.1810
      6  C6        -5.4950    0.4540   28.7630 C.3   402  BMA402      0.2141
      7  O2        -5.8640   -0.9100   33.0340 O.3   402  BMA402     -0.2176
      8  O3        -4.2650   -3.1330   32.0750 O.3   402  BMA402     -0.2175
      9  O4        -4.5130   -2.1630   29.3790 O.3   402  BMA402     -0.2176
     10  O5        -5.0200    0.8690   31.0630 O.3   402  BMA402     -0.3481
     11  O6        -6.8110   -0.0150   28.9460 O.3   402  BMA402     -0.2176
@<TRIPOS>BOND
     1     6    11    1
     2     6     5    1
     3     9     4    1
     4     5     4    1
     5     5    10    1
     6     4     3    1
     7    10     1    1
     8     3     8    1
     9     3     2    1
    10     1     2    1
    11     2     7    1
