@<TRIPOS>MOLECULE
3man_MAN_A_1.pdb
 11 11 0 0 0
SMALL
GASTEIGER

@<TRIPOS>ATOM
      1  C1        -4.7760    5.6790   33.6440 C.3   403  MAN403      0.1777
      2  C2        -5.1370    5.2740   32.1890 C.3   403  MAN403      0.2141
      3  C3        -5.5200    3.8020   32.2430 C.3   403  MAN403      0.2173
      4  C4        -4.3610    3.1130   32.8730 C.3   403  MAN403      0.2142
      5  C5        -3.9890    3.5560   34.2910 C.3   403  MAN403      0.1810
      6  C6        -2.8240    2.7410   34.8110 C.3   403  MAN403      0.2141
      7  O2        -4.0380    5.4130   31.2850 O.3   403  MAN403     -0.2176
      8  O3        -5.6980    3.3000   30.9160 O.3   403  MAN403     -0.2175
      9  O4        -4.6050    1.6850   32.9400 O.3   403  MAN403     -0.2176
     10  O5        -3.6630    4.9320   34.1150 O.3   403  MAN403     -0.3481
     11  O6        -2.3800    3.3150   36.0160 O.3   403  MAN403     -0.2176
@<TRIPOS>BOND
     1     8     3    1
     2     7     2    1
     3     2     3    1
     4     2     1    1
     5     3     4    1
     6     4     9    1
     7     4     5    1
     8     1    10    1
     9    10     5    1
    10     5     6    1
    11     6    11    1
