@<TRIPOS>MOLECULE
3map_NAP_A_1.pdb
 48 52 0 0 0
SMALL
GASTEIGER

@<TRIPOS>ATOM
      1  PA       -15.6120   28.2790   14.3810 P.3   423  NAP423      0.2189
      2  O1A      -14.2820   28.2230   13.9020 O.2   423  NAP423     -0.5170
      3  O2A      -15.8590   28.1460   15.7790 O.3   423  NAP423     -0.4371
      4  O5B      -16.4420   27.3010   13.6920 O.3   423  NAP423     -0.3112
      5  C5B      -15.9680   26.6910   12.5320 C.3   423  NAP423      0.1813
      6  C4B      -16.7090   25.4390   12.1880 C.3   423  NAP423      0.1820
      7  O4B      -15.6690   24.5870   11.8310 O.3   423  NAP423     -0.3136
      8  C3B      -17.2350   24.8440   13.4390 C.3   423  NAP423      0.2157
      9  O3B      -18.5860   25.1750   13.6100 O.3   423  NAP423     -0.2175
     10  C2B      -17.1190   23.3950   13.1090 C.3   423  NAP423      0.2314
     11  O2B      -17.9960   23.0600   12.0540 O.3   423  NAP423     -0.2630
     12  C1B      -15.7300   23.4080   12.5850 C.3   423  NAP423      0.3158
     13  N9A      -14.7300   23.5470   13.6310 N.pl3 423  NAP423     -0.1439
     14  C8A      -14.0280   24.6230   13.8620 C.3   423  NAP423      0.3377
     15  N7A      -13.2110   24.4030   14.8600 N.2   423  NAP423     -0.2095
     16  C5A      -13.3660   23.1720   15.2550 C.2   423  NAP423      0.2526
     17  C6A      -12.8050   22.3940   16.2260 C.2   423  NAP423      0.4393
     18  N6A      -11.8840   22.8380   17.0140 N.pl3 423  NAP423      0.2180
     19  N1A      -13.2010   21.1580   16.3910 N.2   423  NAP423      0.0021
     20  C2A      -14.1280   20.6670   15.6240 C.3   423  NAP423      0.5254
     21  N3A      -14.6800   21.3730   14.6780 N.2   423  NAP423     -0.0055
     22  C4A      -14.3300   22.6300   14.4760 C.2   423  NAP423      0.3518
     23  O3       -16.1270   29.5560   13.8420 O.3   423  NAP423     -0.2703
     24  PN       -17.5040   30.0400   13.9810 P.3   423  NAP423      0.2189
     25  O1N      -17.8070   30.8110   12.8200 O.2   423  NAP423     -0.5170
     26  O2N      -18.3880   29.0180   14.4270 O.3   423  NAP423     -0.4371
     27  O5D      -17.3660   31.0070   15.0840 O.3   423  NAP423     -0.3112
     28  C5D      -18.0990   30.8760   16.2350 C.3   423  NAP423      0.1813
     29  C4D      -17.6370   31.9010   17.2100 C.3   423  NAP423      0.1799
     30  O4D      -16.3120   31.7590   16.9850 O.3   423  NAP423     -0.3327
     31  C3D      -17.9440   33.2770   16.6380 C.3   423  NAP423      0.2158
     32  O3D      -18.3990   34.1520   17.6410 O.3   423  NAP423     -0.2175
     33  C2D      -16.6220   33.7990   16.2390 C.3   423  NAP423      0.2309
     34  O2D      -16.6050   35.1380   16.5970 O.3   423  NAP423     -0.2158
     35  C1D      -15.7990   33.0300   17.1880 C.3   423  NAP423      0.2263
     36  N1N      -14.4610   33.0710   16.6520 N.pl3 423  NAP423     -0.2787
     37  C2N      -13.4110   33.3990   17.4630 C.3   423  NAP423      0.1244
     38  C3N      -12.1410   33.4260   16.9410 C.2   423  NAP423      0.0544
     39  C7N      -10.9600   33.7640   17.8080 C.2   423  NAP423      0.2818
     40  O7N       -9.8400   33.5290   17.4160 O.2   423  NAP423     -0.2670
     41  N7N      -11.2240   34.2340   18.9930 N.am  423  NAP423     -0.0839
     42  C4N      -11.9410   33.1250   15.6180 C.2   423  NAP423      0.0033
     43  C5N      -13.0100   32.7950   14.8170 C.2   423  NAP423      0.0157
     44  C6N      -14.2710   32.7680   15.3450 C.2   423  NAP423      0.0633
     45  P2B      -18.6580   21.6940   12.0610 P.3   423  NAP423      0.5328
     46  O1X      -18.8100   21.4000   10.5940 O.2   423  NAP423     -0.2224
     47  O2X      -17.9690   20.7440   12.8700 O.3   423  NAP423     -0.1145
     48  O3X      -20.1210   21.9360   12.4840 O.3   423  NAP423     -0.1145
@<TRIPOS>BOND
     1    46    45    2
     2     7     6    1
     3     7    12    1
     4    11    45    1
     5    11    10    1
     6    45    48    1
     7    45    47    1
     8     6     5    1
     9     6     8    1
    10     5     4    1
    11    12    10    1
    12    12    13    1
    13    25    24    2
    14    10     8    1
    15     8     9    1
    16    13    14    1
    17    13    22    1
    18     4     1    1
    19    23    24    1
    20    23     1    1
    21    14    15    1
    22     2     1    2
    23    24    26    1
    24    24    27    1
    25     1     3    1
    26    22    21    2
    27    22    16    1
    28    21    20    1
    29    43    44    2
    30    43    42    1
    31    15    16    2
    32    27    28    1
    33    16    17    1
    34    44    36    1
    35    42    38    2
    36    20    19    1
    37    17    19    2
    38    17    18    1
    39    28    29    1
    40    33    34    1
    41    33    31    1
    42    33    35    1
    43    31    29    1
    44    31    32    1
    45    36    35    1
    46    36    37    1
    47    38    37    1
    48    38    39    1
    49    30    35    1
    50    30    29    1
    51    40    39    2
    52    39    41   am
