@<TRIPOS>MOLECULE
3map_ICT_A_1.pdb
 13 12 0 0 0
SMALL
GASTEIGER

@<TRIPOS>ATOM
      1  C1        -9.3500   36.3760   13.9160 C.2   424  ICT424      0.3952
      2  O1        -9.1760   35.2980   14.4410 O.co2 424  ICT424     -0.2428
      3  O2        -8.2560   37.1660   13.5870 O.co2 424  ICT424     -0.2428
      4  C2       -10.7520   36.8280   13.5870 C.3   424  ICT424      0.2651
      5  O7       -10.9450   37.1250   12.2480 O.3   424  ICT424     -0.2103
      6  C3       -11.3080   37.8680   14.5310 C.3   424  ICT424      0.1561
      7  C4       -12.8090   38.0420   14.4590 C.3   424  ICT424      0.1285
      8  C5       -13.6840   36.8230   14.5220 C.2   424  ICT424      0.3655
      9  O3       -13.2220   35.6790   15.1360 O.co2 424  ICT424     -0.2456
     10  O4       -14.8040   36.8330   14.0350 O.co2 424  ICT424     -0.2456
     11  C6       -10.5370   39.1530   14.5530 C.2   424  ICT424      0.3680
     12  O5        -9.3800   39.1690   14.9280 O.co2 424  ICT424     -0.2455
     13  O6       -11.1010   40.2910   14.0470 O.co2 424  ICT424     -0.2455
@<TRIPOS>BOND
     1     5     4    1
     2     3     1   ar
     3     4     1    1
     4     4     6    1
     5     1     2   ar
     6    10     8   ar
     7    13    11   ar
     8     7     8    1
     9     7     6    1
    10     8     9   ar
    11     6    11    1
    12    11    12   ar
