@<TRIPOS>MOLECULE
3mar_NAP_A_1.pdb
 48 52 0 0 0
SMALL
GASTEIGER

@<TRIPOS>ATOM
      1  PA        11.9610  -25.0470  -14.5050 P.3   1003  NAP1003     0.2189
      2  O1A       11.1340  -25.8950  -13.6120 O.3   1003  NAP1003    -0.4371
      3  O2A       12.0850  -25.3920  -15.9320 O.2   1003  NAP1003    -0.5170
      4  O5B       13.4320  -25.0250  -13.9170 O.3   1003  NAP1003    -0.3112
      5  C5B       13.6790  -24.3040  -12.7180 C.3   1003  NAP1003     0.1813
      6  C4B       15.1390  -24.3350  -12.4120 C.3   1003  NAP1003     0.1820
      7  O4B       15.5300  -25.7060  -12.5110 O.3   1003  NAP1003    -0.3136
      8  C3B       15.8450  -23.6920  -13.5830 C.3   1003  NAP1003     0.2157
      9  O3B       15.9010  -22.2830  -13.4080 O.3   1003  NAP1003    -0.2175
     10  C2B       17.2100  -24.2810  -13.3730 C.3   1003  NAP1003     0.2314
     11  O2B       17.7130  -23.7370  -12.1750 O.3   1003  NAP1003    -0.2630
     12  C1B       16.8860  -25.7320  -13.0670 C.3   1003  NAP1003     0.3158
     13  N9A       16.9900  -26.6660  -14.2530 N.pl3 1003  NAP1003    -0.1439
     14  C8A       15.9940  -27.4080  -14.7360 C.3   1003  NAP1003     0.3377
     15  N7A       16.4360  -28.1240  -15.7650 N.2   1003  NAP1003    -0.2095
     16  C5A       17.7140  -27.8510  -15.9380 C.2   1003  NAP1003     0.2526
     17  C6A       18.6630  -28.3000  -16.8370 C.2   1003  NAP1003     0.4393
     18  N6A       18.3400  -29.1890  -17.7660 N.pl3 1003  NAP1003     0.2180
     19  N1A       19.9100  -27.8200  -16.7510 N.2   1003  NAP1003     0.0021
     20  C2A       20.2260  -26.9290  -15.8180 C.3   1003  NAP1003     0.5254
     21  N3A       19.3370  -26.4780  -14.9390 N.2   1003  NAP1003    -0.0055
     22  C4A       18.0750  -26.9260  -14.9770 C.2   1003  NAP1003     0.3518
     23  O3        11.4910  -23.4890  -14.3610 O.3   1003  NAP1003    -0.2703
     24  PN         9.9250  -23.0310  -14.2300 P.3   1003  NAP1003     0.2189
     25  O1N        9.0980  -24.1770  -13.7910 O.2   1003  NAP1003    -0.5170
     26  O2N        9.8680  -21.7820  -13.4460 O.3   1003  NAP1003    -0.4371
     27  O5D        9.5910  -22.6500  -15.7580 O.3   1003  NAP1003    -0.3112
     28  C5D        8.3240  -22.0680  -16.0920 C.3   1003  NAP1003     0.1813
     29  C4D        7.5420  -22.9370  -17.0920 C.3   1003  NAP1003     0.1799
     30  O4D        8.0030  -24.3240  -17.0920 O.3   1003  NAP1003    -0.3327
     31  C3D        6.0790  -22.9750  -16.6360 C.3   1003  NAP1003     0.2158
     32  O3D        5.2550  -22.5220  -17.7140 O.3   1003  NAP1003    -0.2175
     33  C2D        5.8360  -24.4610  -16.3310 C.3   1003  NAP1003     0.2309
     34  O2D        4.5220  -24.8650  -16.7040 O.3   1003  NAP1003    -0.2158
     35  C1D        6.8240  -25.1220  -17.2680 C.3   1003  NAP1003     0.2263
     36  N1N        7.0870  -26.5380  -16.9110 N.pl3 1003  NAP1003    -0.2787
     37  C2N        6.6780  -27.5620  -17.8020 C.3   1003  NAP1003     0.1244
     38  C3N        6.9140  -28.9170  -17.5080 C.2   1003  NAP1003     0.0544
     39  C7N        6.4700  -30.0340  -18.4930 C.2   1003  NAP1003     0.2818
     40  O7N        6.9640  -31.1670  -18.4670 O.2   1003  NAP1003    -0.2670
     41  N7N        5.5520  -29.6620  -19.3840 N.am  1003  NAP1003    -0.0839
     42  C4N        7.5650  -29.2380  -16.3080 C.2   1003  NAP1003     0.0033
     43  C5N        7.9690  -28.2270  -15.4220 C.2   1003  NAP1003     0.0157
     44  C6N        7.7420  -26.8810  -15.7110 C.2   1003  NAP1003     0.0633
     45  P2B       18.8050  -22.6100  -12.3130 P.3   1003  NAP1003     0.5328
     46  O1X       19.7060  -22.7840  -10.9580 O.3   1003  NAP1003    -0.1145
     47  O2X       19.5910  -22.7200  -13.5630 O.2   1003  NAP1003    -0.2224
     48  O3X       17.9740  -21.2200  -12.1810 O.3   1003  NAP1003    -0.1145
@<TRIPOS>BOND
     1    41    39   am
     2    39    40    2
     3    39    38    1
     4    37    38    1
     5    37    36    1
     6    18    17    1
     7    32    31    1
     8    38    42    2
     9    35    30    1
    10    35    36    1
    11    35    33    1
    12    29    30    1
    13    29    31    1
    14    29    28    1
    15    36    44    1
    16    17    19    2
    17    17    16    1
    18    19    20    1
    19    34    33    1
    20    31    33    1
    21    42    43    1
    22    28    27    1
    23    16    15    2
    24    16    22    1
    25     3     1    2
    26    20    21    1
    27    15    14    1
    28    27    24    1
    29    44    43    2
    30    22    21    2
    31    22    13    1
    32    14    13    1
    33     1    23    1
    34     1     4    1
    35     1     2    1
    36    23    24    1
    37    13    12    1
    38    24    25    2
    39    24    26    1
    40     4     5    1
    41     8     9    1
    42     8    10    1
    43     8     6    1
    44    47    45    2
    45    10    12    1
    46    10    11    1
    47    12     7    1
    48     5     6    1
    49     7     6    1
    50    45    48    1
    51    45    11    1
    52    45    46    1
