@<TRIPOS>MOLECULE
3mas_NAP_A_1.pdb
 48 52 0 0 0
SMALL
GASTEIGER

@<TRIPOS>ATOM
      1  PA        25.4630  -12.1380   15.0680 P.3   423  NAP423      0.2189
      2  O1A       26.2310  -11.1500   14.3680 O.2   423  NAP423     -0.5170
      3  O2A       25.7280  -12.3910   16.4770 O.3   423  NAP423     -0.4371
      4  O5B       25.5600  -13.4280   14.2720 O.3   423  NAP423     -0.3112
      5  C5B       24.7230  -13.5240   13.1570 C.3   423  NAP423      0.1813
      6  C4B       24.1490  -14.9110   12.9690 C.3   423  NAP423      0.1820
      7  O4B       25.2320  -15.6810   12.5330 O.3   423  NAP423     -0.3136
      8  C3B       23.7640  -15.5420   14.2700 C.3   423  NAP423      0.2157
      9  O3B       22.4030  -15.2920   14.5070 O.3   423  NAP423     -0.2175
     10  C2B       23.8700  -16.9720   13.8910 C.3   423  NAP423      0.2314
     11  O2B       22.8510  -17.2340   12.9530 O.3   423  NAP423     -0.2630
     12  C1B       25.1910  -16.9350   13.2000 C.3   423  NAP423      0.3158
     13  N9A       26.2120  -16.9380   14.2360 N.pl3 423  NAP423     -0.1439
     14  C8A       27.0180  -15.9360   14.5440 C.3   423  NAP423      0.3377
     15  N7A       27.8200  -16.3030   15.5350 N.2   423  NAP423     -0.2095
     16  C5A       27.5240  -17.5480   15.8590 C.2   423  NAP423      0.2526
     17  C6A       28.0120  -18.4410   16.7900 C.2   423  NAP423      0.4393
     18  N6A       28.9900  -18.1110   17.6030 N.pl3 423  NAP423      0.2180
     19  N1A       27.4850  -19.6530   16.8660 N.2   423  NAP423      0.0021
     20  C2A       26.5100  -19.9980   16.0630 C.3   423  NAP423      0.5254
     21  N3A       26.0200  -19.1820   15.1590 N.2   423  NAP423     -0.0055
     22  C4A       26.5060  -17.9510   15.0320 C.2   423  NAP423      0.3518
     23  O3        23.9660  -11.8250   14.8710 O.3   423  NAP423     -0.2703
     24  PN        23.4260  -10.4090   14.6490 P.3   423  NAP423      0.2189
     25  O1N       24.1270   -9.7260   13.5830 O.2   423  NAP423     -0.5170
     26  O2N       21.9860  -10.4750   14.6060 O.3   423  NAP423     -0.4371
     27  O5D       23.7980   -9.7620   15.9560 O.3   423  NAP423     -0.3112
     28  C5D       22.7620   -9.3340   16.7810 C.3   423  NAP423      0.1813
     29  C4D       23.2750   -8.2370   17.6760 C.3   423  NAP423      0.1799
     30  O4D       24.6620   -8.2260   17.4330 O.3   423  NAP423     -0.3327
     31  C3D       22.8090   -6.8570   17.2020 C.3   423  NAP423      0.2158
     32  O3D       22.1590   -6.1720   18.2580 O.3   423  NAP423     -0.2175
     33  C2D       24.1050   -6.1490   16.9020 C.3   423  NAP423      0.2309
     34  O2D       24.0230   -4.8300   17.3760 O.3   423  NAP423     -0.2158
     35  C1D       24.9990   -6.9320   17.7910 C.3   423  NAP423      0.2263
     36  N1N       26.3820   -6.7590   17.4480 N.pl3 423  NAP423     -0.2787
     37  C2N       27.2380   -6.4320   18.4580 C.3   423  NAP423      0.1244
     38  C3N       28.5730   -6.2620   18.1970 C.2   423  NAP423      0.0544
     39  C7N       29.4650   -5.9060   19.3400 C.2   423  NAP423      0.2818
     40  O7N       30.6480   -6.1950   19.2940 O.2   423  NAP423     -0.2670
     41  N7N       28.8570   -5.3030   20.3600 N.am  423  NAP423     -0.0839
     42  C4N       29.0700   -6.4170   16.9230 C.2   423  NAP423      0.0033
     43  C5N       28.1920   -6.7550   15.9100 C.2   423  NAP423      0.0157
     44  C6N       26.8440   -6.9300   16.1720 C.2   423  NAP423      0.0633
     45  P2B       22.3640  -18.7050   12.6680 P.3   423  NAP423      0.5328
     46  O1X       22.9410  -18.9640   11.2470 O.2   423  NAP423     -0.2224
     47  O2X       22.7670  -19.6820   13.6600 O.3   423  NAP423     -0.1145
     48  O3X       20.8120  -18.6080   12.4780 O.3   423  NAP423     -0.1145
@<TRIPOS>BOND
     1    46    45    2
     2    48    45    1
     3     7     6    1
     4     7    12    1
     5    45    11    1
     6    45    47    1
     7    11    10    1
     8     6     5    1
     9     6     8    1
    10     5     4    1
    11    12    10    1
    12    12    13    1
    13    25    24    2
    14    10     8    1
    15    13    14    1
    16    13    22    1
    17     8     9    1
    18     4     1    1
    19     2     1    2
    20    14    15    1
    21    26    24    1
    22    24    23    1
    23    24    27    1
    24    23     1    1
    25    22    21    2
    26    22    16    1
    27     1     3    1
    28    21    20    1
    29    15    16    2
    30    16    17    1
    31    43    44    2
    32    43    42    1
    33    27    28    1
    34    20    19    1
    35    44    36    1
    36    28    29    1
    37    17    19    2
    38    17    18    1
    39    33    31    1
    40    33    34    1
    41    33    35    1
    42    42    38    2
    43    31    29    1
    44    31    32    1
    45    30    29    1
    46    30    35    1
    47    36    35    1
    48    36    37    1
    49    38    37    1
    50    38    39    1
    51    40    39    2
    52    39    41   am
