@<TRIPOS>MOLECULE
3mas_ICT_A_1.pdb
 13 12 0 0 0
SMALL
GASTEIGER

@<TRIPOS>ATOM
      1  C1        31.6380   -3.7770   16.0610 C.2   424  ICT424      0.3952
      2  O1        31.7350   -4.9820   16.2270 O.co2 424  ICT424     -0.2428
      3  O2        32.6110   -2.9010   16.5130 O.co2 424  ICT424     -0.2428
      4  C2        30.4760   -3.2070   15.3010 C.3   424  ICT424      0.2651
      5  O7        30.7290   -3.0530   13.9550 O.3   424  ICT424     -0.2103
      6  C3        29.8830   -1.9800   15.9370 C.3   424  ICT424      0.1561
      7  C4        28.3880   -1.8910   15.8720 C.3   424  ICT424      0.1285
      8  C5        27.6060   -3.1530   16.0290 C.2   424  ICT424      0.3655
      9  O3        26.3810   -3.2840   15.4160 O.co2 424  ICT424     -0.2456
     10  O4        28.0090   -4.0230   16.7800 O.co2 424  ICT424     -0.2456
     11  C6        30.4630   -0.7030   15.4430 C.2   424  ICT424      0.3680
     12  O5        31.6300   -0.4310   15.6320 O.co2 424  ICT424     -0.2455
     13  O6        29.6040    0.2870   15.0580 O.co2 424  ICT424     -0.2455
@<TRIPOS>BOND
     1     5     4    1
     2    13    11   ar
     3     4     6    1
     4     4     1    1
     5     9     8   ar
     6    11    12   ar
     7    11     6    1
     8     7     6    1
     9     7     8    1
    10     8    10   ar
    11     1     2   ar
    12     1     3   ar
