@<TRIPOS>MOLECULE
3mat_III_I_1.pdb
 23 22 0 0 0
SMALL
GASTEIGER

@<TRIPOS>ATOM
      1  N         -8.6410   -1.2260   13.7260 N.3     1  AHH1       -0.1297
      2  CA        -8.8060   -0.2260   14.8280 C.3     1  AHH1        0.1311
      3  CB       -10.0620    0.6410   14.6000 C.3     1  AHH1        0.0222
      4  CG       -11.3640   -0.0630   14.9140 C.3     1  AHH1        0.0016
      5  O1        -6.3500    0.1400   14.6060 O.3     1  AHH1       -0.2116
      6  O2        -7.3310    1.1040   17.1060 O.2     1  AHH1       -0.2705
      7  CD       -12.5500    0.6640   14.2890 C.3     1  AHH1        0.0000
      8  CE       -13.8540   -0.0140   14.6460 C.3     1  AHH1        0.0000
      9  C1        -7.6220    0.7490   14.7850 C.3     1  AHH1        0.2463
     10  C2        -7.6530    1.6160   16.0180 C.2     1  AHH1        0.2737
     11  N         -8.0830    2.8360   15.9200 N.am    2  ALA2       -0.1956
     12  CA        -8.0810    3.7070   17.0820 C.3     2  ALA2        0.1729
     13  C         -9.3940    4.4430   17.2780 C.2     2  ALA2        0.2616
     14  O        -10.2630    4.5290   16.4070 O.2     2  ALA2       -0.2715
     15  CB        -6.9040    4.6870   16.9760 C.3     2  ALA2        0.0334
     16  N         -9.5190    4.9940   18.4540 N.am    3  LEU3       -0.1977
     17  CA       -10.7130    5.7220   18.7660 C.3     3  LEU3        0.1596
     18  C        -10.4480    7.1720   19.1460 C.2     3  LEU3        0.2287
     19  O         -9.8500    7.4510   20.1760 O.2     3  LEU3       -0.2864
     20  CB       -11.4890    4.9610   19.8350 C.3     3  LEU3        0.0297
     21  CG       -12.1290    3.7060   19.2630 C.3     3  LEU3        0.0022
     22  CD1      -13.3130    3.3530   20.1450 C.3     3  LEU3        0.0001
     23  CD2      -12.5930    3.9260   17.8220 C.3     3  LEU3        0.0001
@<TRIPOS>BOND
     1     1     2    1
     2     7     8    1
     3     7     4    1
     4     3     2    1
     5     3     4    1
     6     5     9    1
     7     9     2    1
     8     9    10    1
     9    11    10   am
    10    11    12    1
    11    10     6    2
    12    14    13    2
    13    15    12    1
    14    12    13    1
    15    13    16   am
    16    23    21    1
    17    16    17    1
    18    17    18    1
    19    17    20    1
    20    18    19    2
    21    21    20    1
    22    21    22    1
