@<TRIPOS>MOLECULE
3mau_EXT_B_1.pdb
 23 23 0 0 0
SMALL
GASTEIGER

@<TRIPOS>ATOM
      1  CAA      -11.6540  -27.8720   48.0150 C.ar  514  EXT514      0.0587
      2  CAB      -10.6940  -26.9010   47.7260 C.2   514  EXT514      0.0962
      3  PAC       -9.5210  -29.1060   44.2220 P.3   514  EXT514      0.5329
      4  OAD       -9.5120  -27.4820   44.2860 O.3   514  EXT514     -0.1145
      5  OAE      -10.0690  -29.6130   42.9420 O.2   514  EXT514     -0.2224
      6  OAF       -8.0430  -29.6530   44.5740 O.3   514  EXT514     -0.1145
      7  OAG      -10.3770  -29.5390   45.4990 O.3   514  EXT514     -0.2653
      8  CAH      -11.6220  -28.9000   45.6310 C.3   514  EXT514      0.1819
      9  CAI      -12.0910  -28.8050   47.0750 C.ar  514  EXT514      0.0316
     10  NAJ      -13.5520  -29.7510   48.6730 N.ar  514  EXT514     -0.2452
     11  CAK      -13.0520  -29.7270   47.4530 C.ar  514  EXT514      0.0968
     12  CAL      -13.1560  -28.8730   49.5990 C.ar  514  EXT514      0.0981
     13  CAM      -13.7710  -28.9380   50.9930 C.3   514  EXT514      0.0555
     14  CAN      -12.2010  -27.9110   49.2900 C.ar  514  EXT514      0.2103
     15  OAO      -11.7910  -27.0100   50.2230 O.3   514  EXT514     -0.2853
     16  OAP       -7.2750  -24.5450   48.3710 O.3   514  EXT514     -0.1145
     17  PAQ       -7.1700  -23.3300   47.2880 P.3   514  EXT514      0.5327
     18  OAR       -7.4170  -21.9870   47.9090 O.3   514  EXT514     -0.1145
     19  OAS       -5.6720  -23.5030   46.6090 O.2   514  EXT514     -0.2224
     20  OAT       -8.2420  -23.7710   46.1490 O.3   514  EXT514     -0.2681
     21  CAU       -9.0770  -24.9240   46.3880 C.3   514  EXT514      0.1799
     22  CAV      -10.1610  -24.5240   47.3920 C.3   514  EXT514      0.1581
     23  NAW      -11.0790  -25.6400   47.6870 N.2   514  EXT514     -0.2661
@<TRIPOS>BOND
     1     5     3    2
     2     3     4    1
     3     3     6    1
     4     3     7    1
     5     7     8    1
     6     8     9    1
     7    20    21    1
     8    20    17    1
     9    21    22    1
    10    19    17    2
    11     9    11   ar
    12     9     1   ar
    13    17    18    1
    14    17    16    1
    15    22    23    1
    16    11    10   ar
    17    23     2    2
    18     2     1    1
    19     1    14   ar
    20    10    12   ar
    21    14    12   ar
    22    14    15    1
    23    12    13    1
