@<TRIPOS>MOLECULE
3mau_PLR_A_1.pdb
 15 15 0 0 0
SMALL
GASTEIGER

@<TRIPOS>ATOM
      1  N1        -6.5950  -39.6180   20.8770 N.ar  514  PLR514     -0.2452
      2  C2        -5.4030  -40.2200   20.5210 C.ar  514  PLR514      0.0978
      3  C2A       -5.1270  -40.5040   19.0770 C.3   514  PLR514      0.0555
      4  C3        -4.4660  -40.5680   21.4940 C.ar  514  PLR514      0.2049
      5  O3        -3.2810  -41.1680   21.1620 O.3   514  PLR514     -0.2857
      6  C4        -4.7170  -40.3070   22.8300 C.ar  514  PLR514      0.0182
      7  C4A       -3.6800  -40.6990   23.8430 C.3   514  PLR514      0.0342
      8  C5        -5.9200  -39.7010   23.1870 C.ar  514  PLR514      0.0261
      9  C6        -6.8510  -39.3590   22.2070 C.ar  514  PLR514      0.0965
     10  C5A       -6.2230  -39.3940   24.6340 C.3   514  PLR514      0.1815
     11  O4P       -5.2340  -38.5250   25.1440 O.3   514  PLR514     -0.2653
     12  P         -4.5210  -38.7780   26.5660 P.3   514  PLR514      0.5329
     13  O1P       -4.1560  -40.2360   26.7540 O.3   514  PLR514     -0.1145
     14  O2P       -3.2370  -37.9820   26.5670 O.2   514  PLR514     -0.2224
     15  O3P       -5.4740  -38.3560   27.6610 O.3   514  PLR514     -0.1145
@<TRIPOS>BOND
     1     3     2    1
     2     2     1   ar
     3     2     4   ar
     4     1     9   ar
     5     5     4    1
     6     4     6   ar
     7     9     8   ar
     8     6     8   ar
     9     6     7    1
    10     8    10    1
    11    10    11    1
    12    11    12    1
    13    12    14    2
    14    12    13    1
    15    12    15    1
