@<TRIPOS>MOLECULE
3max_LLX_A_1.pdb
 22 24 0 0 0
SMALL
GASTEIGER

@<TRIPOS>ATOM
      1  N1        65.8820   28.8880   -1.6780 N.pl3 400  LLX400     -0.1267
      2  C2        65.4500   28.7330   -0.3430 C.ar  400  LLX400      0.1043
      3  C3        64.2210   28.1250   -0.0690 C.ar  400  LLX400      0.0194
      4  C4        63.7890   27.9790    1.2410 C.ar  400  LLX400      0.0015
      5  C5        64.5660   28.4370    2.3170 C.ar  400  LLX400      0.0014
      6  C6        65.7920   29.0770    2.0410 C.ar  400  LLX400      0.0180
      7  C7        66.2210   29.2180    0.7260 C.ar  400  LLX400      0.0903
      8  N8        67.4780   29.7880    0.4590 N.am  400  LLX400     -0.1741
      9  C9        67.6220   30.8320   -0.3730 C.2   400  LLX400      0.2690
     10  O10       66.6320   31.3230   -0.8890 O.2   400  LLX400     -0.2680
     11  C11       69.0040   31.3170   -0.6050 C.ar  400  LLX400      0.0554
     12  C12       70.0600   30.4160   -0.4870 C.ar  400  LLX400      0.0046
     13  C13       71.3670   30.8260   -0.6850 C.ar  400  LLX400      0.0001
     14  C14       71.6380   32.1460   -1.0050 C.ar  400  LLX400      0.0000
     15  C15       70.5940   33.0570   -1.1190 C.ar  400  LLX400      0.0001
     16  C16       69.2780   32.6580   -0.9160 C.ar  400  LLX400      0.0046
     17  C17       64.0950   28.3080    3.7300 C.ar  400  LLX400      0.0000
     18  C18       65.0120   28.1180    4.7740 C.ar  400  LLX400      0.0000
     19  C19       64.5540   28.0390    6.0880 C.ar  400  LLX400      0.0000
     20  C20       63.1940   28.1440    6.3880 C.ar  400  LLX400      0.0000
     21  C21       62.2730   28.3410    5.3640 C.ar  400  LLX400      0.0000
     22  C22       62.7200   28.4250    4.0480 C.ar  400  LLX400      0.0000
@<TRIPOS>BOND
     1     1     2    1
     2    15    14   ar
     3    15    16   ar
     4    14    13   ar
     5    16    11   ar
     6    10     9    2
     7    13    12   ar
     8    11    12   ar
     9    11     9    1
    10     9     8   am
    11     2     3   ar
    12     2     7   ar
    13     3     4   ar
    14     8     7    1
    15     7     6   ar
    16     4     5   ar
    17     6     5   ar
    18     5    17    1
    19    17    22   ar
    20    17    18   ar
    21    22    21   ar
    22    18    19   ar
    23    21    20   ar
    24    19    20   ar
