@<TRIPOS>MOLECULE
3mb5_SAM_A_1.pdb
 27 29 0 0 0
SMALL
GASTEIGER

@<TRIPOS>ATOM
      1  N        -18.7390  -32.7010   -9.7530 N.3   301  SAM301     -0.1208
      2  CA       -19.0190  -32.6550  -11.2150 C.3   301  SAM301      0.1952
      3  C        -19.1930  -34.0580  -11.8060 C.2   301  SAM301      0.3819
      4  O        -19.0050  -35.0520  -11.0830 O.co2 301  SAM301     -0.2441
      5  OXT      -19.5130  -34.2170  -12.9890 O.co2 301  SAM301     -0.2441
      6  CB       -17.9400  -31.8620  -11.9460 C.3   301  SAM301      0.0414
      7  CG       -17.9950  -30.3700  -11.5900 C.3   301  SAM301      0.0503
      8  SD       -16.8570  -29.3920  -12.6130 S.3   301  SAM301     -0.1761
      9  CE       -15.2340  -29.8930  -11.9590 C.3   301  SAM301      0.0590
     10  C5'      -17.0660  -27.7420  -11.8890 C.3   301  SAM301      0.0806
     11  C4'      -18.4070  -27.1630  -12.3290 C.3   301  SAM301      0.1622
     12  O4'      -18.6730  -26.0280  -11.5110 O.3   301  SAM301     -0.3153
     13  C3'      -18.3380  -26.6490  -13.7820 C.3   301  SAM301      0.2168
     14  O3'      -19.4020  -27.2360  -14.5180 O.3   301  SAM301     -0.2175
     15  C2'      -18.4090  -25.1300  -13.5990 C.3   301  SAM301      0.2569
     16  O2'      -19.0220  -24.4900  -14.7020 O.3   301  SAM301     -0.2130
     17  C1'      -19.2420  -25.0070  -12.3440 C.3   301  SAM301      0.3185
     18  N9       -19.1000  -23.7280  -11.6330 N.pl3 301  SAM301     -0.1439
     19  C8       -17.9570  -23.0120  -11.3940 C.3   301  SAM301      0.3377
     20  N7       -18.2670  -21.9120  -10.6570 N.2   301  SAM301     -0.2095
     21  C5       -19.6030  -21.9650  -10.4030 C.2   301  SAM301      0.2526
     22  C6       -20.4730  -21.1010   -9.7330 C.2   301  SAM301      0.4393
     23  N6       -20.0340  -19.9980   -9.1280 N.pl3 301  SAM301      0.2180
     24  N1       -21.8010  -21.4290   -9.6630 N.2   301  SAM301      0.0021
     25  C2       -22.3040  -22.5630  -10.2730 C.3   301  SAM301      0.5254
     26  N3       -21.4590  -23.3980  -10.9690 N.2   301  SAM301     -0.0055
     27  C4       -20.1330  -23.0990  -11.0130 C.2   301  SAM301      0.3518
@<TRIPOS>BOND
     1    16    15    1
     2    14    13    1
     3    13    15    1
     4    13    11    1
     5    15    17    1
     6     5     3   ar
     7     8     9    1
     8     8    10    1
     9     8     7    1
    10    17    18    1
    11    17    12    1
    12    11    10    1
    13    11    12    1
    14     6     7    1
    15     6     2    1
    16     3     2    1
    17     3     4   ar
    18    18    19    1
    19    18    27    1
    20    19    20    1
    21     2     1    1
    22    27    26    2
    23    27    21    1
    24    26    25    1
    25    20    21    2
    26    21    22    1
    27    25    24    1
    28    22    24    2
    29    22    23    1
