@<TRIPOS>MOLECULE
3mb6_01I_A_1.pdb
 22 25 0 0 0
SMALL
GASTEIGER

@<TRIPOS>ATOM
      1  CAA       23.2490    9.9230   12.2360 C.ar  332  01I332      0.0031
      2  CAB       23.1760   10.5980   13.4430 C.ar  332  01I332      0.0378
      3  CAC       22.9990    9.9070   14.7290 C.ar  332  01I332      0.1456
      4  CAD       22.8890    8.5190   14.8290 C.ar  332  01I332      0.0376
      5  CAE       22.9570    7.8130   13.6190 C.ar  332  01I332      0.0061
      6  CAF       23.1370    8.5320   12.2970 C.ar  332  01I332      0.0004
      7  CAG       22.8660    6.4240   13.5400 C.ar  332  01I332      0.0379
      8  CAH       22.9410    5.7620   12.2240 C.ar  332  01I332      0.1456
      9  CAI       23.1100    6.4440   11.0310 C.ar  332  01I332      0.0375
     10  CAJ       23.2060    7.8330   11.0860 C.ar  332  01I332      0.0031
     11  CAK       23.2530   12.0070   13.7010 C.ar  332  01I332      0.0474
     12  CAL       23.1240   12.1330   15.0910 C.ar  332  01I332      0.2246
     13  OAM       22.9710   10.9160   15.7420 O.2   332  01I332     -0.4468
     14  CAN       22.6940    5.3870   14.5280 C.ar  332  01I332      0.0474
     15  CAO       22.6730    4.1850   13.7910 C.ar  332  01I332      0.2246
     16  OAP       22.8250    4.3600   12.4290 O.2   332  01I332     -0.4468
     17  CAQ       22.5140    2.8070   14.3410 C.2   332  01I332      0.4216
     18  CAR       23.1510   13.4520   15.8020 C.2   332  01I332      0.4216
     19  OAS       23.0260   13.4630   17.0490 O.co2 332  01I332     -0.2371
     20  OAT       22.3820    2.6270   15.5730 O.co2 332  01I332     -0.2371
     21  OAU       22.5120    1.8750   13.5120 O.co2 332  01I332     -0.2371
     22  OAV       23.2930   14.5020   15.1300 O.co2 332  01I332     -0.2371
@<TRIPOS>BOND
     1     9    10   ar
     2     9     8   ar
     3    10     6   ar
     4     8    16   ar
     5     8     7   ar
     6     1     6   ar
     7     1     2   ar
     8     6     5   ar
     9    16    15   ar
    10     2    11   ar
    11     2     3   ar
    12    21    17   ar
    13     7     5   ar
    14     7    14   ar
    15     5     4   ar
    16    11    12   ar
    17    15    17    1
    18    15    14   ar
    19    17    20   ar
    20     3     4   ar
    21     3    13   ar
    22    12    13   ar
    23    12    18    1
    24    22    18   ar
    25    18    19   ar
