@<TRIPOS>MOLECULE
3mb7_14I_A_1.pdb
 22 25 0 0 0
SMALL
GASTEIGER

@<TRIPOS>ATOM
      1  CAA       22.8660    9.3970   11.2570 C.ar  332  14I332      0.0031
      2  CAB       22.7010   10.5610   12.0090 C.ar  332  14I332      0.0375
      3  CAC       22.5960   10.4360   13.3870 C.ar  332  14I332      0.1456
      4  CAD       22.6480    9.1440   14.0830 C.ar  332  14I332      0.0379
      5  CAE       22.8020    7.9790   13.3410 C.ar  332  14I332      0.0061
      6  CAF       22.9180    8.1300   11.8550 C.ar  332  14I332      0.0004
      7  CAG       22.8710    6.6850   13.8470 C.ar  332  14I332      0.0379
      8  CAH       23.0360    5.5680   12.9070 C.ar  332  14I332      0.1456
      9  CAI       23.1460    5.7300   11.5360 C.ar  332  14I332      0.0375
     10  CAJ       23.0810    7.0120   11.0240 C.ar  332  14I332      0.0031
     11  CAK       22.5140    9.4020   15.4950 C.ar  332  14I332      0.0474
     12  CAL       22.3890   10.8000   15.5710 C.ar  332  14I332      0.2246
     13  OAM       22.4400   11.4470   14.3590 O.2   332  14I332     -0.4468
     14  CAN       22.8010    6.1320   15.1770 C.ar  332  14I332      0.0474
     15  CAO       22.9250    4.7520   14.9700 C.ar  332  14I332      0.2246
     16  OAP       23.0840    4.3830   13.6570 O.2   332  14I332     -0.4468
     17  CAQ       22.9000    3.7000   16.0080 C.2   332  14I332      0.4216
     18  CAR       22.2280   11.6010   16.8080 C.2   332  14I332      0.4216
     19  OAS       22.1760   11.0350   17.9120 O.co2 332  14I332     -0.2371
     20  OAT       23.0130    2.5320   15.5740 O.co2 332  14I332     -0.2371
     21  OAU       22.7810    4.0070   17.2170 O.co2 332  14I332     -0.2371
     22  OAV       22.1360   12.8340   16.6680 O.co2 332  14I332     -0.2371
@<TRIPOS>BOND
     1    10     9   ar
     2    10     6   ar
     3     1     6   ar
     4     1     2   ar
     5     9     8   ar
     6     6     5   ar
     7     2     3   ar
     8     8    16   ar
     9     8     7   ar
    10     5     7   ar
    11     5     4   ar
    12     3     4   ar
    13     3    13   ar
    14    16    15   ar
    15     7    14   ar
    16     4    11   ar
    17    13    12   ar
    18    15    14   ar
    19    15    17    1
    20    11    12   ar
    21    12    18    1
    22    20    17   ar
    23    17    21   ar
    24    22    18   ar
    25    18    19   ar
