@<TRIPOS>MOLECULE
3mb8_IMH_A_1.pdb
 19 21 0 0 0
SMALL
GASTEIGER

@<TRIPOS>ATOM
      1  O5'       53.7610   36.5340   62.9170 O.3   280  IMH280     -0.2188
      2  C5'       54.7530   36.8910   61.9760 C.3   280  IMH280      0.2020
      3  C4'       54.0230   37.5280   60.8020 C.3   280  IMH280      0.1389
      4  N4'       53.3210   38.7010   61.3010 N.3   280  IMH280     -0.2083
      5  C3'       55.0260   38.1430   59.8490 C.3   280  IMH280      0.2023
      6  O3'       54.3360   38.3220   58.5910 O.3   280  IMH280     -0.2188
      7  C2'       55.3800   39.5010   60.4400 C.3   280  IMH280      0.2036
      8  O2'       55.4850   40.4550   59.3790 O.3   280  IMH280     -0.2185
      9  C1'       54.2140   39.8520   61.3750 C.3   280  IMH280      0.1309
     10  C9        54.6140   40.1350   62.7800 C.2   280  IMH280      0.0348
     11  C8        53.6850   40.2970   63.7860 C.2   280  IMH280      0.0984
     12  N7        54.3720   40.5770   64.9300 N.2   280  IMH280     -0.2310
     13  C5        55.7110   40.6110   64.7300 C.2   280  IMH280      0.1804
     14  C6        56.9190   40.8470   65.5490 C.1   280  IMH280      0.1716
     15  O6        56.7590   41.1370   66.8620 O.2   280  IMH280     -0.2206
     16  N1        58.1450   40.7800   64.9610 N.2   280  IMH280     -0.1739
     17  C2        58.2860   40.5210   63.6370 C.3   280  IMH280      0.2626
     18  N3        57.2400   40.2980   62.8190 N.2   280  IMH280     -0.2415
     19  C4        55.9770   40.3430   63.3240 C.2   280  IMH280      0.1059
@<TRIPOS>BOND
     1     6     5    1
     2     8     7    1
     3     5     7    1
     4     5     3    1
     5     7     9    1
     6     3     4    1
     7     3     2    1
     8     4     9    1
     9     9    10    1
    10     2     1    1
    11    10    19    1
    12    10    11    2
    13    18    19    2
    14    18    17    1
    15    19    13    1
    16    17    16    1
    17    11    12    1
    18    13    12    2
    19    13    14    1
    20    16    14    2
    21    14    15    2
