@<TRIPOS>MOLECULE
3mb9_ZST_A_1.pdb
 29 32 0 0 0
SMALL
GASTEIGER

@<TRIPOS>ATOM
      1  C1        19.9660    9.2120  -12.5670 C.ar  600  ZST600      0.2767
      2  O1        20.4220    8.0620  -12.5870 O.2   600  ZST600     -0.2655
      3  C2        20.3900   10.1300  -11.4570 C.ar  600  ZST600      0.0588
      4  C3        19.8620   11.4300  -11.4560 C.ar  600  ZST600      0.0204
      5  C4        18.9150   11.7900  -12.5640 C.ar  600  ZST600      0.0902
      6  C5        21.2810    9.7430  -10.4480 C.ar  600  ZST600      0.0048
      7  C6        21.6310   10.6340   -9.4340 C.ar  600  ZST600      0.0002
      8  C7        21.0940   11.9220   -9.4540 C.ar  600  ZST600      0.0000
      9  C8        20.1650   12.3140  -10.4220 C.ar  600  ZST600      0.0014
     10  N1        19.1190    9.6670  -13.4630 N.ar  600  ZST600     -0.2090
     11  N2        18.6260   10.9440  -13.4590 N.ar  600  ZST600     -0.1702
     12  C9        18.3950    8.7670  -14.3540 C.3   600  ZST600      0.1960
     13  C10       17.1990    8.1820  -13.6550 C.2   600  ZST600      0.1632
     14  C11       15.5130    7.5030  -12.0860 C.2   600  ZST600      0.0572
     15  C12       15.3020    7.0400  -13.3720 C.2   600  ZST600      0.1371
     16  C13       14.6710    7.2440  -11.0120 C.2   600  ZST600     -0.0124
     17  C14       13.5470    6.4590  -11.2700 C.3   600  ZST600      0.0569
     18  C15       13.3190    5.9800  -12.5690 C.2   600  ZST600      0.0561
     19  C16       14.1870    6.2540  -13.6270 C.2   600  ZST600      0.0325
     20  N3        16.2930    7.4630  -14.1920 N.2   600  ZST600     -0.3972
     21  S1        16.9590    8.4910  -11.9050 S.3   600  ZST600     -0.0556
     22  C17       18.3060   13.1570  -12.6670 C.3   600  ZST600      0.1613
     23  C18       17.2220   13.3700  -11.6680 C.2   600  ZST600      0.3709
     24  O2        16.6860   12.3570  -11.1670 O.co2 600  ZST600     -0.2452
     25  O3        16.9100   14.5640  -11.3880 O.co2 600  ZST600     -0.2452
     26  C19       12.0700    5.1380  -12.8020 C.3   600  ZST600      0.4153
     27  F1        12.0010    4.8780  -14.1340 F     600  ZST600     -0.1662
     28  F2        12.0470    3.9770  -12.1280 F     600  ZST600     -0.1662
     29  F3        10.9620    5.9100  -12.5210 F     600  ZST600     -0.1662
@<TRIPOS>BOND
     1    12    13    1
     2    12    10    1
     3    20    13    2
     4    20    15    2
     5    27    26    1
     6    13    21    1
     7    19    15    1
     8    19    18    2
     9    10    11   ar
    10    10     1   ar
    11    11     5   ar
    12    15    14    1
    13    26    18    1
    14    26    29    1
    15    26    28    1
    16    22     5    1
    17    22    23    1
    18     2     1    2
    19    18    17    1
    20     1     3   ar
    21     5     4   ar
    22    14    21    1
    23    14    16    2
    24    23    25   ar
    25    23    24   ar
    26     3     4   ar
    27     3     6   ar
    28     4     9   ar
    29    17    16    1
    30     6     7   ar
    31     9     8   ar
    32     8     7   ar
