@<TRIPOS>MOLECULE
3mb9_NAP_A_1.pdb
 48 52 0 0 0
SMALL
GASTEIGER

@<TRIPOS>ATOM
      1  PA        21.6870   20.9530  -18.7430 P.3   500  NAP500      0.2189
      2  O1A       21.1010   20.5480  -20.0310 O.2   500  NAP500     -0.5170
      3  O2A       21.1850   22.1140  -18.0060 O.3   500  NAP500     -0.4371
      4  O5B       23.2700   21.0200  -19.0550 O.3   500  NAP500     -0.3112
      5  C5B       24.1490   21.3920  -17.9790 C.3   500  NAP500      0.1813
      6  C4B       25.5820   21.2040  -18.5710 C.3   500  NAP500      0.1820
      7  O4B       25.7680   22.2390  -19.4950 O.3   500  NAP500     -0.3136
      8  C3B       26.6960   21.4060  -17.5000 C.3   500  NAP500      0.2157
      9  O3B       27.7720   20.5410  -17.9140 O.3   500  NAP500     -0.2175
     10  C2B       27.0510   22.9060  -17.7050 C.3   500  NAP500      0.2314
     11  O2B       28.4390   23.0870  -17.3510 O.3   500  NAP500     -0.2630
     12  C1B       26.8280   23.0950  -19.1840 C.3   500  NAP500      0.3158
     13  N9A       26.5000   24.4400  -19.5170 N.pl3 500  NAP500     -0.1439
     14  C8A       25.6130   25.3240  -18.9140 C.3   500  NAP500      0.3377
     15  N7A       25.5150   26.4830  -19.5090 N.2   500  NAP500     -0.2095
     16  C5A       26.3850   26.3730  -20.5770 C.2   500  NAP500      0.2526
     17  C6A       26.6600   27.3700  -21.5540 C.2   500  NAP500      0.4393
     18  N6A       26.1330   28.5850  -21.6230 N.pl3 500  NAP500      0.2180
     19  N1A       27.6070   26.9880  -22.5450 N.2   500  NAP500      0.0021
     20  C2A       28.1930   25.7160  -22.5170 C.3   500  NAP500      0.5254
     21  N3A       27.9080   24.7590  -21.5510 N.2   500  NAP500     -0.0055
     22  C4A       26.9800   25.1360  -20.5730 C.2   500  NAP500      0.3518
     23  O3        21.6840   19.6540  -17.7690 O.3   500  NAP500     -0.2703
     24  PN        20.9170   19.0830  -16.4890 P.3   500  NAP500      0.2189
     25  O1N       21.6760   19.4790  -15.2710 O.3   500  NAP500     -0.4371
     26  O2N       20.6900   17.6200  -16.7470 O.2   500  NAP500     -0.5170
     27  O5D       19.4360   19.6900  -16.5300 O.3   500  NAP500     -0.3112
     28  C5D       19.0720   21.0330  -16.0430 C.3   500  NAP500      0.1813
     29  C4D       18.4820   20.8380  -14.6500 C.3   500  NAP500      0.1799
     30  O4D       17.1990   20.1350  -14.7430 O.3   500  NAP500     -0.3327
     31  C3D       19.2510   20.0070  -13.5900 C.3   500  NAP500      0.2158
     32  O3D       20.4550   20.5190  -13.0770 O.3   500  NAP500     -0.2175
     33  C2D       18.1040   19.6870  -12.6090 C.3   500  NAP500      0.2309
     34  O2D       17.9420   20.8210  -11.7520 O.3   500  NAP500     -0.2158
     35  C1D       16.9290   19.4340  -13.4980 C.3   500  NAP500      0.2263
     36  N1N       16.7460   17.9860  -13.9740 N.pl3 500  NAP500     -0.2787
     37  C2N       15.6070   17.3880  -13.4120 C.3   500  NAP500      0.1244
     38  C3N       15.4710   16.0120  -13.6500 C.2   500  NAP500      0.0544
     39  C7N       14.2430   15.2570  -13.0740 C.2   500  NAP500      0.2818
     40  O7N       14.2520   14.0280  -13.1000 O.2   500  NAP500     -0.2670
     41  N7N       13.2830   16.0310  -12.6030 N.am  500  NAP500     -0.0839
     42  C4N       16.4450   15.2820  -14.4180 C.2   500  NAP500      0.0033
     43  C5N       17.5890   15.9310  -14.9720 C.2   500  NAP500      0.0157
     44  C6N       17.7380   17.3250  -14.7450 C.2   500  NAP500      0.0633
     45  P2B       28.9290   23.8490  -15.9890 P.3   500  NAP500      0.5328
     46  O1X       29.0910   25.3340  -16.3900 O.2   500  NAP500     -0.2224
     47  O2X       27.8940   23.5850  -14.9600 O.3   500  NAP500     -0.1145
     48  O3X       30.2670   23.1540  -15.7070 O.3   500  NAP500     -0.1145
@<TRIPOS>BOND
     1    19    20    1
     2    19    17    2
     3    20    21    1
     4    18    17    1
     5    17    16    1
     6    21    22    2
     7    16    22    1
     8    16    15    2
     9    22    13    1
    10     2     1    2
    11    13    12    1
    12    13    14    1
    13    15    14    1
    14     7    12    1
    15     7     6    1
    16    12    10    1
    17     4     1    1
    18     4     5    1
    19     1     3    1
    20     1    23    1
    21     6     5    1
    22     6     8    1
    23     9     8    1
    24    23    24    1
    25    10     8    1
    26    10    11    1
    27    11    45    1
    28    26    24    2
    29    27    24    1
    30    27    28    1
    31    24    25    1
    32    46    45    2
    33    28    29    1
    34    45    48    1
    35    45    47    1
    36    43    44    2
    37    43    42    1
    38    44    36    1
    39    30    29    1
    40    30    35    1
    41    29    31    1
    42    42    38    2
    43    36    35    1
    44    36    37    1
    45    38    37    1
    46    38    39    1
    47    31    32    1
    48    31    33    1
    49    35    33    1
    50    40    39    2
    51    39    41   am
    52    33    34    1
