@<TRIPOS>MOLECULE
3mba_HEM_A_1.pdb
 43 50 0 0 0
SMALL
GASTEIGER

@<TRIPOS>ATOM
      1 FE        -58.3030  -37.5760  -32.4810 Fe    148  HEM148      0.0000
      2  CHA      -59.3130  -34.2930  -32.5070 C.2   148  HEM148      0.0000
      3  CHB      -59.2080  -37.7370  -29.0730 C.2   148  HEM148      0.0000
      4  CHC      -57.2580  -40.8500  -32.1960 C.2   148  HEM148      0.0000
      5  CHD      -57.4680  -37.4030  -35.6330 C.2   148  HEM148      0.0000
      6  NA       -59.0960  -36.2440  -31.0690 N.2   148  HEM148      0.0000
      7  C1A      -59.6220  -35.0030  -31.3600 C.2   148  HEM148      0.0000
      8  C2A      -60.2150  -34.4580  -30.1480 C.2   148  HEM148      0.0000
      9  C3A      -60.0570  -35.3820  -29.1820 C.2   148  HEM148      0.0000
     10  C4A      -59.4820  -36.5780  -29.7790 C.2   148  HEM148      0.0000
     11  CMA      -60.4700  -35.3590  -27.6930 C.3   148  HEM148      0.0000
     12  CAA      -60.7310  -33.0010  -30.0110 C.3   148  HEM148      0.0000
     13  CBA      -59.7700  -32.2430  -29.0780 C.3   148  HEM148      0.0000
     14  CGA      -59.8290  -30.7510  -29.0490 C.2   148  HEM148      0.0000
     15  O1A      -60.4860  -30.2150  -28.1330 O.co2 148  HEM148      0.0000
     16  O2A      -59.2100  -30.1350  -29.9410 O.co2 148  HEM148      0.0000
     17  NB       -58.1850  -39.0050  -30.8830 N.ar  148  HEM148      0.0000
     18  C1B      -58.6980  -38.9120  -29.5970 C.ar  148  HEM148      0.0000
     19  C2B      -58.4570  -40.1420  -28.8730 C.ar  148  HEM148      0.0000
     20  C3B      -57.8840  -41.0120  -29.7380 C.ar  148  HEM148      0.0000
     21  C4B      -57.8760  -40.3550  -31.0480 C.ar  148  HEM148      0.0000
     22  CMB      -59.1330  -40.4610  -27.5370 C.3   148  HEM148      0.0000
     23  CAB      -57.5610  -42.5100  -29.4960 C.2   148  HEM148      0.0000
     24  CBB      -56.4670  -43.2430  -29.7020 C.2   148  HEM148      0.0000
     25  NC       -57.5170  -38.8310  -33.5960 N.2   148  HEM148      0.0000
     26  C1C      -57.0670  -40.1200  -33.3660 C.2   148  HEM148      0.0000
     27  C2C      -56.5790  -40.7030  -34.6240 C.2   148  HEM148      0.0000
     28  C3C      -56.6420  -39.7090  -35.5390 C.2   148  HEM148      0.0000
     29  C4C      -57.1330  -38.5020  -34.8850 C.2   148  HEM148      0.0000
     30  CMC      -56.1480  -42.1790  -34.7390 C.3   148  HEM148      0.0000
     31  CAC      -56.1190  -39.6430  -36.9730 C.3   148  HEM148      0.0000
     32  CBC      -55.9380  -40.8930  -37.3940 C.3   148  HEM148      0.0000
     33  ND       -58.3290  -36.1410  -33.7790 N.ar  148  HEM148      0.0000
     34  C1D      -58.0100  -36.2720  -35.1040 C.ar  148  HEM148      0.0000
     35  C2D      -58.1870  -35.0230  -35.8350 C.ar  148  HEM148      0.0000
     36  C3D      -58.6280  -34.1320  -34.9400 C.ar  148  HEM148      0.0000
     37  C4D      -58.8960  -34.8750  -33.7030 C.ar  148  HEM148      0.0000
     38  CMD      -57.7490  -34.8390  -37.3060 C.3   148  HEM148      0.0000
     39  CAD      -59.0750  -32.6810  -35.2300 C.3   148  HEM148      0.0000
     40  CBD      -58.2380  -31.5080  -34.6700 C.3   148  HEM148      0.0000
     41  CGD      -56.8410  -31.5880  -35.2360 C.2   148  HEM148      0.0000
     42  O1D      -56.7020  -31.5400  -36.4820 O.co2 148  HEM148      0.0000
     43  O2D      -55.9030  -31.7270  -34.4250 O.co2 148  HEM148      0.0000
@<TRIPOS>BOND
     1    32    31    1
     2    38    35    1
     3    31    28    1
     4    42    41   ar
     5    35    34   ar
     6    35    36   ar
     7     5    34    2
     8     5    29    1
     9    28    29    1
    10    28    27    2
    11    41    40    1
    12    41    43   ar
    13    39    36    1
    14    39    40    1
    15    34    33   ar
    16    36    37   ar
    17    29    25    2
    18    30    27    1
    19    27    26    1
    20    33    37   ar
    21    33     1    1
    22    37     2    2
    23    25    26    1
    24    25     1    1
    25    26     4    2
    26     2     7    1
    27     1     6    1
    28     1    17    1
    29     4    21    1
    30     7     6    2
    31     7     8    1
    32     6    10    1
    33    21    17   ar
    34    21    20   ar
    35    17    18   ar
    36     8    12    1
    37     8     9    2
    38    12    13    1
    39    16    14   ar
    40    10     9    1
    41    10     3    2
    42    20    23    1
    43    20    19   ar
    44    24    23    2
    45    18     3    1
    46    18    19   ar
    47     9    11    1
    48    13    14    1
    49    14    15   ar
    50    19    22    1
