@<TRIPOS>MOLECULE
3mbc_NAP_A_1.pdb
 31 33 0 0 0
SMALL
GASTEIGER

@<TRIPOS>ATOM
      1  PA        35.9040   16.1080   27.4990 P.3   740  NAP740      0.2231
      2  O1A       34.6090   15.4460   27.1900 O.3   740  NAP740     -0.4370
      3  O2A       36.9540   15.6550   26.5590 O.2   740  NAP740     -0.5169
      4  O5B       35.7740   17.7370   27.4590 O.3   740  NAP740     -0.3111
      5  C5B       34.5430   18.4530   27.4180 C.3   740  NAP740      0.1813
      6  C4B       34.5610   19.4040   26.2230 C.3   740  NAP740      0.1820
      7  O4B       34.8330   18.6550   25.0490 O.3   740  NAP740     -0.3136
      8  C3B       33.2450   20.1320   25.9310 C.3   740  NAP740      0.2157
      9  O3B       33.0710   21.3210   26.6560 O.3   740  NAP740     -0.2175
     10  C2B       33.3170   20.3640   24.4330 C.3   740  NAP740      0.2314
     11  O2B       34.1460   21.4450   24.0400 O.3   740  NAP740     -0.2630
     12  C1B       33.9750   19.0740   23.9900 C.3   740  NAP740      0.3158
     13  N9A       32.9460   18.0550   23.7130 N.pl3 740  NAP740     -0.1439
     14  C8A       32.7880   16.8270   24.3170 C.3   740  NAP740      0.3377
     15  N7A       31.7140   16.2060   23.7590 N.2   740  NAP740     -0.2095
     16  C5A       31.1950   17.0010   22.8030 C.2   740  NAP740      0.2526
     17  C6A       30.1310   16.8490   21.9260 C.2   740  NAP740      0.4393
     18  N6A       29.3570   15.7550   21.9040 N.pl3 740  NAP740      0.2180
     19  N1A       29.8540   17.8790   21.0840 N.2   740  NAP740      0.0021
     20  C2A       30.6070   19.0340   21.0230 C.3   740  NAP740      0.5254
     21  N3A       31.6940   19.1740   21.8780 N.2   740  NAP740     -0.0055
     22  C4A       31.9660   18.1730   22.7600 C.2   740  NAP740      0.3518
     23  O3        36.3010   15.7350   29.0220 O.3   740  NAP740     -0.2261
     24  PN        35.7850   14.5520   29.9980 P.3   740  NAP740      0.5373
     25  O1N       36.9920   14.4040   31.0550 O.3   740  NAP740     -0.1143
     26  O2N       34.5960   15.0270   30.7490 O.3   740  NAP740     -0.1143
     27  O5D       35.7160   13.3050   29.1990 O.2   740  NAP740     -0.2221
     28  P2B       33.6600   22.9610   23.7760 P.3   740  NAP740      0.5328
     29  O1X       34.6910   23.6850   22.9650 O.2   740  NAP740     -0.2224
     30  O2X       33.5310   23.6250   25.1300 O.3   740  NAP740     -0.1145
     31  O3X       32.3300   23.0400   23.0510 O.3   740  NAP740     -0.1145
@<TRIPOS>BOND
     1    20    19    1
     2    20    21    1
     3    19    17    2
     4    21    22    2
     5    18    17    1
     6    17    16    1
     7    22    16    1
     8    22    13    1
     9    16    15    2
    10    29    28    2
    11    31    28    1
    12    13    12    1
    13    13    14    1
    14    15    14    1
    15    28    11    1
    16    28    30    1
    17    12    10    1
    18    12     7    1
    19    11    10    1
    20    10     8    1
    21     7     6    1
    22     8     6    1
    23     8     9    1
    24     6     5    1
    25     3     1    2
    26     2     1    1
    27     5     4    1
    28     4     1    1
    29     1    23    1
    30    23    24    1
    31    27    24    2
    32    24    26    1
    33    24    25    1
