@<TRIPOS>MOLECULE
3mbf_2FP_A_1.pdb
 19 18 0 0 0
SMALL
GASTEIGER

@<TRIPOS>ATOM
      1  P6       -23.6140  -12.4820   -2.7280 P.3   345  2FP345      0.5327
      2  O6       -23.4840  -14.0490   -2.9600 O.3   345  2FP345     -0.2674
      3  C6       -22.9390  -14.5850   -4.1510 C.3   345  2FP345      0.1892
      4  C5       -22.6820  -16.0530   -3.8550 C.3   345  2FP345      0.2150
      5  O5       -23.9270  -16.7490   -3.6900 O.3   345  2FP345     -0.2176
      6  C4       -21.9140  -16.6880   -5.0060 C.3   345  2FP345      0.2190
      7  O4       -20.8410  -15.8040   -5.4250 O.3   345  2FP345     -0.2172
      8  C3       -21.4490  -18.0850   -4.5930 C.3   345  2FP345      0.2099
      9  O3       -20.4120  -18.0580   -3.6220 O.3   345  2FP345     -0.2154
     10  C2       -20.7340  -18.7980   -5.6830 C.2   345  2FP345      0.0494
     11  C1       -21.5080  -19.1870   -6.9360 C.2   345  2FP345      0.1812
     12  O1       -22.8780  -18.8620   -6.9170 O.2   345  2FP345     -0.3969
     13  O61      -24.1990  -12.3520   -1.3800 O.3   345  2FP345     -0.1145
     14  O62      -22.1330  -11.8000   -2.8030 O.3   345  2FP345     -0.1145
     15  O63      -24.3360  -11.8850   -3.9230 O.2   345  2FP345     -0.2224
     16  P1       -23.6530  -19.2360   -8.2920 P.3   345  2FP345      0.5887
     17  O11      -25.0780  -18.8770   -7.9360 O.3   345  2FP345     -0.1039
     18  O12      -23.1220  -18.4150   -9.5580 O.2   345  2FP345     -0.2114
     19  O13      -23.2920  -20.6880   -8.6200 O.3   345  2FP345     -0.1039
@<TRIPOS>BOND
     1    18    16    2
     2    19    16    1
     3    16    17    1
     4    16    12    1
     5    11    12    1
     6    11    10    2
     7    10     8    1
     8     7     6    1
     9     6     8    1
    10     6     4    1
    11     8     9    1
    12     3     4    1
    13     3     2    1
    14    15     1    2
    15     4     5    1
    16     2     1    1
    17    14     1    1
    18     1    13    1
