@<TRIPOS>MOLECULE
3mbh_PXL_A_1.pdb
 12 12 0 0 0
SMALL
GASTEIGER

@<TRIPOS>ATOM
      1  OP4       64.5820  103.1170    1.6040 O.3   400  PXL400     -0.2151
      2  C5A       63.3390  103.7280    1.2940 C.3   400  PXL400      0.2100
      3  C5        63.4830  105.2460    1.4490 C.ar  400  PXL400      0.0313
      4  C6        64.4930  105.8870    2.1380 C.ar  400  PXL400      0.0967
      5  N1        64.5700  107.2160    2.2050 N.ar  400  PXL400     -0.2452
      6  C2        63.6900  108.0940    1.6810 C.ar  400  PXL400      0.0979
      7  C3        62.5550  107.5300    0.9370 C.ar  400  PXL400      0.2073
      8  C4        62.4880  106.0550    0.8090 C.ar  400  PXL400      0.0507
      9  C4A       61.3980  105.3370    0.1520 C.3   400  PXL400      0.2116
     10  O4A       60.4500  106.0280   -0.0500 O.3   400  PXL400     -0.2151
     11  O3        61.6210  108.2650    0.3130 O.3   400  PXL400     -0.2856
     12  C2A       63.9550  109.5680    1.9390 C.3   400  PXL400      0.0555
@<TRIPOS>BOND
     1    10     9    1
     2     9     8    1
     3    11     7    1
     4     8     7   ar
     5     8     3   ar
     6     7     6   ar
     7     2     3    1
     8     2     1    1
     9     3     4   ar
    10     6    12    1
    11     6     5   ar
    12     4     5   ar
