@<TRIPOS>MOLECULE
3mbi_ADP_A_1.pdb
 27 29 0 0 0
SMALL
GASTEIGER

@<TRIPOS>ATOM
      1  PB        33.7980    1.3390    7.5470 P.3   288  ADP288      0.5373
      2  O1B       32.6320    1.5910    8.4500 O.3   288  ADP288     -0.1143
      3  O2B       35.0860    0.9350    8.2240 O.3   288  ADP288     -0.1143
      4  O3B       33.4820    0.5740    6.3010 O.2   288  ADP288     -0.2221
      5  PA        35.2980    3.8020    7.3990 P.3   288  ADP288      0.2231
      6  O1A       35.2200    5.0130    6.5240 O.2   288  ADP288     -0.5169
      7  O2A       36.5730    2.9830    7.4190 O.3   288  ADP288     -0.4370
      8  O3A       34.0760    2.8410    6.9790 O.3   288  ADP288     -0.2261
      9  O5'       34.9030    4.3020    8.8660 O.3   288  ADP288     -0.3111
     10  C5'       35.8150    5.1230    9.5800 C.3   288  ADP288      0.1813
     11  C4'       35.0030    6.0270   10.4910 C.3   288  ADP288      0.1821
     12  O4'       34.3070    5.2080   11.4350 O.3   288  ADP288     -0.3135
     13  C3'       35.9320    6.9410   11.2810 C.3   288  ADP288      0.2184
     14  O3'       35.3870    8.2670   11.2800 O.3   288  ADP288     -0.2174
     15  C2'       35.9050    6.3760   12.6820 C.3   288  ADP288      0.2570
     16  O2'       36.0970    7.3670   13.7030 O.3   288  ADP288     -0.2130
     17  C1'       34.5060    5.7900   12.7160 C.3   288  ADP288      0.3186
     18  N9        34.2970    4.8290   13.8110 N.pl3 288  ADP288     -0.1439
     19  C8        35.2110    4.3780   14.6760 C.3   288  ADP288      0.3377
     20  N7        34.6330    3.5310   15.5630 N.2   288  ADP288     -0.2095
     21  C5        33.3220    3.4460   15.2560 C.2   288  ADP288      0.2526
     22  C6        32.1350    2.7370   15.7770 C.2   288  ADP288      0.4393
     23  N6        32.2260    1.9060   16.8400 N.pl3 288  ADP288      0.2180
     24  N1        30.9550    2.9370   15.1600 N.2   288  ADP288      0.0021
     25  C2        30.8370    3.7540   14.0960 C.3   288  ADP288      0.5254
     26  N3        31.8740    4.4240   13.5740 N.2   288  ADP288     -0.0055
     27  C4        33.1130    4.3120   14.1040 C.2   288  ADP288      0.3518
@<TRIPOS>BOND
     1     4     1    2
     2     6     5    2
     3     8     5    1
     4     8     1    1
     5     5     7    1
     6     5     9    1
     7     1     3    1
     8     1     2    1
     9     9    10    1
    10    10    11    1
    11    11    13    1
    12    11    12    1
    13    14    13    1
    14    13    15    1
    15    12    17    1
    16    15    17    1
    17    15    16    1
    18    17    18    1
    19    26    25    1
    20    26    27    2
    21    18    27    1
    22    18    19    1
    23    25    24    1
    24    27    21    1
    25    19    20    1
    26    24    22    2
    27    21    20    2
    28    21    22    1
    29    22    23    1
