@<TRIPOS>MOLECULE
3mbi_HSX_D_1.pdb
 14 14 0 0 0
SMALL
GASTEIGER

@<TRIPOS>ATOM
      1  C1'       71.8660    2.7520   52.5430 C.3   286  HSX286      0.3023
      2  O1'       70.5140    2.3310   52.8160 O.3   286  HSX286     -0.3237
      3  C2'       72.0870    4.1690   53.0830 C.3   286  HSX286      0.2433
      4  O2'       73.2850    4.1480   53.8660 O.3   286  HSX286     -0.2148
      5  C3'       70.8810    4.4180   53.9800 C.3   286  HSX286      0.2168
      6  O3'       71.1740    4.1130   55.3500 O.3   286  HSX286     -0.2175
      7  C4'       69.8330    3.4500   53.4340 C.3   286  HSX286      0.1809
      8  C5'       68.9900    4.1890   52.4050 C.3   286  HSX286      0.1859
      9  O5'       68.0560    3.2830   51.8050 O.3   286  HSX286     -0.2675
     10  P'        66.4890    3.3970   52.1780 P.3   286  HSX286      0.5327
     11  O1X       65.7570    2.5950   51.1940 O.2   286  HSX286     -0.2224
     12  O2X       66.0800    4.9450   52.1810 O.3   286  HSX286     -0.1145
     13  O3X       66.4060    2.8310   53.6690 O.3   286  HSX286     -0.1145
     14  O1        72.7600    1.8980   53.2600 O.3   286  HSX286     -0.1869
@<TRIPOS>BOND
     1    11    10    2
     2     9    10    1
     3     9     8    1
     4    10    12    1
     5    10    13    1
     6     8     7    1
     7     1     2    1
     8     1     3    1
     9     1    14    1
    10     2     7    1
    11     3     4    1
    12     3     5    1
    13     7     5    1
    14     5     6    1
