@<TRIPOS>MOLECULE
3mbl_LSG_A_1.pdb
 25 26 0 0 0
SMALL
GASTEIGER

@<TRIPOS>ATOM
      1  C1        35.9590   28.1310   43.4100 C.ar    7  LSG7        0.0368
      2  C2        36.8190   27.3050   42.6850 C.ar    7  LSG7        0.0324
      3  C3        36.3010   26.4990   41.6310 C.ar    7  LSG7        0.0073
      4  C4        34.9600   26.5160   41.2970 C.ar    7  LSG7        0.0193
      5  C5        34.0630   27.3150   41.9990 C.ar    7  LSG7        0.0994
      6  C6        34.6000   28.1440   43.0990 C.ar    7  LSG7        0.1557
      7  F7        33.7140   28.8930   43.7720 F       7  LSG7       -0.2028
      8  I8        38.8950   27.2220   43.1730 I       7  LSG7       -0.0424
      9  N9        32.7170   27.3530   41.7890 N.pl3   7  LSG7       -0.1932
     10  C10       32.0440   26.6710   40.8290 C.ar    7  LSG7        0.1375
     11  N11       32.1490   25.3610   40.5930 N.ar    7  LSG7       -0.3102
     12  C12       31.3390   25.1350   39.5260 C.ar    7  LSG7        0.0962
     13  C13       30.6900   26.3240   39.0710 C.ar    7  LSG7        0.0276
     14  C14       31.0990   27.3460   39.8960 C.ar    7  LSG7        0.0903
     15  C15       30.8190   28.7990   40.0490 C.2     7  LSG7        0.2928
     16  O16       31.2800   29.3920   41.0480 O.2     7  LSG7       -0.2660
     17  N17       30.0550   29.4550   39.1800 N.am    7  LSG7       -0.0577
     18  O18       29.6830   30.8670   39.4560 O.3     7  LSG7       -0.2409
     19  C19       28.5140   31.5320   38.9290 C.3     7  LSG7        0.2088
     20  C20       28.1550   32.7440   39.7870 C.3     7  LSG7        0.2167
     21  O21       27.1380   33.5050   39.1040 O.3     7  LSG7       -0.2175
     22  C22       33.0240   24.4060   41.3140 C.3     7  LSG7        0.1318
     23  C23       31.1730   23.8080   38.8880 C.2     7  LSG7        0.1891
     24  O24       31.8090   22.7950   39.2000 O.2     7  LSG7       -0.2898
     25  C25       30.1550   23.8370   37.7960 C.3     7  LSG7        0.0789
@<TRIPOS>BOND
     1    25    23    1
     2    23    24    2
     3    23    12    1
     4    19    18    1
     5    19    20    1
     6    13    12   ar
     7    13    14   ar
     8    21    20    1
     9    17    18    1
    10    17    15   am
    11    12    11   ar
    12    14    15    1
    13    14    10   ar
    14    15    16    2
    15    11    10   ar
    16    11    22    1
    17    10     9    1
    18     4     3   ar
    19     4     5   ar
    20     3     2   ar
    21     9     5    1
    22     5     6   ar
    23     2     8    1
    24     2     1   ar
    25     6     1   ar
    26     6     7    1
