@<TRIPOS>MOLECULE
3mbl_ADP_A_1.pdb
 27 29 0 0 0
SMALL
GASTEIGER

@<TRIPOS>ATOM
      1  PB        30.7680   36.6330   38.8980 P.3   535  ADP535      0.5373
      2  O1B       32.0690   35.8570   38.8410 O.3   535  ADP535     -0.1143
      3  O2B       30.9150   38.1410   38.9530 O.3   535  ADP535     -0.1143
      4  O3B       29.7570   36.0880   37.9120 O.2   535  ADP535     -0.2221
      5  PA        30.5690   35.4070   41.4970 P.3   535  ADP535      0.2231
      6  O1A       29.3930   34.9570   42.2850 O.3   535  ADP535     -0.4370
      7  O2A       31.4920   34.2650   41.0490 O.2   535  ADP535     -0.5169
      8  O3A       30.0890   36.3660   40.3330 O.3   535  ADP535     -0.2261
      9  O5'       31.4720   36.4520   42.2740 O.3   535  ADP535     -0.3111
     10  C5'       31.0450   37.5510   43.0400 C.3   535  ADP535      0.1813
     11  C4'       32.2660   38.4670   43.1890 C.3   535  ADP535      0.1821
     12  O4'       32.9640   38.1990   44.3970 O.3   535  ADP535     -0.3135
     13  C3'       33.3100   38.2680   42.1130 C.3   535  ADP535      0.2184
     14  O3'       33.0250   39.1990   41.1010 O.3   535  ADP535     -0.2174
     15  C2'       34.5890   38.7010   42.7760 C.3   535  ADP535      0.2570
     16  O2'       34.6720   40.1090   42.6710 O.3   535  ADP535     -0.2130
     17  C1'       34.3530   38.3920   44.2180 C.3   535  ADP535      0.3186
     18  N9        35.0130   37.1150   44.5610 N.pl3 535  ADP535     -0.1439
     19  C8        34.6300   35.9050   44.1990 C.3   535  ADP535      0.3377
     20  N7        35.4940   34.9830   44.6820 N.2   535  ADP535     -0.2095
     21  C5        36.4420   35.6390   45.3790 C.2   535  ADP535      0.2526
     22  C6        37.6420   35.2990   46.1610 C.2   535  ADP535      0.4393
     23  N6        38.0170   33.9980   46.2780 N.pl3 535  ADP535      0.2180
     24  N1        38.3730   36.3180   46.7140 N.2   535  ADP535      0.0021
     25  C2        38.0580   37.6070   46.5880 C.3   535  ADP535      0.5254
     26  N3        36.9720   37.9730   45.9040 N.2   535  ADP535     -0.0055
     27  C4        36.1410   37.0480   45.2940 C.2   535  ADP535      0.3518
@<TRIPOS>BOND
     1     4     1    2
     2     2     1    1
     3     1     3    1
     4     1     8    1
     5     8     5    1
     6     7     5    2
     7    14    13    1
     8     5     9    1
     9     5     6    1
    10    13    15    1
    11    13    11    1
    12     9    10    1
    13    16    15    1
    14    15    17    1
    15    10    11    1
    16    11    12    1
    17    19    18    1
    18    19    20    1
    19    17    12    1
    20    17    18    1
    21    18    27    1
    22    20    21    2
    23    27    21    1
    24    27    26    2
    25    21    22    1
    26    26    25    1
    27    22    23    1
    28    22    24    2
    29    25    24    1
