@<TRIPOS>MOLECULE
3mbm_717_A_1.pdb
 10 11 0 0 0
SMALL
GASTEIGER

@<TRIPOS>ATOM
      1  C1         9.2800  -27.1690  -15.5240 C.2   165  717165      0.1424
      2  N2         8.6630  -28.1290  -14.7480 N.2   165  717165     -0.3845
      3  C3         7.5120  -28.4180  -15.4310 C.2   165  717165      0.2181
      4  N4         7.4070  -27.7310  -16.5850 N.pl3 165  717165     -0.2491
      5  C5         8.5000  -26.9040  -16.6700 C.3   165  717165      0.1554
      6  C6         6.2820  -27.9800  -17.3680 C.2   165  717165      0.0752
      7  C7         5.4930  -28.9350  -16.7380 C.2   165  717165      0.0553
      8  S8         6.2240  -29.4670  -15.2040 S.3   165  717165     -0.0379
      9  C9        10.5770  -26.4740  -15.2020 C.3   165  717165      0.2377
     10  O10       11.5270  -26.7230  -16.2380 O.3   165  717165     -0.2126
@<TRIPOS>BOND
     1     6     7    2
     2     6     4    1
     3     7     8    1
     4     5     4    1
     5     5     1    1
     6     4     3    1
     7    10     9    1
     8     1     9    1
     9     1     2    2
    10     3     8    1
    11     3     2    2
