@<TRIPOS>MOLECULE
3mbo_UDP_A_1.pdb
 25 26 0 0 0
SMALL
GASTEIGER

@<TRIPOS>ATOM
      1  N1      -121.6290  -65.3960   -7.9510 N.am  382  UDP382     -0.1766
      2  C2      -123.0030  -65.4600   -7.7240 C.1   382  UDP382      0.2845
      3  N3      -123.7860  -64.3400   -7.9190 N.2   382  UDP382     -0.2452
      4  C4      -123.2160  -63.1530   -8.3330 C.1   382  UDP382      0.2182
      5  C5      -121.8460  -63.0780   -8.5560 C.2   382  UDP382      0.1242
      6  C6      -121.0660  -64.2150   -8.3710 C.2   382  UDP382      0.0929
      7  O2      -123.5560  -66.4960   -7.3520 O.2   382  UDP382     -0.1918
      8  O4      -123.9220  -62.1630   -8.5040 O.2   382  UDP382     -0.2085
      9  C1'     -120.7540  -66.5760   -7.7410 C.3   382  UDP382      0.2401
     10  C2'     -120.8330  -67.5570   -8.9040 C.3   382  UDP382      0.2319
     11  O2'     -121.5680  -68.7070   -8.5380 O.3   382  UDP382     -0.2157
     12  C3'     -119.3920  -67.9020   -9.2270 C.3   382  UDP382      0.2158
     13  C4'     -118.5320  -67.0710   -8.2880 C.3   382  UDP382      0.1799
     14  O4'     -119.3980  -66.1730   -7.6170 O.3   382  UDP382     -0.3320
     15  O3'     -119.1560  -69.2670   -8.9700 O.3   382  UDP382     -0.2175
     16  C5'     -117.3650  -66.3830   -9.0060 C.3   382  UDP382      0.1813
     17  O5'     -117.6450  -65.0410   -9.3800 O.3   382  UDP382     -0.3111
     18  PA      -116.5150  -63.8740   -9.4730 P.3   382  UDP382      0.2231
     19  O1A     -116.8160  -62.8140   -8.4800 O.3   382  UDP382     -0.4370
     20  O2A     -116.4320  -63.2930  -10.8370 O.2   382  UDP382     -0.5169
     21  O3A     -115.1370  -64.5950   -9.0420 O.3   382  UDP382     -0.2261
     22  PB      -114.1640  -65.3140  -10.1140 P.3   382  UDP382      0.5373
     23  O1B     -114.9690  -66.0510  -11.1210 O.2   382  UDP382     -0.2221
     24  O2B     -113.2850  -66.2800   -9.4090 O.3   382  UDP382     -0.1143
     25  O3B     -113.3550  -64.2710  -10.7890 O.3   382  UDP382     -0.1143
@<TRIPOS>BOND
     1    23    22    2
     2    20    18    2
     3    25    22    1
     4    22    24    1
     5    22    21    1
     6    18    17    1
     7    18    21    1
     8    18    19    1
     9    17    16    1
    10    12    15    1
    11    12    10    1
    12    12    13    1
    13    16    13    1
    14    10    11    1
    15    10     9    1
    16     5     6    2
    17     5     4    1
    18     8     4    2
    19     6     1    1
    20     4     3    2
    21    13    14    1
    22     1     9    1
    23     1     2   am
    24     3     2    2
    25     9    14    1
    26     2     7    2
