@<TRIPOS>MOLECULE
3mbp_GLC_A_1.pdb
 11 11 0 0 0
SMALL
GASTEIGER

@<TRIPOS>ATOM
      1  C1        11.3340   20.6710   42.3890 C.3   373  GLC373      0.1777
      2  C2        10.1340   21.4530   42.7730 C.3   373  GLC373      0.2141
      3  C3         9.5240   22.1090   41.5220 C.3   373  GLC373      0.2173
      4  C4        10.6180   22.9450   40.8570 C.3   373  GLC373      0.2142
      5  C5        11.8180   22.0600   40.4690 C.3   373  GLC373      0.1810
      6  C6        12.9860   22.9010   40.0170 C.3   373  GLC373      0.2141
      7  O2         9.1800   20.6120   43.4430 O.3   373  GLC373     -0.2176
      8  O3         8.5130   23.0530   41.8910 O.3   373  GLC373     -0.2175
      9  O4        10.1710   23.5250   39.7040 O.3   373  GLC373     -0.2176
     10  O5        12.2580   21.3890   41.6830 O.3   373  GLC373     -0.3481
     11  O6        14.0070   22.0720   39.4630 O.3   373  GLC373     -0.2176
@<TRIPOS>BOND
     1    11     6    1
     2     9     4    1
     3     6     5    1
     4     5     4    1
     5     5    10    1
     6     4     3    1
     7     3     8    1
     8     3     2    1
     9    10     1    1
    10     1     2    1
    11     2     7    1
