@<TRIPOS>MOLECULE
3mbv_RET_A_1.pdb
 20 20 0 0 0
SMALL
GASTEIGER

@<TRIPOS>ATOM
      1  C1        -1.3350   17.1660   60.0400 C.3   301  RET301      0.0152
      2  C2        -2.2480   16.9460   61.2350 C.3   301  RET301      0.0037
      3  C3        -3.7280   16.9070   60.9710 C.3   301  RET301      0.0006
      4  C4        -4.1180   15.8990   59.8940 C.3   301  RET301      0.0040
      5  C5        -3.1980   16.0170   58.6970 C.3   301  RET301      0.0183
      6  C6        -1.8860   16.5430   58.7430 C.2   301  RET301     -0.0452
      7  C7        -1.1510   16.5620   57.5370 C.2   301  RET301     -0.0088
      8  C8         0.1530   17.0410   57.3190 C.2   301  RET301     -0.0049
      9  C9         0.8760   17.0350   56.0970 C.2   301  RET301     -0.0219
     10  C10        2.1800   17.5820   56.1560 C.2   301  RET301     -0.0043
     11  C11        3.0730   17.6020   55.0890 C.2   301  RET301     -0.0006
     12  C12        4.2870   18.2200   55.3260 C.2   301  RET301     -0.0043
     13  C13        5.3130   18.3890   54.3940 C.2   301  RET301     -0.0218
     14  C14        6.4240   19.1090   54.8450 C.2   301  RET301     -0.0043
     15  C15        7.5750   19.4040   54.1480 C.2   301  RET301     -0.0003
     16  C16       -1.1350   18.6760   59.7830 C.3   301  RET301      0.0040
     17  C17        0.0300   16.5350   60.4280 C.3   301  RET301      0.0040
     18  C18       -3.7730   15.3620   57.4120 C.3   301  RET301      0.0043
     19  C19        0.3660   16.3820   54.7370 C.3   301  RET301      0.0310
     20  C20        5.2590   17.7790   52.9400 C.3   301  RET301      0.0310
@<TRIPOS>BOND
     1    20    13    1
     2    15    14    2
     3    13    14    1
     4    13    12    2
     5    19     9    1
     6    11    12    1
     7    11    10    2
     8     9    10    1
     9     9     8    2
    10     8     7    1
    11    18     5    1
    12     7     6    2
    13     5     6    1
    14     5     4    1
    15     6     1    1
    16    16     1    1
    17     4     3    1
    18     1    17    1
    19     1     2    1
    20     3     2    1
