@<TRIPOS>MOLECULE
3mby_8DG_A_1.pdb
 32 34 0 0 0
SMALL
GASTEIGER

@<TRIPOS>ATOM
      1  PG         3.9310    1.3160   16.2210 P.3   338  8DG338      0.5373
      2  O1G        5.2610    1.2330   16.8840 O.3   338  8DG338     -0.1143
      3  O2G        2.9920    0.1830   16.3620 O.2   338  8DG338     -0.2221
      4  O3G        3.2490    2.4960   16.8080 O.3   338  8DG338     -0.1143
      5  O3B        4.1670    1.5330   14.7310 O.3   338  8DG338     -0.2258
      6  PB         3.7240    2.6790   13.8360 P.3   338  8DG338      0.2277
      7  O1B        3.7970    2.1290   12.4600 O.2   338  8DG338     -0.5168
      8  O2B        2.4320    3.2250   14.3330 O.3   338  8DG338     -0.4368
      9  O3A        4.7690    3.7720   13.8250 O.3   338  8DG338     -0.2700
     10  PA         4.9070    4.9970   14.6970 P.3   338  8DG338      0.2189
     11  O1A        3.7360    5.0940   15.6100 O.3   338  8DG338     -0.4371
     12  O2A        6.2710    4.9940   15.2780 O.2   338  8DG338     -0.5170
     13  O5'        4.8690    6.2550   13.7210 O.3   338  8DG338     -0.3112
     14  C5'        3.6960    6.5820   12.9910 C.3   338  8DG338      0.1812
     15  C4'        3.9950    6.6260   11.5070 C.3   338  8DG338      0.1773
     16  O4'        4.9650    7.6580   11.2130 O.3   338  8DG338     -0.3338
     17  C3'        4.6510    5.3970   10.8980 C.3   338  8DG338      0.1857
     18  O3'        3.7080    4.3540   10.6760 O.3   338  8DG338     -0.2203
     19  C2'        5.1830    5.9450    9.5730 C.3   338  8DG338      0.0875
     20  C1'        5.5240    7.3950    9.9360 C.3   338  8DG338      0.2114
     21  N9         6.9660    7.6330    9.9660 N.am  338  8DG338     -0.1521
     22  C8         7.6290    8.4010    8.9980 C.1   338  8DG338      0.2771
     23  N7         8.9500    8.3750    9.2910 N.2   338  8DG338     -0.3037
     24  C5         9.1130    7.6060   10.4290 C.2   338  8DG338      0.2850
     25  C6        10.2850    7.2400   11.1340 C.1   338  8DG338      0.2509
     26  O6        11.4570    7.5370   10.8850 O.2   338  8DG338     -0.2058
     27  N1         9.9920    6.4360   12.2310 N.2   338  8DG338     -0.2475
     28  C2         8.7360    6.0330   12.5980 C.1   338  8DG338      0.2532
     29  N2         8.6650    5.2570   13.6900 N.pl3 338  8DG338     -0.0226
     30  N3         7.6310    6.3640   11.9430 N.2   338  8DG338     -0.3052
     31  C4         7.8940    7.1450   10.8740 C.2   338  8DG338      0.2558
     32  O8         7.0660    8.9680    8.0550 O.2   338  8DG338     -0.1925
@<TRIPOS>BOND
     1    32    22    2
     2    22    23    2
     3    22    21   am
     4    23    24    2
     5    19    20    1
     6    19    17    1
     7    20    21    1
     8    20    16    1
     9    21    31    1
    10    24    31    1
    11    24    25    1
    12    18    17    1
    13    31    30    2
    14    26    25    2
    15    17    15    1
    16    25    27    2
    17    16    15    1
    18    15    14    1
    19    30    28    2
    20    27    28    2
    21     7     6    2
    22    28    29    1
    23    14    13    1
    24    13    10    1
    25     9     6    1
    26     9    10    1
    27     6     8    1
    28     6     5    1
    29    10    12    2
    30    10    11    1
    31     5     1    1
    32     1     3    2
    33     1     4    1
    34     1     2    1
