@<TRIPOS>MOLECULE
3mbz_MXC_A_1.pdb
 29 30 0 0 0
SMALL
GASTEIGER

@<TRIPOS>ATOM
      1  C1       107.7910   32.8210   27.8330 C.ar  276  MXC276      0.0596
      2  C2       107.0570   31.6450   27.9670 C.ar  276  MXC276      0.0222
      3  C3       105.8770   31.6250   28.7000 C.ar  276  MXC276      0.0652
      4  C4       105.0370   30.6230   28.9550 C.ar  276  MXC276      0.0186
      5  C5       104.0460   31.0730   29.7120 C.ar  276  MXC276      0.0437
      6  C6       104.2250   32.4320   29.9670 C.ar  276  MXC276      0.1312
      7  C7       106.1500   34.0060   29.1730 C.ar  276  MXC276      0.0813
      8  C8       107.3390   34.0040   28.4360 C.ar  276  MXC276      0.0237
      9  C9       109.0900   32.7610   27.0110 C.2   276  MXC276      0.2843
     10  C10      102.8920   30.1720   30.1600 C.3   276  MXC276      0.2114
     11  C11      103.5760   33.5220   32.0970 C.3   276  MXC276      0.2197
     12  C12      104.4410   34.7770   32.2350 C.2   276  MXC276      0.3860
     13  C13      102.2010   33.7440   32.8030 C.3   276  MXC276      0.1769
     14  C14      101.6760   35.1980   32.6760 C.3   276  MXC276      0.0296
     15  C15      102.4250   33.3840   34.2980 C.3   276  MXC276      0.2338
     16  C16      101.4520   33.2640   36.3590 C.2   276  MXC276      0.4411
     17  N1       105.4070   32.8050   29.3140 N.ar  276  MXC276     -0.2927
     18  N2       109.8150   33.8780   27.0160 N.am  276  MXC276     -0.0837
     19  N3       103.4060   33.2230   30.6650 N.pl3 276  MXC276     -0.2099
     20  N4       100.1940   33.3020   36.8190 N.am  276  MXC276     -0.0475
     21  O1       102.0240   30.0680   29.2890 O.3   276  MXC276     -0.2151
     22  O2       109.4110   31.7350   26.4050 O.2   276  MXC276     -0.2667
     23  O3       104.7760   35.3360   31.1630 O.co2 276  MXC276     -0.2437
     24  O4       104.7080   35.1780   33.4010 O.co2 276  MXC276     -0.2437
     25  O5        99.6480   32.7240   32.9140 O.3   276  MXC276     -0.0781
     26  O6       101.3800   31.2560   32.0660 O.3   276  MXC276     -0.0781
     27  O7       101.8130   34.1490   35.3720 O.3   276  MXC276     -0.4306
     28  O8       102.2860   32.4440   36.7650 O.2   276  MXC276     -0.2228
     29  S1       100.9130   32.6210   32.1030 S.3   276  MXC276     -0.0158
@<TRIPOS>BOND
     1    22     9    2
     2     9    18   am
     3     9     1    1
     4     1     2   ar
     5     1     8   ar
     6     2     3   ar
     7     8     7   ar
     8     3     4   ar
     9     3    17   ar
    10     4     5   ar
    11     7    17   ar
    12    21    10    1
    13    17     6   ar
    14     5     6   ar
    15     5    10    1
    16     6    19    1
    17    19    11    1
    18    23    12   ar
    19    26    29    1
    20    11    12    1
    21    11    13    1
    22    29    13    1
    23    29    25    1
    24    12    24   ar
    25    14    13    1
    26    13    15    1
    27    15    27    1
    28    27    16    1
    29    16    28    2
    30    16    20   am
