@<TRIPOS>MOLECULE
3mc5_NAP_A_1.pdb
 48 52 0 0 0
SMALL
GASTEIGER

@<TRIPOS>ATOM
      1  PA        21.8480   21.1830  -18.5760 P.3   500  NAP500      0.2189
      2  O1A       21.2200   20.7440  -19.8500 O.2   500  NAP500     -0.5170
      3  O2A       21.3470   22.3200  -17.8360 O.3   500  NAP500     -0.4371
      4  O5B       23.4250   21.2610  -18.8920 O.3   500  NAP500     -0.3112
      5  C5B       24.3250   21.6420  -17.8140 C.3   500  NAP500      0.1813
      6  C4B       25.7460   21.4610  -18.4160 C.3   500  NAP500      0.1820
      7  O4B       25.9310   22.5140  -19.3620 O.3   500  NAP500     -0.3136
      8  C3B       26.8740   21.6680  -17.3860 C.3   500  NAP500      0.2157
      9  O3B       27.9240   20.7750  -17.7760 O.3   500  NAP500     -0.2175
     10  C2B       27.2530   23.1270  -17.5730 C.3   500  NAP500      0.2314
     11  O2B       28.6260   23.3020  -17.2030 O.3   500  NAP500     -0.2630
     12  C1B       27.0370   23.3230  -19.0630 C.3   500  NAP500      0.3158
     13  N9A       26.7340   24.6850  -19.3800 N.pl3 500  NAP500     -0.1439
     14  C8A       25.8390   25.5280  -18.7640 C.3   500  NAP500      0.3377
     15  N7A       25.7240   26.6990  -19.3240 N.2   500  NAP500     -0.2095
     16  C5A       26.5770   26.6510  -20.3900 C.2   500  NAP500      0.2526
     17  C6A       26.8990   27.6520  -21.3470 C.2   500  NAP500      0.4393
     18  N6A       26.3430   28.8420  -21.3880 N.pl3 500  NAP500      0.2180
     19  N1A       27.8350   27.2620  -22.3030 N.2   500  NAP500      0.0021
     20  C2A       28.4000   26.0160  -22.2700 C.3   500  NAP500      0.5254
     21  N3A       28.1340   25.0410  -21.3620 N.2   500  NAP500     -0.0055
     22  C4A       27.1920   25.4290  -20.4320 C.2   500  NAP500      0.3518
     23  O3        21.8590   19.8890  -17.6180 O.3   500  NAP500     -0.2703
     24  PN        21.0840   19.2940  -16.3690 P.3   500  NAP500      0.2189
     25  O1N       21.8310   19.7130  -15.1330 O.3   500  NAP500     -0.4371
     26  O2N       20.8680   17.8440  -16.6520 O.2   500  NAP500     -0.5170
     27  O5D       19.6280   19.9440  -16.3790 O.3   500  NAP500     -0.3112
     28  C5D       19.3170   21.2420  -15.7760 C.3   500  NAP500      0.1813
     29  C4D       18.6890   21.0450  -14.4170 C.3   500  NAP500      0.1799
     30  O4D       17.4030   20.3400  -14.5630 O.3   500  NAP500     -0.3327
     31  C3D       19.4260   20.1270  -13.4110 C.3   500  NAP500      0.2158
     32  O3D       20.5830   20.6980  -12.8800 O.3   500  NAP500     -0.2175
     33  C2D       18.2830   19.8650  -12.4060 C.3   500  NAP500      0.2309
     34  O2D       18.1140   21.0070  -11.6110 O.3   500  NAP500     -0.2158
     35  C1D       17.1280   19.6440  -13.3460 C.3   500  NAP500      0.2263
     36  N1N       16.9130   18.2090  -13.7570 N.pl3 500  NAP500     -0.2787
     37  C2N       15.8050   17.5770  -13.2110 C.3   500  NAP500      0.1244
     38  C3N       15.6310   16.2230  -13.4900 C.2   500  NAP500      0.0544
     39  C7N       14.4050   15.4550  -12.9750 C.2   500  NAP500      0.2818
     40  O7N       14.4170   14.2380  -13.0170 O.2   500  NAP500     -0.2670
     41  N7N       13.4130   16.2420  -12.5410 N.am  500  NAP500     -0.0839
     42  C4N       16.5490   15.4850  -14.2720 C.2   500  NAP500      0.0033
     43  C5N       17.6670   16.1600  -14.8440 C.2   500  NAP500      0.0157
     44  C6N       17.8230   17.5390  -14.6130 C.2   500  NAP500      0.0633
     45  P2B       29.1050   24.0840  -15.8390 P.3   500  NAP500      0.5328
     46  O1X       30.4630   23.4230  -15.5610 O.3   500  NAP500     -0.1145
     47  O2X       29.2390   25.5220  -16.2110 O.2   500  NAP500     -0.2224
     48  O3X       28.0440   23.8140  -14.7980 O.3   500  NAP500     -0.1145
@<TRIPOS>BOND
     1    19    20    1
     2    19    17    2
     3    20    21    1
     4    18    17    1
     5    21    22    2
     6    17    16    1
     7    22    16    1
     8    22    13    1
     9    16    15    2
    10     2     1    2
    11    13    12    1
    12    13    14    1
    13     7    12    1
    14     7     6    1
    15    15    14    1
    16    12    10    1
    17     4     1    1
    18     4     5    1
    19     1     3    1
    20     1    23    1
    21     6     5    1
    22     6     8    1
    23     9     8    1
    24    23    24    1
    25    10     8    1
    26    10    11    1
    27    11    45    1
    28    26    24    2
    29    27    24    1
    30    27    28    1
    31    24    25    1
    32    47    45    2
    33    45    46    1
    34    45    48    1
    35    28    29    1
    36    43    44    2
    37    43    42    1
    38    44    36    1
    39    30    29    1
    40    30    35    1
    41    29    31    1
    42    42    38    2
    43    36    35    1
    44    36    37    1
    45    38    37    1
    46    38    39    1
    47    31    32    1
    48    31    33    1
    49    35    33    1
    50    40    39    2
    51    39    41   am
    52    33    34    1
