@<TRIPOS>MOLECULE
3mc5_393_A_1.pdb
 25 26 0 0 0
SMALL
GASTEIGER

@<TRIPOS>ATOM
      1  C1        14.6790    6.6900  -13.3510 C.ar  600  393600      0.1426
      2  N2        13.9090    5.9580  -14.2020 N.pl3 600  393600      0.0577
      3  O3        14.2960    5.8150  -15.3810 O.2   600  393600     -0.1261
      4  O4        12.8600    5.4620  -13.8010 O.2   600  393600     -0.1261
      5  C5        15.7220    7.4480  -13.8830 C.ar  600  393600      0.0215
      6  C6        16.5480    8.2150  -13.0690 C.ar  600  393600      0.0011
      7  C7        17.6650    8.9820  -13.7430 C.3   600  393600      0.1418
      8  N8        18.3770    9.8680  -12.8360 N.am  600  393600     -0.1967
      9  C9        19.6350    9.4930  -12.4570 C.2   600  393600      0.2680
     10  C10       20.2620   10.3800  -11.4220 C.ar  600  393600      0.0890
     11  C11       21.0160    9.7780  -10.4250 C.ar  600  393600      0.0085
     12  C12       21.5540   10.5800   -9.4170 C.ar  600  393600      0.0117
     13  C13       21.3310   11.9470   -9.4100 C.ar  600  393600      0.0607
     14 CL1        21.9980   12.9150   -8.1270 Cl    600  393600     -0.0821
     15  C15       20.5810   12.5570  -10.4070 C.ar  600  393600      0.0484
     16  C16       20.0490   11.7700  -11.3950 C.ar  600  393600      0.1446
     17  O17       19.4670   12.3080  -12.5110 O.3   600  393600     -0.4635
     18  C18       18.8580   13.5780  -12.3800 C.3   600  393600      0.3186
     19  C19       17.5290   13.5360  -11.6480 C.2   600  393600      0.4084
     20  O20       17.0070   12.4240  -11.4690 O.co2 600  393600     -0.2415
     21  O21       17.0710   14.6570  -11.2820 O.co2 600  393600     -0.2415
     22  O22       20.0560    8.3610  -12.7260 O.2   600  393600     -0.2682
     23  C23       16.3440    8.1890  -11.7000 C.ar  600  393600     -0.0025
     24  C24       15.3140    7.4530  -11.1340 C.ar  600  393600      0.0014
     25  C25       14.4640    6.6850  -11.9550 C.ar  600  393600      0.0241
@<TRIPOS>BOND
     1     3     2    2
     2     2     4    2
     3     2     1    1
     4     5     1   ar
     5     5     6   ar
     6     7     6    1
     7     7     8    1
     8     1    25   ar
     9     6    23   ar
    10     8     9   am
    11    22     9    2
    12    17    18    1
    13    17    16    1
    14     9    10    1
    15    18    19    1
    16    25    24   ar
    17    23    24   ar
    18    19    20   ar
    19    19    21   ar
    20    10    16   ar
    21    10    11   ar
    22    16    15   ar
    23    11    12   ar
    24    15    13   ar
    25    12    13   ar
    26    13    14    1
