@<TRIPOS>MOLECULE
3mcn_B57_B_1.pdb
 12 12 0 0 0
SMALL
GASTEIGER

@<TRIPOS>ATOM
      1  O7        11.8550  -32.6590   23.9220 O.2   423  B57423     -0.2108
      2  C1        12.1530  -32.9280   25.0880 C.1   423  B57423      0.2278
      3  C6        13.4720  -33.1290   25.5080 C.3   423  B57423      0.3520
      4  N8        14.4600  -33.0010   24.6220 N.pl3 423  B57423      0.0583
      5  O10       15.8250  -33.0750   24.9870 O.2   423  B57423     -0.1294
      6  O9        14.1430  -32.7070   23.2930 O.2   423  B57423     -0.1294
      7  N2        11.1340  -33.0450   26.0180 N.2   423  B57423     -0.2518
      8  C3        11.4330  -33.3630   27.3370 C.1   423  B57423      0.2527
      9  N11       10.4320  -33.4770   28.1970 N.pl3 423  B57423     -0.0226
     10  N4        12.7050  -33.5480   27.7290 N.2   423  B57423     -0.3079
     11  C5        13.7330  -33.4310   26.8560 C.2   423  B57423      0.2546
     12  N12       14.9920  -33.6380   27.2920 N.pl3 423  B57423     -0.0934
@<TRIPOS>BOND
     1     6     4    2
     2     1     2    2
     3     4     5    2
     4     4     3    1
     5     2     3    1
     6     2     7    2
     7     3    11    1
     8     7     8    2
     9    11    12    1
    10    11    10    2
    11     8    10    2
    12     8     9    1
