@<TRIPOS>MOLECULE
3mco_PH2_A_1.pdb
 14 15 0 0 0
SMALL
GASTEIGER

@<TRIPOS>ATOM
      1  N1       -19.0680  -36.8580  -71.2480 N.2   423  PH2423     -0.3830
      2  C2       -19.2730  -36.8410  -69.9260 C.2   423  PH2423      0.1470
      3  C3       -20.5210  -37.1000  -69.3760 C.3   423  PH2423      0.1940
      4  N4       -21.5260  -37.3950  -70.1810 N.2   423  PH2423     -0.1992
      5  N5       -22.3710  -37.7040  -72.2960 N.2   423  PH2423     -0.2672
      6  C6       -22.2450  -37.7460  -73.6290 C.1   423  PH2423      0.2609
      7  N6       -23.2970  -38.0330  -74.3860 N.pl3 423  PH2423     -0.0220
      8  N7       -21.0230  -37.4900  -74.2380 N.2   423  PH2423     -0.2466
      9  C8       -19.9380  -37.2040  -73.4560 C.1   423  PH2423      0.2569
     10  O8       -18.8840  -36.9800  -74.0340 O.2   423  PH2423     -0.2052
     11  C9       -20.0840  -37.1580  -72.0640 C.2   423  PH2423      0.2989
     12  C10      -21.3310  -37.4240  -71.5090 C.1   423  PH2423      0.1401
     13  C11      -18.1190  -36.5270  -68.9950 C.3   423  PH2423      0.2380
     14  O4       -16.9180  -36.2880  -69.5630 O.3   423  PH2423     -0.2126
@<TRIPOS>BOND
     1     7     6    1
     2     8     6    2
     3     8     9    2
     4    10     9    2
     5     6     5    2
     6     9    11    1
     7     5    12    2
     8    11    12    1
     9    11     1    2
    10    12     4    2
    11     1     2    2
    12     4     3    1
    13     2     3    1
    14     2    13    1
    15    14    13    1
