@<TRIPOS>MOLECULE
3mco_APC_A_1.pdb
 31 33 0 0 0
SMALL
GASTEIGER

@<TRIPOS>ATOM
      1  PG       -14.9820  -38.7700  -67.4830 P.3   425  APC425      0.5389
      2  O1G      -13.5250  -39.1730  -67.5500 O.3   425  APC425     -0.1143
      3  O2G      -15.7890  -39.9180  -66.7650 O.3   425  APC425     -0.1143
      4  O3G      -15.5290  -38.5960  -68.9350 O.2   425  APC425     -0.2220
      5  PB       -14.4680  -36.0350  -67.1540 P.3   425  APC425      0.3895
      6  O1B      -13.7970  -36.1820  -68.4670 O.2   425  APC425     -0.2544
      7  O2B      -15.4960  -34.9600  -67.2320 O.3   425  APC425     -0.1388
      8  O3B      -15.1510  -37.3960  -66.7140 O.3   425  APC425     -0.2026
      9  PA       -12.0120  -34.3740  -66.3020 P.3   425  APC425      0.3820
     10  O1A      -12.0050  -34.0640  -67.7420 O.2   425  APC425     -0.2548
     11  O2A      -12.3170  -33.1600  -65.4680 O.3   425  APC425     -0.1392
     12  C3A      -13.2240  -35.6690  -65.8570 C.3   425  APC425      0.2357
     13  O5'      -10.5830  -34.8680  -65.9730 O.3   425  APC425     -0.2896
     14  C5'      -10.3310  -35.2060  -64.6420 C.3   425  APC425      0.1836
     15  C4'       -9.1810  -36.2050  -64.5400 C.3   425  APC425      0.1822
     16  O4'       -9.4290  -37.5860  -64.6590 O.3   425  APC425     -0.3135
     17  C3'       -7.8820  -35.8550  -65.2030 C.3   425  APC425      0.2184
     18  O3'       -7.2760  -34.7290  -64.6080 O.3   425  APC425     -0.2174
     19  C2'       -7.1090  -37.0900  -65.2550 C.3   425  APC425      0.2570
     20  O2'       -5.9200  -37.1810  -64.4950 O.3   425  APC425     -0.2130
     21  C1'       -8.1260  -38.2000  -65.0190 C.3   425  APC425      0.3186
     22  N9        -8.0810  -39.3880  -65.9850 N.pl3 425  APC425     -0.1439
     23  C8        -7.9410  -40.7050  -65.7300 C.3   425  APC425      0.3377
     24  N7        -7.9100  -41.3510  -66.9600 N.2   425  APC425     -0.2095
     25  C5        -8.0330  -40.3810  -67.9630 C.2   425  APC425      0.2526
     26  C6        -8.0730  -40.4870  -69.4860 C.2   425  APC425      0.4393
     27  N6        -7.9730  -41.7590  -70.1140 N.pl3 425  APC425      0.2180
     28  N1        -8.1920  -39.4050  -70.2160 N.2   425  APC425      0.0021
     29  C2        -8.2850  -38.1300  -69.6080 C.3   425  APC425      0.5254
     30  N3        -8.2480  -38.0160  -68.1580 N.2   425  APC425     -0.0055
     31  C4        -8.1260  -39.1810  -67.3950 C.2   425  APC425      0.3518
@<TRIPOS>BOND
     1    28    29    1
     2    28    26    2
     3    27    26    1
     4    29    30    1
     5    26    25    1
     6     4     1    2
     7     6     5    2
     8    30    31    2
     9    25    31    1
    10    25    24    2
    11    10     9    2
    12     2     1    1
    13     1     3    1
    14     1     8    1
    15    31    22    1
    16     7     5    1
    17     5     8    1
    18     5    12    1
    19    24    23    1
    20     9    13    1
    21     9    12    1
    22     9    11    1
    23    22    23    1
    24    22    21    1
    25    13    14    1
    26    19    17    1
    27    19    21    1
    28    19    20    1
    29    17    18    1
    30    17    15    1
    31    21    16    1
    32    16    15    1
    33    14    15    1
