@<TRIPOS>MOLECULE
3mct_SAH_A_1.pdb
 30 32 0 0 0
SMALL
GASTEIGER

@<TRIPOS>ATOM
      1  N         -4.1530   12.8210   24.1600 N.3   400  SAH400     -0.2362
      2  CA        -4.2080   11.8370   25.2460 C.3   400  SAH400      0.1728
      3  CB        -2.9140   11.0170   25.2800 C.3   400  SAH400      0.0403
      4  CG        -2.5810   10.2890   23.9790 C.3   400  SAH400      0.0596
      5  SD        -1.2100    9.1400   24.1450 S.3   400  SAH400     -0.1375
      6  C         -4.4210   12.5050   26.6190 C.2   400  SAH400      0.3800
      7  O         -4.9470   13.6360   26.6400 O.co2 400  SAH400     -0.2441
      8  OXT       -4.2700   11.8010   27.6480 O.co2 400  SAH400     -0.2441
      9  C5'       -1.2150    8.4800   22.4620 C.3   400  SAH400      0.0899
     10  C4'       -2.5550    7.7960   22.0540 C.3   400  SAH400      0.1629
     11  O4'       -2.5890    7.6450   20.6000 O.3   400  SAH400     -0.3154
     12  C3'       -2.7520    6.3740   22.7470 C.3   400  SAH400      0.2132
     13  O3'       -3.9050    6.3760   23.6450 O.3   400  SAH400     -0.2176
     14  C2'       -3.0160    5.5620   21.4810 C.3   400  SAH400      0.2171
     15  O2'       -3.9650    4.4710   21.6760 O.3   400  SAH400     -0.3762
     16  C1'       -3.5420    6.5870   20.4830 C.3   400  SAH400      0.3149
     17  N9        -3.5320    6.1540   19.0580 N.pl3 400  SAH400     -0.1440
     18  C8        -2.4680    5.6540   18.3150 C.3   400  SAH400      0.3377
     19  N7        -2.7890    5.4180   17.0850 N.2   400  SAH400     -0.2098
     20  C5        -4.1500    5.7780   16.9970 C.2   400  SAH400      0.2438
     21  C6        -5.0940    5.7640   15.9510 C.2   400  SAH400      0.3428
     22  N6        -4.8320    5.3350   14.7090 N.pl3 400  SAH400     -0.2449
     23  N1        -6.3350    6.1670   16.2290 N.2   400  SAH400     -0.0059
     24  C2        -6.6610    6.5670   17.4340 C.3   400  SAH400      0.5252
     25  N3        -5.8770    6.6270   18.4630 N.2   400  SAH400     -0.0055
     26  C4        -4.6140    6.2170   18.1900 C.2   400  SAH400      0.3515
     27  HN1       -4.3970   12.5140   23.2700 H     400  SAH400      0.1419
     28 HO2'       -3.8200    3.9170   20.9090 H     400  SAH400      0.2107
     29 HN61       -3.9070    5.0230   14.4600 H     400  SAH400      0.2885
     30 HN62       -5.5440    5.3020   13.9900 H     400  SAH400      0.2885
@<TRIPOS>BOND
     1    30    22    1
     2    29    22    1
     3    22    21    1
     4    21    23    2
     5    21    20    1
     6    23    24    1
     7    20    19    2
     8    20    26    1
     9    19    18    1
    10    24    25    1
    11    26    25    2
    12    26    17    1
    13    18    17    1
    14    17    16    1
    15    16    11    1
    16    16    14    1
    17    11    10    1
    18    28    15    1
    19    14    15    1
    20    14    12    1
    21    10     9    1
    22    10    12    1
    23     9     5    1
    24    12    13    1
    25    27     1    1
    26     4     5    1
    27     4     3    1
    28     1     2    1
    29     2     3    1
    30     2     6    1
    31     6     7   ar
    32     6     8   ar
