@<TRIPOS>MOLECULE
3mcv_NAP_A_1.pdb
 48 52 0 0 0
SMALL
GASTEIGER

@<TRIPOS>ATOM
      1  PA        13.8220  -12.6840   11.9130 P.3   269  NAP269      0.2189
      2  O1A       14.2760  -13.7290   10.9620 O.2   269  NAP269     -0.5170
      3  O2A       13.4440  -13.1560   13.2450 O.3   269  NAP269     -0.4371
      4  O5B       14.9620  -11.5730   12.1700 O.3   269  NAP269     -0.3112
      5  C5B       15.3940  -10.7800   11.0570 C.3   269  NAP269      0.1813
      6  C4B       16.8140  -10.3200   11.3190 C.3   269  NAP269      0.1820
      7  O4B       16.8410   -9.5430   12.5010 O.3   269  NAP269     -0.3136
      8  C3B       17.8020  -11.4420   11.6180 C.3   269  NAP269      0.2157
      9  O3B       18.2190  -12.0650   10.4350 O.3   269  NAP269     -0.2175
     10  C2B       18.9020  -10.6790   12.3420 C.3   269  NAP269      0.2314
     11  O2B       20.0460  -10.4180   11.5170 O.3   269  NAP269     -0.2630
     12  C1B       18.1870   -9.3690   12.7790 C.3   269  NAP269      0.3158
     13  N9A       18.5120   -9.1770   14.1990 N.pl3 269  NAP269     -0.1439
     14  C8A       18.1700   -9.9320   15.2880 C.3   269  NAP269      0.3377
     15  N7A       18.8150   -9.4440   16.3840 N.2   269  NAP269     -0.2095
     16  C5A       19.5610   -8.3660   15.9860 C.2   269  NAP269      0.2526
     17  C6A       20.4510   -7.5090   16.6650 C.2   269  NAP269      0.4393
     18  N6A       20.6810   -7.6170   17.9770 N.pl3 269  NAP269      0.2180
     19  N1A       21.0750   -6.5360   15.9360 N.2   269  NAP269      0.0021
     20  C2A       20.8440   -6.3760   14.5760 C.3   269  NAP269      0.5254
     21  N3A       20.0050   -7.2470   13.9210 N.2   269  NAP269     -0.0055
     22  C4A       19.3900   -8.2180   14.6220 C.2   269  NAP269      0.3518
     23  O3        12.6720  -11.7920   11.2490 O.3   269  NAP269     -0.2703
     24  PN        11.5410  -12.2830   10.2100 P.3   269  NAP269      0.2189
     25  O1N       12.0850  -12.3260    8.8560 O.2   269  NAP269     -0.5170
     26  O2N       10.9130  -13.4760   10.7810 O.3   269  NAP269     -0.4371
     27  O5D       10.5210  -11.0650   10.3880 O.3   269  NAP269     -0.3112
     28  C5D       10.8010   -9.7950    9.8080 C.3   269  NAP269      0.1813
     29  C4D       10.0460   -8.6980   10.5770 C.3   269  NAP269      0.1799
     30  O4D        8.6410   -8.9670   10.4970 O.3   269  NAP269     -0.3327
     31  C3D       10.4140   -8.5920   12.0540 C.3   269  NAP269      0.2158
     32  O3D       10.3880   -7.2440   12.4510 O.3   269  NAP269     -0.2175
     33  C2D        9.3320   -9.3980   12.7370 C.3   269  NAP269      0.2309
     34  O2D        9.1000   -8.9910   14.0780 O.3   269  NAP269     -0.2158
     35  C1D        8.1520   -9.1150   11.8060 C.3   269  NAP269      0.2263
     36  N1N        7.1340  -10.1590   11.9050 N.pl3 269  NAP269     -0.2787
     37  C2N        7.4510  -11.4090   11.4160 C.3   269  NAP269      0.1244
     38  C3N        6.5300  -12.4370   11.5480 C.2   269  NAP269      0.0544
     39  C7N        6.8640  -13.7980   11.0110 C.2   269  NAP269      0.2818
     40  O7N        5.8350  -14.7120   10.9600 O.2   269  NAP269     -0.2670
     41  N7N        8.1000  -14.0940   10.6010 N.am  269  NAP269     -0.0839
     42  C4N        5.2850  -12.2130   12.1630 C.2   269  NAP269      0.0033
     43  C5N        5.0070  -10.9350   12.6390 C.2   269  NAP269      0.0157
     44  C6N        5.9430   -9.9080   12.5190 C.2   269  NAP269      0.0633
     45  P2B       21.2550  -11.5030   11.3500 P.3   269  NAP269      0.5328
     46  O1X       22.1300  -10.8300   10.3370 O.2   269  NAP269     -0.2224
     47  O2X       20.6550  -12.8000   10.8270 O.3   269  NAP269     -0.1145
     48  O3X       21.9400  -11.7060   12.6810 O.3   269  NAP269     -0.1145
@<TRIPOS>BOND
     1    25    24    2
     2    28    27    1
     3    28    29    1
     4    24    27    1
     5    24    26    1
     6    24    23    1
     7    46    45    2
     8     9     8    1
     9    30    29    1
    10    30    35    1
    11    29    31    1
    12    41    39   am
    13    47    45    1
    14    40    39    2
    15     2     1    2
    16    39    38    1
    17     5     6    1
    18     5     4    1
    19    23     1    1
    20     6     8    1
    21     6     7    1
    22    45    11    1
    23    45    48    1
    24    37    38    1
    25    37    36    1
    26    11    10    1
    27    38    42    2
    28     8    10    1
    29    35    36    1
    30    35    33    1
    31    36    44    1
    32     1     4    1
    33     1     3    1
    34    31    32    1
    35    31    33    1
    36    42    43    1
    37    10    12    1
    38     7    12    1
    39    44    43    2
    40    33    34    1
    41    12    13    1
    42    21    20    1
    43    21    22    2
    44    13    22    1
    45    13    14    1
    46    20    19    1
    47    22    16    1
    48    14    15    1
    49    19    17    2
    50    16    15    2
    51    16    17    1
    52    17    18    1
