@<TRIPOS>MOLECULE
3mcv_MCV_A_1.pdb
 23 25 0 0 0
SMALL
GASTEIGER

@<TRIPOS>ATOM
      1  N1        10.8590  -13.3160   14.0600 N.2   300  MCV300     -0.3111
      2  C2        10.6060  -12.0650   14.5530 C.1   300  MCV300      0.2426
      3  N3         9.3770  -11.6910   14.9310 N.2   300  MCV300     -0.3228
      4  C4         8.3580  -12.5560   14.8010 C.2   300  MCV300      0.1636
      5  C5         8.5730  -13.8700   14.2990 C.3   300  MCV300      0.1493
      6  C6         9.8760  -14.2160   13.9160 C.2   300  MCV300      0.2207
      7  CAA        6.2380  -19.1570   19.2960 C.3   300  MCV300      0.2525
      8  CAB        1.9490  -15.8290   14.9520 C.3   300  MCV300      0.2525
      9  NAC       11.5590  -11.1720   14.6970 N.pl3 300  MCV300     -0.0232
     10  NAD       10.1520  -15.4450   13.4150 N.pl3 300  MCV300     -0.0962
     11  CAE        4.4820  -17.9590   17.5000 C.ar  300  MCV300      0.0400
     12  CAF        3.6430  -17.2390   16.6540 C.ar  300  MCV300      0.0397
     13  CAG        6.2920  -14.0230   14.7150 C.2   300  MCV300      0.0300
     14  CAH        6.2500  -17.8250   15.8770 C.ar  300  MCV300      0.0356
     15  CAI        5.9520  -16.6480   13.6650 C.3   300  MCV300      0.0339
     16  CAJ        7.3820  -16.0920   13.7050 C.3   300  MCV300      0.0282
     17  OAM        6.6670  -18.9390   17.9170 O.3   300  MCV300     -0.4714
     18  OAN        3.3330  -16.1040   14.5460 O.3   300  MCV300     -0.4717
     19  SAO        6.7430  -12.4250   15.2290 S.3   300  MCV300     -0.0582
     20  CAP        5.7910  -18.2610   17.1150 C.ar  300  MCV300      0.1386
     21  CAR        5.4130  -17.1020   15.0260 C.ar  300  MCV300      0.0151
     22  CAT        7.3920  -14.6570   14.2530 C.2   300  MCV300     -0.0225
     23  CAU        4.1050  -16.8090   15.4230 C.ar  300  MCV300      0.1349
@<TRIPOS>BOND
     1    10     6    1
     2    15    16    1
     3    15    21    1
     4    16    22    1
     5     6     1    2
     6     6     5    1
     7     1     2    2
     8    22     5    1
     9    22    13    2
    10     5     4    1
    11    18     8    1
    12    18    23    1
    13     2     9    1
    14     2     3    2
    15    13    19    1
    16     4     3    2
    17     4    19    1
    18    21    23   ar
    19    21    14   ar
    20    23    12   ar
    21    14    20   ar
    22    12    11   ar
    23    20    11   ar
    24    20    17    1
    25    17     7    1
