@<TRIPOS>MOLECULE
3mcy_ZH1_A_1.pdb
 28 30 0 0 0
SMALL
GASTEIGER

@<TRIPOS>ATOM
      1  C1       -14.4620   45.4820   41.4580 C.ar  182  ZH1182      0.0002
      2  C2       -14.6310   45.1850   40.1050 C.ar  182  ZH1182      0.0000
      3  C3       -14.8620   45.2800   37.1820 C.ar  182  ZH1182      0.0031
      4  C4       -17.2330   44.9870   37.5420 C.ar  182  ZH1182      0.0031
      5  C5       -15.4510   46.1850   42.1460 C.ar  182  ZH1182      0.0064
      6  C6       -15.0290   44.9830   35.8310 C.ar  182  ZH1182      0.0370
      7  C7       -17.4010   44.6900   36.1890 C.ar  182  ZH1182      0.0370
      8  C8       -16.7780   46.2940   40.1290 C.ar  182  ZH1182      0.0064
      9  C9       -15.9630   45.2820   38.0380 C.ar  182  ZH1182      0.0002
     10  C10      -15.7880   45.5910   39.4410 C.ar  182  ZH1182      0.0002
     11  C11      -16.6090   46.5910   41.4820 C.ar  182  ZH1182      0.0756
     12  C12      -16.2990   44.6880   35.3340 C.ar  182  ZH1182      0.1414
     13  C13      -17.6390   47.3240   42.2000 C.2   182  ZH1182      0.3413
     14  C14      -16.8530   45.6460   31.2920 C.3   182  ZH1182      0.2211
     15  C15      -17.3520   47.0150   31.7590 C.3   182  ZH1182      0.2145
     16  C16      -17.6780   44.5240   31.9220 C.3   182  ZH1182      0.2542
     17  C17      -17.4250   47.0540   33.2910 C.3   182  ZH1182      0.1846
     18  C18      -17.7400   44.6770   33.4420 C.3   182  ZH1182      0.3218
     19  C19      -18.1930   48.3140   44.2980 C.3   182  ZH1182      0.2560
     20  C20      -18.0500   48.3530   33.7880 C.3   182  ZH1182      0.2142
     21  O21      -18.7260   47.6640   41.7120 O.2   182  ZH1182     -0.2449
     22  O22      -18.2200   45.9790   33.7980 O.3   182  ZH1182     -0.3157
     23  O23      -16.9460   45.5430   29.8730 O.3   182  ZH1182     -0.2173
     24  O24      -16.4530   48.0280   31.3150 O.3   182  ZH1182     -0.2176
     25  O25      -19.0170   44.5650   31.4280 O.3   182  ZH1182     -0.2135
     26  O26      -19.3140   48.5130   33.1680 O.3   182  ZH1182     -0.2176
     27  O27      -16.4640   44.3960   34.0060 O.3   182  ZH1182     -0.4505
     28  O28      -17.2600   47.5940   43.4860 O.3   182  ZH1182     -0.4413
@<TRIPOS>BOND
     1    23    14    1
     2    14    15    1
     3    14    16    1
     4    24    15    1
     5    25    16    1
     6    15    17    1
     7    16    18    1
     8    26    20    1
     9    17    20    1
    10    17    22    1
    11    18    22    1
    12    18    27    1
    13    27    12    1
    14    12     6   ar
    15    12     7   ar
    16     6     3   ar
    17     7     4   ar
    18     3     9   ar
    19     4     9   ar
    20     9    10    1
    21    10     2   ar
    22    10     8   ar
    23     2     1   ar
    24     8    11   ar
    25     1     5   ar
    26    11     5   ar
    27    11    13    1
    28    21    13    2
    29    13    28    1
    30    28    19    1
