@<TRIPOS>MOLECULE
3md0_GDP_A_1.pdb
 28 30 0 0 0
SMALL
GASTEIGER

@<TRIPOS>ATOM
      1  PB        22.8310   37.2570  -15.1320 P.3   335  GDP335      0.5373
      2  O1B       23.4690   36.3800  -14.0760 O.3   335  GDP335     -0.1143
      3  O2B       22.9090   36.6400  -16.5020 O.2   335  GDP335     -0.2221
      4  O3B       21.3510   37.4730  -14.8680 O.3   335  GDP335     -0.1143
      5  O3A       23.4660   38.7110  -15.0470 O.3   335  GDP335     -0.2261
      6  PA        24.9290   39.0220  -14.4330 P.3   335  GDP335      0.2231
      7  O1A       25.8810   37.9550  -14.9340 O.2   335  GDP335     -0.5169
      8  O2A       24.9570   39.2110  -12.9440 O.3   335  GDP335     -0.4370
      9  O5'       25.2020   40.4430  -15.1090 O.3   335  GDP335     -0.3111
     10  C5'       25.4000   40.4460  -16.5260 C.3   335  GDP335      0.1813
     11  C4'       26.0970   41.7370  -16.9090 C.3   335  GDP335      0.1799
     12  O4'       25.2920   42.8340  -16.4630 O.3   335  GDP335     -0.3326
     13  C3'       27.4720   41.8740  -16.2360 C.3   335  GDP335      0.2158
     14  O3'       28.3690   42.5650  -17.1210 O.3   335  GDP335     -0.2175
     15  C2'       27.1970   42.7500  -15.0400 C.3   335  GDP335      0.2310
     16  O2'       28.3250   43.5290  -14.6290 O.3   335  GDP335     -0.2158
     17  C1'       26.0650   43.6250  -15.5590 C.3   335  GDP335      0.2293
     18  N9        25.2480   44.0670  -14.4190 N.pl3 335  GDP335     -0.2354
     19  C8        24.7420   43.3130  -13.4200 C.3   335  GDP335      0.2246
     20  N7        24.0430   44.0800  -12.5420 N.2   335  GDP335     -0.2322
     21  C5        24.1180   45.3480  -12.9870 C.2   335  GDP335      0.2182
     22  C6        23.6170   46.6650  -12.5490 C.1   335  GDP335      0.2372
     23  O6        22.9410   46.7920  -11.5140 O.2   335  GDP335     -0.2069
     24  N1        23.9300   47.7270  -13.3070 N.2   335  GDP335     -0.2485
     25  C2        24.6670   47.6530  -14.4450 C.1   335  GDP335      0.2531
     26  N2        24.9000   48.7940  -15.1270 N.pl3 335  GDP335     -0.0226
     27  N3        25.1670   46.4880  -14.9120 N.2   335  GDP335     -0.3074
     28  C4        24.9220   45.3370  -14.2280 C.2   335  GDP335      0.2300
@<TRIPOS>BOND
     1    14    13    1
     2    11    10    1
     3    11    12    1
     4    11    13    1
     5    10     9    1
     6     3     1    2
     7    12    17    1
     8    13    15    1
     9    17    15    1
    10    17    18    1
    11     1     5    1
    12     1     4    1
    13     1     2    1
    14    26    25    1
    15     9     6    1
    16     5     6    1
    17    15    16    1
    18     7     6    2
    19    27    25    2
    20    27    28    2
    21    25    24    2
    22     6     8    1
    23    18    28    1
    24    18    19    1
    25    28    21    1
    26    19    20    1
    27    24    22    2
    28    21    22    1
    29    21    20    2
    30    22    23    2
