@<TRIPOS>MOLECULE
3md7_5GP_A_1.pdb
 24 26 0 0 0
SMALL
GASTEIGER

@<TRIPOS>ATOM
      1  P         10.3270  -11.0020  -14.2050 P.3   303  5GP303      0.5327
      2  O1P       10.5550   -9.7270  -15.0240 O.2   303  5GP303     -0.2224
      3  O2P       10.4260  -10.4370  -12.7960 O.3   303  5GP303     -0.1145
      4  O3P       11.2920  -12.1700  -14.5110 O.3   303  5GP303     -0.1145
      5  O5'        8.7490  -11.3580  -14.3820 O.3   303  5GP303     -0.2675
      6  C5'        8.2150  -12.6060  -14.6850 C.3   303  5GP303      0.1859
      7  C4'        6.9530  -12.3860  -15.5210 C.3   303  5GP303      0.1801
      8  O4'        6.6440  -13.6450  -16.0880 O.3   303  5GP303     -0.3326
      9  C3'        5.6920  -12.0260  -14.7320 C.3   303  5GP303      0.2158
     10  O3'        4.9000  -11.2530  -15.6300 O.3   303  5GP303     -0.2175
     11  C2'        5.0520  -13.3690  -14.3930 C.3   303  5GP303      0.2310
     12  O2'        3.6960  -13.3590  -14.0010 O.3   303  5GP303     -0.2158
     13  C1'        5.3740  -14.0880  -15.6700 C.3   303  5GP303      0.2293
     14  N9         5.5160  -15.5900  -15.5740 N.pl3 303  5GP303     -0.2354
     15  C8         5.7320  -16.3500  -14.4810 C.3   303  5GP303      0.2246
     16  N7         5.8090  -17.6680  -14.8060 N.2   303  5GP303     -0.2322
     17  C5         5.6580  -17.6920  -16.1600 C.2   303  5GP303      0.2182
     18  C6         5.5690  -18.7330  -17.0820 C.1   303  5GP303      0.2372
     19  O6         5.6710  -19.9740  -16.7500 O.2   303  5GP303     -0.2069
     20  N1         5.3780  -18.3960  -18.4000 N.2   303  5GP303     -0.2485
     21  C2         5.1720  -17.1020  -18.7990 C.1   303  5GP303      0.2531
     22  N2         4.8900  -16.8080  -20.1030 N.pl3 303  5GP303     -0.0226
     23  N3         5.2930  -16.0440  -17.9270 N.2   303  5GP303     -0.3074
     24  C4         5.5030  -16.3810  -16.6270 C.2   303  5GP303      0.2300
@<TRIPOS>BOND
     1    22    21    1
     2    21    20    2
     3    21    23    2
     4    20    18    2
     5    23    24    2
     6    18    19    2
     7    18    17    1
     8    24    17    1
     9    24    14    1
    10    17    16    2
    11     8    13    1
    12     8     7    1
    13    13    14    1
    14    13    11    1
    15    10     9    1
    16    14    15    1
    17     7     9    1
    18     7     6    1
    19     2     1    2
    20    16    15    1
    21     9    11    1
    22     6     5    1
    23     4     1    1
    24    11    12    1
    25     5     1    1
    26     1     3    1
