@<TRIPOS>MOLECULE
3mdb_IP9_C_1.pdb
 28 28 0 0 0
SMALL
GASTEIGER

@<TRIPOS>ATOM
      1  C1       -22.2390  -18.0160  -11.7630 C.3   375  IP9375      0.1917
      2  O1       -21.7590  -18.2730  -10.4300 O.3   375  IP9375     -0.2673
      3  C2       -22.9790  -16.6550  -11.8170 C.3   375  IP9375      0.2120
      4  O2       -23.9910  -16.5910  -10.8000 O.3   375  IP9375     -0.2177
      5  C3       -23.5990  -16.4270  -13.2060 C.3   375  IP9375      0.1890
      6  O3       -24.3230  -15.2250  -13.2270 O.3   375  IP9375     -0.2674
      7  C4       -24.5410  -17.5380  -13.5980 C.3   375  IP9375      0.1865
      8  O4       -24.9770  -17.2670  -14.9360 O.3   375  IP9375     -0.2675
      9  C5       -23.8150  -18.9060  -13.5680 C.3   375  IP9375      0.1890
     10  O5       -24.7400  -19.9560  -13.9000 O.3   375  IP9375     -0.2674
     11  C6       -23.1330  -19.1870  -12.2090 C.3   375  IP9375      0.2120
     12  O6       -22.3240  -20.3740  -12.2710 O.3   375  IP9375     -0.2177
     13  P1       -20.2450  -18.8210  -10.1530 P.3   375  IP9375      0.5327
     14  O1P      -19.6500  -19.4390  -11.3670 O.2   375  IP9375     -0.2224
     15  O2P      -20.3960  -19.8600   -8.8740 O.3   375  IP9375     -0.1145
     16  O3P      -19.3780  -17.5840   -9.5720 O.3   375  IP9375     -0.1145
     17  P3       -23.6790  -13.9750  -13.9900 P.3   375  IP9375      0.5327
     18  O4P      -23.8570  -14.0890  -15.4400 O.2   375  IP9375     -0.2224
     19  O5P      -24.3650  -12.6750  -13.2890 O.3   375  IP9375     -0.1145
     20  O6P      -22.1070  -13.8700  -13.5840 O.3   375  IP9375     -0.1145
     21  P4       -26.3140  -16.5120  -15.3650 P.3   375  IP9375      0.5327
     22  O7P      -27.1110  -17.1310  -16.4480 O.2   375  IP9375     -0.2224
     23  O8P      -27.1850  -16.2320  -14.0380 O.3   375  IP9375     -0.1145
     24  O9P      -25.7970  -15.0870  -15.8310 O.3   375  IP9375     -0.1145
     25  P5       -25.0680  -20.3670  -15.4820 P.3   375  IP9375      0.5327
     26  OPF      -25.1740  -21.8340  -15.6680 O.3   375  IP9375     -0.1145
     27  OPG      -23.8930  -19.7100  -16.3920 O.2   375  IP9375     -0.2224
     28  OPH      -26.4420  -19.6040  -15.9060 O.3   375  IP9375     -0.1145
@<TRIPOS>BOND
     1    22    21    2
     2    27    25    2
     3    28    25    1
     4    24    21    1
     5    26    25    1
     6    25    10    1
     7    18    17    2
     8    21     8    1
     9    21    23    1
    10     8     7    1
    11    17    20    1
    12    17    19    1
    13    17     6    1
    14    10     9    1
    15     7     9    1
    16     7     5    1
    17     9    11    1
    18     6     5    1
    19     5     3    1
    20    12    11    1
    21    11     1    1
    22     3     1    1
    23     3     4    1
    24     1     2    1
    25    14    13    2
    26     2    13    1
    27    13    16    1
    28    13    15    1
