@<TRIPOS>MOLECULE
3mdc_GTF_A_1.pdb
 30 31 0 0 0
SMALL
GASTEIGER

@<TRIPOS>ATOM
      1  F1        13.8010   23.5830   18.4520 F     576  GTF576     -0.1969
      2  N1        11.9100   23.4610   16.9580 N.am  576  GTF576     -0.1754
      3  C2        10.9360   22.8910   17.8890 C.1   576  GTF576      0.2757
      4  F2        13.5910   25.7300   18.9970 F     576  GTF576     -0.1969
      5  O2        10.3760   23.6450   18.9030 O.2   576  GTF576     -0.1925
      6  N3        10.5330   21.3560   17.6800 N.2   576  GTF576     -0.3024
      7  C4        11.1790   20.5440   16.5300 C.2   576  GTF576      0.2346
      8  N4        10.7970   19.1590   16.3690 N.pl3 576  GTF576     -0.0921
      9  C5        12.1640   21.2710   15.6660 C.2   576  GTF576      0.0687
     10  C6        12.4950   22.6910   15.9040 C.2   576  GTF576      0.0837
     11  PA        15.7370   24.1180   13.3840 P.3   576  GTF576      0.2189
     12  PB        18.1080   24.1320   15.2260 P.3   576  GTF576      0.2277
     13  PG        19.8600   23.3450   13.2390 P.3   576  GTF576      0.5373
     14  C1'       12.2500   24.8700   17.2050 C.3   576  GTF576      0.2718
     15  O1A       16.4520   25.3760   12.6230 O.3   576  GTF576     -0.4371
     16  O1B       18.3800   25.6990   14.7970 O.2   576  GTF576     -0.5168
     17  O1G       21.0320   24.4720   13.1210 O.3   576  GTF576     -0.1143
     18  C2'       13.5550   24.8390   17.9690 C.3   576  GTF576      0.3366
     19  O2A       15.3050   23.0730   12.4550 O.2   576  GTF576     -0.5170
     20  O2B       18.0040   24.1520   16.6960 O.3   576  GTF576     -0.4368
     21  O2G       20.4340   21.8940   12.7050 O.3   576  GTF576     -0.1143
     22  C3'       14.6270   25.2420   17.0170 C.3   576  GTF576      0.2462
     23  O3'       15.7750   25.8100   17.5980 O.3   576  GTF576     -0.2144
     24  O3A       16.7680   23.4460   14.5050 O.3   576  GTF576     -0.2700
     25  O3B       19.3970   23.2130   14.8070 O.3   576  GTF576     -0.2258
     26  O3G       18.7030   23.7820   12.4520 O.2   576  GTF576     -0.2221
     27  C4'       13.8490   26.1200   15.9850 C.3   576  GTF576      0.1830
     28  O4'       12.4640   25.5850   15.9950 O.3   576  GTF576     -0.3297
     29  C5'       14.4610   26.0180   14.6050 C.3   576  GTF576      0.1814
     30  O5'       14.3860   24.7240   14.0770 O.3   576  GTF576     -0.3112
@<TRIPOS>BOND
     1    26    13    2
     2    19    11    2
     3    15    11    1
     4    21    13    1
     5    17    13    1
     6    13    25    1
     7    11    30    1
     8    11    24    1
     9    30    29    1
    10    24    12    1
    11    29    27    1
    12    16    12    2
    13    25    12    1
    14    12    20    1
    15     9    10    2
    16     9     7    1
    17    10     2    1
    18    27    28    1
    19    27    22    1
    20    28    14    1
    21     8     7    1
    22     7     6    2
    23     2    14    1
    24     2     3   am
    25    22    23    1
    26    22    18    1
    27    14    18    1
    28     6     3    2
    29     3     5    2
    30    18     1    1
    31    18     4    1
