@<TRIPOS>MOLECULE
3mdj_BES_A_1.pdb
 22 22 0 0 0
SMALL
GASTEIGER

@<TRIPOS>ATOM
      1  N2       -21.1800   61.9050  -13.9020 N.3   1001  BES1001    -0.1293
      2  C1       -20.3530   60.7390  -14.2480 C.3   1001  BES1001     0.1355
      3  C6       -21.1850   59.4630  -14.1760 C.3   1001  BES1001     0.0485
      4  C7       -22.3920   59.6010  -15.0930 C.ar  1001  BES1001    -0.0206
      5  C8       -23.6700   59.5350  -14.5530 C.ar  1001  BES1001    -0.0042
      6  C12      -22.2120   59.8110  -16.4540 C.ar  1001  BES1001    -0.0042
      7  C9       -24.7790   59.6680  -15.3800 C.ar  1001  BES1001    -0.0003
      8  C11      -23.3210   59.9440  -17.2810 C.ar  1001  BES1001    -0.0003
      9  C10      -24.6030   59.8720  -16.7440 C.ar  1001  BES1001    -0.0000
     10  C2       -19.1550   60.6680  -13.3070 C.3   1001  BES1001     0.2467
     11  O2       -18.4540   61.9150  -13.3530 O.3   1001  BES1001    -0.2116
     12  C3       -18.2010   59.5160  -13.6520 C.2   1001  BES1001     0.2738
     13  O3       -17.5290   59.5370  -14.6810 O.2   1001  BES1001    -0.2705
     14  N1       -18.1560   58.5220  -12.7640 N.am  1001  BES1001    -0.1934
     15  C4       -17.2830   57.3610  -12.9720 C.3   1001  BES1001     0.1978
     16  C13      -15.9380   57.6820  -12.3090 C.3   1001  BES1001     0.0333
     17  C14      -14.9280   56.5460  -12.4900 C.3   1001  BES1001     0.0023
     18  C15      -14.6540   56.3010  -13.9740 C.3   1001  BES1001     0.0001
     19  C16      -13.6270   56.8340  -11.7370 C.3   1001  BES1001     0.0001
     20  C5       -17.9090   56.1280  -12.3130 C.2   1001  BES1001     0.3842
     21  O1       -18.8190   56.3300  -11.4810 O.co2 1001  BES1001    -0.2437
     22  O4       -17.4650   55.0100  -12.6550 O.co2 1001  BES1001    -0.2437
@<TRIPOS>BOND
     1     8     9   ar
     2     8     6   ar
     3     9     7   ar
     4     6     4   ar
     5     7     5   ar
     6     4     5   ar
     7     4     3    1
     8    13    12    2
     9     2     3    1
    10     2     1    1
    11     2    10    1
    12    18    17    1
    13    12    10    1
    14    12    14   am
    15    11    10    1
    16    15    14    1
    17    15    20    1
    18    15    16    1
    19    22    20   ar
    20    17    16    1
    21    17    19    1
    22    20    21   ar
