@<TRIPOS>MOLECULE
3mdl_COH_A_1.pdb
 43 50 0 0 0
SMALL
GASTEIGER

@<TRIPOS>ATOM
      1 CO         33.3540   27.1030   72.8640 Co.oh 614  COH614      0.0000
      2  CHA       32.5920   29.7470   70.8330 C.2   614  COH614      0.0000
      3  CHB       35.7170   29.1350   74.4900 C.2   614  COH614      0.0000
      4  CHC       34.6250   24.4050   74.5930 C.2   614  COH614      0.0000
      5  CHD       30.8470   25.2220   71.6080 C.2   614  COH614      0.0000
      6  NA        34.0180   29.1110   72.7160 N.2   614  COH614      0.0000
      7  C1A       33.6010   29.9980   71.7410 C.2   614  COH614      0.0000
      8  C2A       34.4080   31.2110   71.8460 C.2   614  COH614      0.0000
      9  C3A       35.2710   31.0280   72.8640 C.2   614  COH614      0.0000
     10  C4A       35.0420   29.7070   73.4280 C.2   614  COH614      0.0000
     11  CMA       36.3320   32.0410   73.3680 C.3   614  COH614      0.0000
     12  CAA       34.3130   32.4950   70.9670 C.3   614  COH614      0.0000
     13  CBA       34.0150   32.2080   69.4890 C.3   614  COH614      0.0000
     14  CGA       35.2260   31.7990   68.6700 C.2   614  COH614      0.0000
     15  O1A       36.1520   31.1260   69.2100 O.co2 614  COH614      0.0000
     16  O2A       35.2580   32.1390   67.4500 O.co2 614  COH614      0.0000
     17  NB        34.8810   26.8360   74.3460 N.ar  614  COH614      0.0000
     18  C1B       35.7930   27.7880   74.7660 C.ar  614  COH614      0.0000
     19  C2B       36.8280   27.1150   75.5320 C.ar  614  COH614      0.0000
     20  C3B       36.5380   25.8080   75.5600 C.ar  614  COH614      0.0000
     21  C4B       35.2960   25.6000   74.8140 C.ar  614  COH614      0.0000
     22  CMB       38.0530   27.7890   76.1950 C.3   614  COH614      0.0000
     23  CAB       37.3930   24.7350   76.2790 C.2   614  COH614      0.0000
     24  CBB       37.5590   23.5170   75.7530 C.2   614  COH614      0.0000
     25  NC        32.8520   25.1400   73.0340 N.2   614  COH614      0.0000
     26  C1C       33.4540   24.2120   73.8680 C.2   614  COH614      0.0000
     27  C2C       32.6320   23.0130   73.8320 C.2   614  COH614      0.0000
     28  C3C       31.5960   23.2330   73.0110 C.2   614  COH614      0.0000
     29  C4C       31.7090   24.5840   72.4870 C.2   614  COH614      0.0000
     30  CMC       32.9070   21.6980   74.6030 C.3   614  COH614      0.0000
     31  CAC       30.4790   22.2110   72.6930 C.2   614  COH614      0.0000
     32  CBC       30.0850   21.9950   71.4370 C.2   614  COH614      0.0000
     33  ND        31.8980   27.4530   71.4590 N.ar  614  COH614      0.0000
     34  C1D       31.0180   26.4650   71.0170 C.ar  614  COH614      0.0000
     35  C2D       30.3260   26.9670   69.8390 C.ar  614  COH614      0.0000
     36  C3D       30.8830   28.3810   69.6130 C.ar  614  COH614      0.0000
     37  C4D       31.8530   28.5930   70.6650 C.ar  614  COH614      0.0000
     38  CMD       29.2570   26.2450   68.9900 C.3   614  COH614      0.0000
     39  CAD       30.5140   29.3790   68.4960 C.3   614  COH614      0.0000
     40  CBD       31.6160   29.2910   67.4450 C.3   614  COH614      0.0000
     41  CGD       31.4590   30.3640   66.4050 C.2   614  COH614      0.0000
     42  O1D       30.3400   30.9400   66.3060 O.co2 614  COH614      0.0000
     43  O2D       32.4570   30.6310   65.6830 O.co2 614  COH614      0.0000
@<TRIPOS>BOND
     1    43    41   ar
     2    42    41   ar
     3    41    40    1
     4    40    39    1
     5    16    14   ar
     6    39    36    1
     7    14    15   ar
     8    14    13    1
     9    38    35    1
    10    13    12    1
    11    36    35   ar
    12    36    37   ar
    13    35    34   ar
    14    37     2    2
    15    37    33   ar
    16     2     7    1
    17    12     8    1
    18    34    33   ar
    19    34     5    2
    20    32    31    2
    21    33     1    1
    22     5    29    1
    23     7     8    1
    24     7     6    2
    25     8     9    2
    26    29    28    1
    27    29    25    2
    28    31    28    1
    29     6     1    1
    30     6    10    1
    31     1    25    1
    32     1    17    1
    33     9    11    1
    34     9    10    1
    35    28    27    2
    36    25    26    1
    37    10     3    2
    38    27    26    1
    39    27    30    1
    40    26     4    2
    41    17    18   ar
    42    17    21   ar
    43     3    18    1
    44     4    21    1
    45    18    19   ar
    46    21    20   ar
    47    19    20   ar
    48    19    22    1
    49    20    23    1
    50    24    23    2
