@<TRIPOS>MOLECULE
3mdl_1AG_A_1.pdb
 27 26 0 0 0
SMALL
GASTEIGER

@<TRIPOS>ATOM
      1  C01       16.9910   12.5620   65.7860 C.2     1  1AG1        0.3171
      2  O01       17.4910   12.3510   64.6480 O.3     1  1AG1       -0.4456
      3  C02       17.9440   12.6870   66.9630 C.3     1  1AG1        0.1099
      4  C03       17.1920   12.9480   68.2510 C.3     1  1AG1        0.0163
      5  O03       15.7730   12.6740   66.0490 O.2     1  1AG1       -0.2501
      6  C04       17.9830   13.8820   69.1430 C.3     1  1AG1        0.0263
      7  C05       19.3280   13.2590   69.4780 C.2     1  1AG1       -0.0304
      8  C06       20.4440   13.9700   69.4590 C.2     1  1AG1       -0.0260
      9  C07       20.4080   15.4550   69.1290 C.3     1  1AG1        0.0513
     10  C08       20.3160   16.2070   70.4560 C.2     1  1AG1       -0.0257
     11  C09       20.2270   17.5260   70.4570 C.2     1  1AG1       -0.0257
     12  C10       20.2140   18.2730   69.1320 C.3     1  1AG1        0.0513
     13  C11       21.2700   19.3720   69.1780 C.2     1  1AG1       -0.0257
     14  C12       22.2770   19.3950   68.3130 C.2     1  1AG1       -0.0257
     15  C13       22.4390   18.2970   67.2700 C.3     1  1AG1        0.0513
     16  C14       23.3660   17.2530   67.8800 C.2     1  1AG1       -0.0260
     17  C15       24.2650   16.5980   67.1600 C.2     1  1AG1       -0.0304
     18  C16       24.4230   16.8190   65.6590 C.3     1  1AG1        0.0257
     19  C17       25.5080   17.8370   65.3350 C.3     1  1AG1        0.0047
     20  C18       25.0910   18.6330   64.1310 C.3     1  1AG1        0.0003
     21  C19       25.0840   17.7800   62.8710 C.3     1  1AG1        0.0000
     22  C20       25.0330   18.6470   61.5990 C.3     1  1AG1        0.0000
     23  C21       18.6000   12.8390   64.3030 C.3     1  1AG1        0.2438
     24  C22       18.7300   12.9560   62.7840 C.3     1  1AG1        0.2281
     25  C23       20.1190   12.5070   62.3410 C.3     1  1AG1        0.2187
     26  O26       18.5790   14.1470   62.4370 O.3     1  1AG1       -0.2163
     27  O27       20.1860   12.4920   61.0900 O.3     1  1AG1       -0.2174
@<TRIPOS>BOND
     1    27    25    1
     2    22    21    1
     3    25    24    1
     4    26    24    1
     5    24    23    1
     6    21    20    1
     7    20    19    1
     8    23     2    1
     9     2     1    1
    10    19    18    1
    11    18    17    1
    12     1     5    2
    13     1     3    1
    14     3     4    1
    15    17    16    2
    16    15    16    1
    17    15    14    1
    18     4     6    1
    19    14    13    2
    20     9     8    1
    21     9    10    1
    22    12    13    1
    23    12    11    1
    24     6     7    1
    25     8     7    2
    26    10    11    2
