@<TRIPOS>MOLECULE
3mdm_HEM_A_1.pdb
 43 50 0 0 0
SMALL
GASTEIGER

@<TRIPOS>ATOM
      1  CHA      -29.8320    5.4970   -7.7270 C.2   505  HEM505      0.0000
      2  CHB      -25.8730    4.7530   -5.1280 C.2   505  HEM505      0.0000
      3  CHC      -28.2940    1.7190   -2.2100 C.2   505  HEM505      0.0000
      4  CHD      -32.0870    2.1680   -5.1010 C.2   505  HEM505      0.0000
      5  C1A      -28.5540    5.6140   -7.2510 C.2   505  HEM505      0.0000
      6  C2A      -27.5520    6.3940   -7.8230 C.2   505  HEM505      0.0000
      7  C3A      -26.4510    6.1940   -7.1150 C.2   505  HEM505      0.0000
      8  C4A      -26.7490    5.2450   -6.0610 C.2   505  HEM505      0.0000
      9  CMA      -25.0390    6.7950   -7.3470 C.3   505  HEM505      0.0000
     10  CAA      -27.6060    7.2400   -9.0410 C.3   505  HEM505      0.0000
     11  CBA      -27.4480    6.2250  -10.2420 C.3   505  HEM505      0.0000
     12  CGA      -27.3420    6.8110  -11.6200 C.2   505  HEM505      0.0000
     13  O1A      -27.4180    8.0520  -11.7290 O.co2 505  HEM505      0.0000
     14  O2A      -27.1240    6.0680  -12.5630 O.co2 505  HEM505      0.0000
     15  C1B      -26.1550    3.8470   -4.1180 C.ar  505  HEM505      0.0000
     16  C2B      -25.1960    3.3650   -3.1560 C.ar  505  HEM505      0.0000
     17  C3B      -25.9720    2.4980   -2.3020 C.ar  505  HEM505      0.0000
     18  C4B      -27.2800    2.4830   -2.8140 C.ar  505  HEM505      0.0000
     19  CMB      -23.7690    3.7280   -3.1050 C.3   505  HEM505      0.0000
     20  CAB      -25.4880    1.7600   -1.1420 C.2   505  HEM505      0.0000
     21  CBB      -24.4590    2.0950   -0.4100 C.2   505  HEM505      0.0000
     22  C1C      -29.5470    1.6310   -2.7270 C.2   505  HEM505      0.0000
     23  C2C      -30.6140    0.8450   -2.1250 C.2   505  HEM505      0.0000
     24  C3C      -31.7260    0.9400   -2.9620 C.2   505  HEM505      0.0000
     25  C4C      -31.2730    1.8390   -4.0750 C.2   505  HEM505      0.0000
     26  CMC      -30.4790    0.0680   -0.7970 C.3   505  HEM505      0.0000
     27  CAC      -32.9730    0.3600   -2.7880 C.2   505  HEM505      0.0000
     28  CBC      -33.6930   -0.0160   -1.7440 C.2   505  HEM505      0.0000
     29  C1D      -31.7950    3.0650   -6.0800 C.ar  505  HEM505      0.0000
     30  C2D      -32.7430    3.4450   -7.1750 C.ar  505  HEM505      0.0000
     31  C3D      -32.1260    4.4470   -7.8440 C.ar  505  HEM505      0.0000
     32  C4D      -30.7770    4.6210   -7.2570 C.ar  505  HEM505      0.0000
     33  CMD      -34.0950    2.7930   -7.3560 C.3   505  HEM505      0.0000
     34  CAD      -32.6910    5.2500   -8.9850 C.3   505  HEM505      0.0000
     35  CBD      -33.3210    6.5430   -8.3180 C.3   505  HEM505      0.0000
     36  CGD      -33.9770    7.4680   -9.3040 C.2   505  HEM505      0.0000
     37  O1D      -33.4130    7.7180  -10.3650 O.co2 505  HEM505      0.0000
     38  O2D      -35.1120    7.9180   -9.0450 O.co2 505  HEM505      0.0000
     39  NA       -28.0660    4.8720   -6.1570 N.2   505  HEM505      0.0000
     40  NB       -27.4100    3.2900   -3.9420 N.ar  505  HEM505      0.0000
     41  NC       -30.0100    2.2700   -3.8870 N.2   505  HEM505      0.0000
     42  ND       -30.6190    3.7600   -6.1820 N.ar  505  HEM505      0.0000
     43 FE        -29.0350    3.5630   -5.0150 Fe    505  HEM505      0.0000
@<TRIPOS>BOND
     1    14    12   ar
     2    13    12   ar
     3    12    11    1
     4    37    36   ar
     5    11    10    1
     6    36    38   ar
     7    36    35    1
     8    10     6    1
     9    34    35    1
    10    34    31    1
    11    31    32   ar
    12    31    30   ar
    13     6     5    1
    14     6     7    2
    15     1    32    2
    16     1     5    1
    17    33    30    1
    18     9     7    1
    19    32    42   ar
    20     5    39    2
    21    30    29   ar
    22     7     8    1
    23    42    29   ar
    24    42    43    1
    25    39     8    1
    26    39    43    1
    27    29     4    2
    28     8     2    2
    29     2    15    1
    30     4    25    1
    31    43    40    1
    32    43    41    1
    33    15    40   ar
    34    15    16   ar
    35    25    41    2
    36    25    24    1
    37    40    18   ar
    38    41    22    1
    39    16    19    1
    40    16    17   ar
    41    24    27    1
    42    24    23    2
    43    18    17   ar
    44    18     3    1
    45    27    28    2
    46    22     3    2
    47    22    23    1
    48    17    20    1
    49    23    26    1
    50    20    21    2
