@<TRIPOS>MOLECULE
3mdm_FJZ_A_1.pdb
 20 22 0 0 0
SMALL
GASTEIGER

@<TRIPOS>ATOM
      1  C1       -28.2620    2.3160   -7.6570 C.3   506  FJZ506      0.1682
      2  N1       -28.3640    2.1790   -6.3000 N.2   506  FJZ506     -0.2440
      3  S1       -23.5590   -0.2600  -13.3940 S.2   506  FJZ506     -0.0170
      4  C2       -27.7240    1.0530   -5.9770 C.2   506  FJZ506      0.1939
      5  N2       -27.2250    0.4730   -7.1020 N.2   506  FJZ506     -0.2310
      6  C3       -27.5370    1.2580   -8.2070 C.2   506  FJZ506      0.0628
      7  N3       -25.5210    1.0050  -11.9900 N.am  506  FJZ506     -0.2900
      8  C4       -27.2040    0.9960   -9.6410 C.3   506  FJZ506      0.0416
      9  N4       -24.4580    2.2280  -13.6280 N.am  506  FJZ506     -0.2197
     10  C5       -26.9590    2.3080  -10.4230 C.3   506  FJZ506      0.0272
     11  C6       -25.9310    0.0890   -9.7120 C.3   506  FJZ506      0.0272
     12  C7       -26.6500    1.9810  -11.9350 C.3   506  FJZ506      0.0928
     13  C8       -25.6810   -0.2630  -11.1920 C.3   506  FJZ506      0.0928
     14  C9       -24.6210    1.1280  -12.9500 C.2   506  FJZ506      0.1540
     15  C10      -23.5010    2.4060  -14.7330 C.3   506  FJZ506      0.0943
     16  C11      -24.1440    1.9550  -16.0500 C.3   506  FJZ506      0.0216
     17  C12      -22.9950    3.8690  -14.8110 C.3   506  FJZ506      0.0216
     18  C13      -25.3140    2.8520  -16.5270 C.3   506  FJZ506      0.0018
     19  C14      -24.0810    4.7860  -15.4060 C.3   506  FJZ506      0.0018
     20  C15      -24.7210    4.2890  -16.7060 C.3   506  FJZ506      0.0001
@<TRIPOS>BOND
     1    20    18    1
     2    20    19    1
     3    18    16    1
     4    16    15    1
     5    19    17    1
     6    17    15    1
     7    15     9    1
     8     9    14    1
     9     3    14    2
    10    14     7    1
    11     7    12    1
    12     7    13    1
    13    12    10    1
    14    13    11    1
    15    10     8    1
    16    11     8    1
    17     8     6    1
    18     6     1    1
    19     6     5    2
    20     1     2    1
    21     5     4    1
    22     2     4    2
