@<TRIPOS>MOLECULE
3mdr_HEM_A_1.pdb
 43 50 0 0 0
SMALL
GASTEIGER

@<TRIPOS>ATOM
      1  CHA       30.7270    1.7270    3.0110 C.2   505  HEM505      0.0000
      2  CHB       28.8210   -2.7780    2.4630 C.2   505  HEM505      0.0000
      3  CHC       24.4740   -0.9880    3.7190 C.2   505  HEM505      0.0000
      4  CHD       26.4620    3.5040    4.1050 C.2   505  HEM505      0.0000
      5  C1A       30.5650    0.2450    2.9220 C.ar  505  HEM505      0.0000
      6  C2A       31.6940   -0.6940    2.6610 C.ar  505  HEM505      0.0000
      7  C3A       31.1590   -1.8900    2.5000 C.ar  505  HEM505      0.0000
      8  C4A       29.6970   -1.8130    2.7970 C.ar  505  HEM505      0.0000
      9  CMA       31.9150   -3.1710    2.1250 C.3   505  HEM505      0.0000
     10  CAA       33.0960   -0.2090    2.3400 C.3   505  HEM505      0.0000
     11  CBA       33.0910    0.2600    0.8710 C.3   505  HEM505      0.0000
     12  CGA       34.4940    0.6470    0.3800 C.2   505  HEM505      0.0000
     13  O1A       34.6230    1.2920   -0.6620 O.co2 505  HEM505      0.0000
     14  O2A       35.5790    0.3120    1.0240 O.co2 505  HEM505      0.0000
     15  C1B       27.3530   -2.6570    2.6670 C.2   505  HEM505      0.0000
     16  C2B       26.5300   -3.7170    2.7000 C.2   505  HEM505      0.0000
     17  C3B       25.2070   -3.1880    3.0650 C.2   505  HEM505      0.0000
     18  C4B       25.4740   -1.7880    3.3990 C.2   505  HEM505      0.0000
     19  CMB       26.7170   -5.0920    2.0720 C.3   505  HEM505      0.0000
     20  CAB       23.9930   -3.7500    3.0470 C.3   505  HEM505      0.0000
     21  CBB       23.7140   -5.1900    3.2970 C.3   505  HEM505      0.0000
     22  C1C       24.5780    0.4370    4.0020 C.ar  505  HEM505      0.0000
     23  C2C       23.5400    1.2620    4.2030 C.ar  505  HEM505      0.0000
     24  C3C       24.2160    2.5330    4.5060 C.ar  505  HEM505      0.0000
     25  C4C       25.4740    2.4040    4.0340 C.ar  505  HEM505      0.0000
     26  CMC       22.1250    0.8650    4.6370 C.3   505  HEM505      0.0000
     27  CAC       23.5360    3.8120    4.9220 C.2   505  HEM505      0.0000
     28  CBC       22.4080    3.7610    5.6170 C.2   505  HEM505      0.0000
     29  C1D       27.7690    3.3350    3.8790 C.2   505  HEM505      0.0000
     30  C2D       28.6270    4.4640    3.4670 C.2   505  HEM505      0.0000
     31  C3D       29.8720    3.9660    3.4820 C.2   505  HEM505      0.0000
     32  C4D       29.7260    2.4980    3.4310 C.2   505  HEM505      0.0000
     33  CMD       28.2350    5.8970    3.6430 C.3   505  HEM505      0.0000
     34  CAD       31.1580    4.7250    3.7700 C.3   505  HEM505      0.0000
     35  CBD       31.7320    4.3720    5.1320 C.3   505  HEM505      0.0000
     36  CGD       32.9620    5.2160    5.4570 C.2   505  HEM505      0.0000
     37  O1D       34.0590    4.9650    5.0010 O.co2 505  HEM505      0.0000
     38  O2D       32.8790    6.2440    6.2910 O.co2 505  HEM505      0.0000
     39  NA        29.3710   -0.5460    3.0870 N.ar  505  HEM505      0.0000
     40  NB        26.7190   -1.4790    2.9690 N.2   505  HEM505      0.0000
     41  NC        25.7530    1.1000    3.9140 N.ar  505  HEM505      0.0000
     42  ND        28.4090    2.2170    3.4460 N.2   505  HEM505      0.0000
     43 FE         27.5670    0.3910    3.2670 Fe    505  HEM505      0.0000
@<TRIPOS>BOND
     1    13    12   ar
     2    12    11    1
     3    12    14   ar
     4    11    10    1
     5    19    16    1
     6     9     7    1
     7    10     6    1
     8     2    15    1
     9     2     8    2
    10     7     6   ar
    11     7     8   ar
    12     6     5   ar
    13    15    16    1
    14    15    40    2
    15    16    17    2
    16     8    39   ar
    17     5     1    2
    18     5    39   ar
    19    40    43    1
    20    40    18    1
    21     1    32    1
    22    20    17    1
    23    20    21    1
    24    17    18    1
    25    39    43    1
    26    43    42    1
    27    43    41    1
    28    18     3    2
    29    32    42    2
    30    32    31    1
    31    42    29    1
    32    30    31    2
    33    30    33    1
    34    30    29    1
    35    31    34    1
    36     3    22    1
    37    34    35    1
    38    29     4    2
    39    41    22   ar
    40    41    25   ar
    41    22    23   ar
    42    25     4    1
    43    25    24   ar
    44    23    24   ar
    45    23    26    1
    46    24    27    1
    47    27    28    2
    48    37    36   ar
    49    35    36    1
    50    36    38   ar
