@<TRIPOS>MOLECULE
3mdr_GJZ_A_1.pdb
 10 11 0 0 0
SMALL
GASTEIGER

@<TRIPOS>ATOM
      1  N1        27.2320    1.1340    1.1830 N.3   506  GJZ506     -0.1326
      2  C2        28.4770    1.2490   -0.9410 C.3   506  GJZ506      0.0414
      3  C3        27.7100    0.3990    0.0150 C.3   506  GJZ506      0.0962
      4  C4        29.0880   -0.0130   -0.3950 C.3   506  GJZ506      0.0251
      5  C5        28.2460    1.5450   -2.3760 C.ar  506  GJZ506     -0.0211
      6  C6        27.1090    1.1680   -3.0840 C.ar  506  GJZ506     -0.0042
      7  C7        29.1900    2.3480   -3.0040 C.ar  506  GJZ506     -0.0042
      8  C8        26.9510    1.5460   -4.4270 C.ar  506  GJZ506     -0.0003
      9  C9        29.0370    2.7390   -4.3400 C.ar  506  GJZ506     -0.0003
     10  C10       27.9200    2.3390   -5.0680 C.ar  506  GJZ506     -0.0000
@<TRIPOS>BOND
     1    10     8   ar
     2    10     9   ar
     3     8     6   ar
     4     9     7   ar
     5     6     5   ar
     6     7     5   ar
     7     5     2    1
     8     2     4    1
     9     2     3    1
    10     4     3    1
    11     3     1    1
