@<TRIPOS>MOLECULE
3mdt_VOR_A_1.pdb
 25 27 0 0 0
SMALL
GASTEIGER

@<TRIPOS>ATOM
      1  F1        -4.1940  -28.6140  -32.1240 F     506  VOR506     -0.2043
      2  F2        -1.3500  -31.5310  -30.3210 F     506  VOR506     -0.2013
      3  F3        -6.0850  -32.8510  -31.4620 F     506  VOR506     -0.2041
      4  O4        -1.1160  -30.8450  -34.3940 O.3   506  VOR506     -0.2186
      5  N5        -1.3070  -28.1330  -35.2890 N.ar  506  VOR506     -0.2272
      6  N6        -1.3920  -27.9120  -30.9240 N.ar  506  VOR506     -0.2260
      7  N7        -0.6840  -26.9380  -35.4180 N.ar  506  VOR506     -0.1451
      8  N8        -0.5230  -27.9890  -37.4080 N.ar  506  VOR506     -0.2007
      9  N9        -2.4830  -28.3940  -28.7980 N.ar  506  VOR506     -0.2201
     10  C10       -1.6060  -29.8860  -33.4550 C.3   506  VOR506      0.1750
     11  C11       -0.4880  -29.7790  -32.3700 C.3   506  VOR506      0.0766
     12  C12       -1.9620  -28.5890  -34.0930 C.3   506  VOR506      0.1641
     13  C13       -2.8520  -30.5430  -32.8770 C.ar  506  VOR506      0.0349
     14  C14        0.8270  -29.2640  -32.7640 C.3   506  VOR506      0.0094
     15  C15       -1.1280  -29.2600  -31.1350 C.ar  506  VOR506      0.0920
     16  C16       -3.9730  -29.9000  -32.3130 C.ar  506  VOR506      0.1407
     17  C17       -2.8530  -31.9950  -32.9620 C.ar  506  VOR506      0.0027
     18  C18       -1.5610  -30.2380  -30.1670 C.ar  506  VOR506      0.1727
     19  C19       -5.1160  -30.6840  -31.8170 C.ar  506  VOR506      0.0590
     20  C20       -3.9700  -32.7720  -32.4780 C.ar  506  VOR506      0.0295
     21  C21       -1.2450  -28.7920  -36.5150 C.ar  506  VOR506      0.1973
     22  C22       -5.0900  -32.1120  -31.9060 C.ar  506  VOR506      0.1424
     23  C23       -2.2460  -29.7720  -28.9840 C.ar  506  VOR506      0.1314
     24  C24       -2.0670  -27.4720  -29.7540 C.ar  506  VOR506      0.1987
     25  C25       -0.1910  -26.8160  -36.7270 C.ar  506  VOR506      0.2210
@<TRIPOS>BOND
     1     8    25   ar
     2     8    21   ar
     3    25     7   ar
     4    21     5   ar
     5     7     5   ar
     6     5    12    1
     7     4    10    1
     8    12    10    1
     9    10    13    1
    10    10    11    1
    11    17    13   ar
    12    17    20   ar
    13    13    16   ar
    14    14    11    1
    15    20    22   ar
    16    11    15    1
    17    16     1    1
    18    16    19   ar
    19    22    19   ar
    20    22     3    1
    21    15     6   ar
    22    15    18   ar
    23     6    24   ar
    24     2    18    1
    25    18    23   ar
    26    24     9   ar
    27    23     9   ar
