@<TRIPOS>MOLECULE
3mdt_HEM_A_1.pdb
 43 50 0 0 0
SMALL
GASTEIGER

@<TRIPOS>ATOM
      1  CHA       -1.8110  -31.0750  -39.4180 C.2   505  HEM505      0.0000
      2  CHB        2.5730  -29.1770  -38.0910 C.2   505  HEM505      0.0000
      3  CHC        1.0230  -24.9010  -39.8030 C.2   505  HEM505      0.0000
      4  CHD       -3.6220  -26.7590  -39.6200 C.2   505  HEM505      0.0000
      5  C1A       -0.3770  -30.9270  -38.9780 C.2   505  HEM505      0.0000
      6  C2A        0.5660  -32.0620  -38.7070 C.2   505  HEM505      0.0000
      7  C3A        1.7630  -31.5190  -38.4950 C.2   505  HEM505      0.0000
      8  C4A        1.6270  -30.0240  -38.4730 C.2   505  HEM505      0.0000
      9  CMA        3.0230  -32.2860  -38.1490 C.3   505  HEM505      0.0000
     10  CAA        0.1340  -33.4900  -38.4400 C.3   505  HEM505      0.0000
     11  CBA       -0.5920  -33.5940  -37.0910 C.3   505  HEM505      0.0000
     12  CGA       -0.7750  -35.0410  -36.6800 C.2   505  HEM505      0.0000
     13  O1A       -1.0710  -35.3180  -35.5270 O.co2 505  HEM505      0.0000
     14  O2A       -0.6130  -36.0230  -37.5610 O.co2 505  HEM505      0.0000
     15  C1B        2.5550  -27.7270  -38.4510 C.ar  505  HEM505      0.0000
     16  C2B        3.6510  -26.9740  -38.5520 C.ar  505  HEM505      0.0000
     17  C3B        3.1830  -25.5760  -38.8070 C.ar  505  HEM505      0.0000
     18  C4B        1.7420  -25.7710  -39.1210 C.ar  505  HEM505      0.0000
     19  CMB        5.0680  -27.4300  -38.2700 C.3   505  HEM505      0.0000
     20  CAB        3.8620  -24.4670  -39.0970 C.3   505  HEM505      0.0000
     21  CBB        5.3460  -24.2720  -38.8720 C.3   505  HEM505      0.0000
     22  C1C       -0.4540  -25.0040  -39.8900 C.2   505  HEM505      0.0000
     23  C2C       -1.2610  -23.9740  -40.0530 C.2   505  HEM505      0.0000
     24  C3C       -2.6070  -24.5800  -40.2000 C.2   505  HEM505      0.0000
     25  C4C       -2.4640  -25.8460  -39.8290 C.2   505  HEM505      0.0000
     26  CMC       -0.8640  -22.5290  -40.2900 C.3   505  HEM505      0.0000
     27  CAC       -3.8970  -23.8310  -40.2890 C.2   505  HEM505      0.0000
     28  CBC       -4.1130  -22.9660  -41.2650 C.2   505  HEM505      0.0000
     29  C1D       -3.5160  -28.0720  -39.6850 C.ar  505  HEM505      0.0000
     30  C2D       -4.6600  -29.0130  -39.5240 C.ar  505  HEM505      0.0000
     31  C3D       -4.1460  -30.2410  -39.4880 C.ar  505  HEM505      0.0000
     32  C4D       -2.6670  -30.0710  -39.4150 C.ar  505  HEM505      0.0000
     33  CMD       -6.1250  -28.6350  -39.5320 C.3   505  HEM505      0.0000
     34  CAD       -4.8760  -31.5390  -39.7760 C.3   505  HEM505      0.0000
     35  CBD       -4.7900  -31.8350  -41.2730 C.3   505  HEM505      0.0000
     36  CGD       -5.4410  -33.1570  -41.5900 C.2   505  HEM505      0.0000
     37  O1D       -6.2500  -33.2300  -42.5010 O.co2 505  HEM505      0.0000
     38  O2D       -5.1320  -34.2440  -40.8910 O.co2 505  HEM505      0.0000
     39  NA         0.3530  -29.7040  -38.7170 N.2   505  HEM505      0.0000
     40  NB         1.4910  -27.0780  -38.9590 N.ar  505  HEM505      0.0000
     41  NC        -1.1730  -26.0720  -39.5090 N.2   505  HEM505      0.0000
     42  ND        -2.3840  -28.7710  -39.5930 N.ar  505  HEM505      0.0000
     43 FE         -0.5310  -28.0010  -39.3550 Fe    505  HEM505      0.0000
@<TRIPOS>BOND
     1    37    36   ar
     2    36    35    1
     3    36    38   ar
     4    35    34    1
     5    28    27    2
     6    26    23    1
     7    27    24    1
     8    24    23    2
     9    24    25    1
    10    23    22    1
    11    22     3    2
    12    22    41    1
    13    25     4    1
    14    25    41    2
    15     3    18    1
    16    34    31    1
    17    29     4    2
    18    29    42   ar
    19    29    30   ar
    20    42    32   ar
    21    42    43    1
    22    33    30    1
    23    30    31   ar
    24    41    43    1
    25    31    32   ar
    26     1    32    2
    27     1     5    1
    28    43    40    1
    29    43    39    1
    30    18    40   ar
    31    18    17   ar
    32    20    21    1
    33    20    17    1
    34     5    39    2
    35     5     6    1
    36    40    15   ar
    37    17    16   ar
    38    39     8    1
    39     6     7    2
    40     6    10    1
    41    16    15   ar
    42    16    19    1
    43     7     8    1
    44     7     9    1
    45     8     2    2
    46    15     2    1
    47    10    11    1
    48    14    12   ar
    49    11    12    1
    50    12    13   ar
