@<TRIPOS>MOLECULE
3mdu_NGQ_A_1.pdb
 13 12 0 0 0
SMALL
GASTEIGER

@<TRIPOS>ATOM
      1  C         18.6840  -10.2840  -31.4090 C.2   455  NGQ455      0.4039
      2  N         16.7210   -9.0490  -32.1680 N.pl3 455  NGQ455     -0.0783
      3  O1        18.4530   -9.8550  -30.2570 O.co2 455  NGQ455     -0.2418
      4  O2        19.4720  -11.2380  -31.6040 O.co2 455  NGQ455     -0.2418
      5  CA        17.9890   -9.6390  -32.6060 C.3   455  NGQ455      0.2832
      6  CB        18.8700   -8.5310  -33.2020 C.3   455  NGQ455      0.0670
      7  CD        19.8600   -9.7380  -35.2110 C.2   455  NGQ455      0.3650
      8  CF        15.7560   -8.6990  -33.2110 C.cat 455  NGQ455      0.5350
      9  NF        15.9030   -9.1510  -34.3790 N.pl3 455  NGQ455      0.1354
     10  CG        20.1120   -9.1450  -33.8380 C.3   455  NGQ455      0.1182
     11  NG        14.7690   -7.9620  -32.9580 N.pl3 455  NGQ455      0.1354
     12  OE1       20.8450  -10.0070  -35.9490 O.co2 455  NGQ455     -0.2457
     13  OE2       18.7000  -10.0670  -35.5560 O.co2 455  NGQ455     -0.2457
@<TRIPOS>BOND
     1    12     7   ar
     2    13     7   ar
     3     7    10    1
     4     9     8    1
     5    10     6    1
     6     8    11    1
     7     8     2    2
     8     6     5    1
     9     5     2    1
    10     5     1    1
    11     4     1   ar
    12     1     3   ar
