@<TRIPOS>MOLECULE
3mdv_CL6_A_1.pdb
 25 28 0 0 0
SMALL
GASTEIGER

@<TRIPOS>ATOM
      1 CLAY       29.5350    3.4660   29.3380 Cl    506  CL6506     -0.0825
      2  CAX       28.4310    2.4320   30.1870 C.ar  506  CL6506      0.0560
      3  CAV       27.2530    2.1090   29.5300 C.ar  506  CL6506      0.0112
      4  CAT       26.3030    1.2780   30.1250 C.ar  506  CL6506      0.0008
      5  CAS       26.5490    0.7860   31.4020 C.ar  506  CL6506     -0.0002
      6  CAU       27.7370    1.1050   32.0510 C.ar  506  CL6506     -0.0011
      7  CAW       28.7070    1.9240   31.4740 C.ar  506  CL6506      0.0146
      8  CAR       29.8920    2.1040   32.4340 C.3   506  CL6506      0.1275
      9  CAC       29.8460    3.6240   32.5870 C.ar  506  CL6506      0.0040
     10  CAE       31.0030    4.3760   32.3610 C.ar  506  CL6506     -0.0019
     11  CAF       31.0280    5.7610   32.4860 C.ar  506  CL6506     -0.0002
     12  CAD       29.8660    6.4390   32.8530 C.ar  506  CL6506     -0.0000
     13  CAB       28.6960    5.7150   33.0690 C.ar  506  CL6506     -0.0002
     14  CAA       28.6930    4.3270   32.9440 C.ar  506  CL6506     -0.0019
     15  NAO       29.6510    1.4980   33.7690 N.ar  506  CL6506     -0.3008
     16  CAM       29.0340    2.1040   34.8140 C.ar  506  CL6506      0.1792
     17  NAN       28.9760    1.2610   35.8590 N.ar  506  CL6506     -0.2223
     18  CAQ       29.5590    0.0970   35.4850 C.ar  506  CL6506      0.1193
     19  CAP       29.9830    0.2390   34.1690 C.ar  506  CL6506      0.0987
     20  CAL       31.2520    1.5770   31.9390 C.ar  506  CL6506      0.0040
     21  CAK       32.3960    1.6080   32.7540 C.ar  506  CL6506     -0.0019
     22  CAI       33.6320    1.1390   32.3110 C.ar  506  CL6506     -0.0002
     23  CAG       33.7740    0.6130   31.0280 C.ar  506  CL6506     -0.0000
     24  CAH       32.6610    0.5710   30.1970 C.ar  506  CL6506     -0.0002
     25  CAJ       31.4240    1.0450   30.6490 C.ar  506  CL6506     -0.0019
@<TRIPOS>BOND
     1     1     2    1
     2     3     4   ar
     3     3     2   ar
     4     4     5   ar
     5     2     7   ar
     6    24    25   ar
     7    24    23   ar
     8    25    20   ar
     9    23    22   ar
    10     5     6   ar
    11     7     6   ar
    12     7     8    1
    13    20     8    1
    14    20    21   ar
    15    22    21   ar
    16    10    11   ar
    17    10     9   ar
    18     8     9    1
    19     8    15    1
    20    11    12   ar
    21     9    14   ar
    22    12    13   ar
    23    14    13   ar
    24    15    19   ar
    25    15    16   ar
    26    19    18   ar
    27    16    17   ar
    28    18    17   ar
