@<TRIPOS>MOLECULE
3mdv_HEM_A_1.pdb
 43 50 0 0 0
SMALL
GASTEIGER

@<TRIPOS>ATOM
      1  CHA       30.7370    1.6860   39.1290 C.2   505  HEM505      0.0000
      2  CHB       28.8330   -2.6760   38.4520 C.2   505  HEM505      0.0000
      3  CHC       24.4650   -0.9800   39.5000 C.2   505  HEM505      0.0000
      4  CHD       26.3360    3.4440   39.9560 C.2   505  HEM505      0.0000
      5  C1A       30.6120    0.3090   38.8580 C.ar  505  HEM505      0.0000
      6  C2A       31.7410   -0.5860   38.6050 C.ar  505  HEM505      0.0000
      7  C3A       31.1990   -1.7990   38.4730 C.ar  505  HEM505      0.0000
      8  C4A       29.7230   -1.6700   38.5880 C.ar  505  HEM505      0.0000
      9  CMA       31.9370   -3.0700   38.0430 C.3   505  HEM505      0.0000
     10  CAA       33.2320   -0.1630   38.4460 C.3   505  HEM505      0.0000
     11  CBA       33.3440    0.3180   36.9900 C.3   505  HEM505      0.0000
     12  CGA       34.7300    0.7040   36.5330 C.2   505  HEM505      0.0000
     13  O1A       34.8700    1.2510   35.4160 O.co2 505  HEM505      0.0000
     14  O2A       35.7390    0.4370   37.2850 O.co2 505  HEM505      0.0000
     15  C1B       27.4480   -2.5980   38.7440 C.2   505  HEM505      0.0000
     16  C2B       26.5860   -3.7030   38.6490 C.2   505  HEM505      0.0000
     17  C3B       25.2940   -3.2060   38.8910 C.2   505  HEM505      0.0000
     18  C4B       25.4720   -1.7690   39.1280 C.2   505  HEM505      0.0000
     19  CMB       26.9690   -5.1610   38.2550 C.3   505  HEM505      0.0000
     20  CAB       23.9930   -3.8730   38.9360 C.3   505  HEM505      0.0000
     21  CBB       23.7400   -5.2530   38.9360 C.3   505  HEM505      0.0000
     22  C1C       24.5830    0.3800   39.8450 C.ar  505  HEM505      0.0000
     23  C2C       23.5590    1.1620   40.3450 C.ar  505  HEM505      0.0000
     24  C3C       24.0810    2.4580   40.4400 C.ar  505  HEM505      0.0000
     25  C4C       25.4150    2.3770   39.9810 C.ar  505  HEM505      0.0000
     26  CMC       22.1580    0.6400   40.7090 C.3   505  HEM505      0.0000
     27  CAC       23.4070    3.7290   40.9950 C.2   505  HEM505      0.0000
     28  CBC       22.3890    3.7060   41.8580 C.2   505  HEM505      0.0000
     29  C1D       27.6680    3.3320   39.8010 C.2   505  HEM505      0.0000
     30  C2D       28.5810    4.4630   39.9270 C.2   505  HEM505      0.0000
     31  C3D       29.9220    3.9270   39.7680 C.2   505  HEM505      0.0000
     32  C4D       29.7140    2.5200   39.4110 C.2   505  HEM505      0.0000
     33  CMD       28.2020    5.9280   40.1810 C.3   505  HEM505      0.0000
     34  CAD       31.2600    4.6830   39.8410 C.3   505  HEM505      0.0000
     35  CBD       31.7190    4.4890   41.2920 C.3   505  HEM505      0.0000
     36  CGD       33.0410    5.1050   41.6960 C.2   505  HEM505      0.0000
     37  O1D       33.1530    5.7650   42.7520 O.co2 505  HEM505      0.0000
     38  O2D       34.0660    4.9310   40.9570 O.co2 505  HEM505      0.0000
     39  NA        29.4050   -0.4030   38.8360 N.ar  505  HEM505      0.0000
     40  NB        26.7830   -1.4570   39.1210 N.2   505  HEM505      0.0000
     41  NC        25.6970    1.1100   39.6140 N.ar  505  HEM505      0.0000
     42  ND        28.3730    2.2070   39.4470 N.2   505  HEM505      0.0000
     43 FE         27.5910    0.3160   39.4470 Fe    505  HEM505      0.0000
@<TRIPOS>BOND
     1    13    12   ar
     2    12    11    1
     3    12    14   ar
     4    11    10    1
     5     9     7    1
     6    19    16    1
     7    10     6    1
     8     2     8    2
     9     2    15    1
    10     7     8   ar
    11     7     6   ar
    12     8    39   ar
    13     6     5   ar
    14    16    15    1
    15    16    17    2
    16    15    40    2
    17    39     5   ar
    18    39    43    1
    19     5     1    2
    20    17    20    1
    21    17    18    1
    22    20    21    1
    23    40    18    1
    24    40    43    1
    25    18     3    2
    26     1    32    1
    27    32    42    2
    28    32    31    1
    29    42    43    1
    30    42    29    1
    31    43    41    1
    32     3    22    1
    33    41    22   ar
    34    41    25   ar
    35    31    34    1
    36    31    30    2
    37    29    30    1
    38    29     4    2
    39    34    35    1
    40    22    23   ar
    41    30    33    1
    42     4    25    1
    43    25    24   ar
    44    23    24   ar
    45    23    26    1
    46    24    27    1
    47    38    36   ar
    48    27    28    2
    49    35    36    1
    50    36    37   ar
