@<TRIPOS>MOLECULE
3mdw_NFQ_A_1.pdb
 11 10 0 0 0
SMALL
GASTEIGER

@<TRIPOS>ATOM
      1  C         25.9760   -5.8620   30.0510 C.2   454  NFQ454      0.3847
      2  N         28.2580   -5.6470   29.1760 N.pl3 454  NFQ454     -0.2060
      3  O1        26.4770   -6.4760   31.0180 O.co2 454  NFQ454     -0.2437
      4  O2        24.7480   -5.6620   30.0150 O.co2 454  NFQ454     -0.2437
      5  CA        26.8460   -5.3410   28.8970 C.3   454  NFQ454      0.2078
      6  CB        26.3670   -5.9520   27.5610 C.3   454  NFQ454      0.1472
      7  CF        29.3570   -4.9970   28.4470 C.2   454  NFQ454      0.2048
      8  NF        30.5430   -5.1640   28.8430 N.2   454  NFQ454     -0.1270
      9  CG        25.4930   -4.9880   26.7420 C.2   454  NFQ454      0.3672
     10  OD1       25.8310   -3.7860   26.6390 O.co2 454  NFQ454     -0.2456
     11  OD2       24.4780   -5.4570   26.1730 O.co2 454  NFQ454     -0.2456
@<TRIPOS>BOND
     1    11     9   ar
     2    10     9   ar
     3     9     6    1
     4     6     5    1
     5     7     8    2
     6     7     2    1
     7     5     2    1
     8     5     1    1
     9     4     1   ar
    10     1     3   ar
