@<TRIPOS>MOLECULE
3mdy_LDN_A_1.pdb
 31 36 0 0 0
SMALL
GASTEIGER

@<TRIPOS>ATOM
      1  CAA       46.1890    4.7340   57.0330 C.ar    1  LDN1        0.0015
      2  CAB       46.3840    6.0070   57.5270 C.ar    1  LDN1        0.0001
      3  CAC       41.8890    5.9310   55.4460 C.ar    1  LDN1        0.0988
      4  CAD       42.0200    7.2240   55.9450 C.ar    1  LDN1        0.0210
      5  CAE       46.1500   14.5630   57.8260 C.ar    1  LDN1        0.0012
      6  CAF       48.0680   13.2630   57.2900 C.ar    1  LDN1        0.0012
      7  CAG       46.9490   15.6910   58.0090 C.ar    1  LDN1        0.0145
      8  CAH       48.8640   14.3990   57.4910 C.ar    1  LDN1        0.0145
      9  CAI       44.9910    4.4430   56.3600 C.ar    1  LDN1        0.0191
     10  CAJ       45.3890    6.9530   57.4010 C.ar    1  LDN1        0.0015
     11  CAK       46.2550   11.0270   56.5990 C.2     1  LDN1        0.2355
     12  CAL       42.2470    9.5370   57.8710 C.2     1  LDN1        0.1363
     13  CAM       44.6100   12.1340   57.8940 C.3     1  LDN1        0.2600
     14  CAN       49.7130   18.9390   59.3090 C.3     1  LDN1        0.1101
     15  CAO       51.4710   17.5310   58.2480 C.3     1  LDN1        0.1101
     16  CAP       48.7850   17.6940   59.1630 C.3     1  LDN1        0.1096
     17  CAQ       50.5190   16.6190   57.5020 C.3     1  LDN1        0.1096
     18  NAR       42.8450    5.0450   55.5680 N.ar    1  LDN1       -0.2438
     19  NAS       45.4620    9.9710   56.4820 N.2     1  LDN1       -0.0344
     20  NAT       42.6390   10.7670   58.2550 N.pl3   1  LDN1       -0.0549
     21  NAU       50.9050   18.8820   58.4450 N.3     1  LDN1       -0.2144
     22  CAV       46.6850   13.3300   57.4450 C.ar    1  LDN1        0.0038
     23  CAW       45.8560   12.1720   57.2900 C.2     1  LDN1        0.0732
     24  CAX       48.3200   15.6100   57.8440 C.ar    1  LDN1        0.0479
     25  CAY       43.1780    7.6490   56.5860 C.ar    1  LDN1        0.0116
     26  CAZ       43.2140    8.9590   57.1370 C.2     1  LDN1        0.1044
     27  CBA       43.9970    5.3920   56.2150 C.ar    1  LDN1        0.0813
     28  CBB       44.1880    6.6730   56.7310 C.ar    1  LDN1        0.0180
     29  CBC       44.2420    9.9190   57.0620 C.2     1  LDN1        0.3475
     30  NBD       49.1760   16.6850   58.0960 N.pl3   1  LDN1       -0.3045
     31  NBE       43.7740   11.0190   57.7800 N.pl3   1  LDN1       -0.0803
@<TRIPOS>BOND
     1     3    18   ar
     2     3     4   ar
     3    18    27   ar
     4     4    25   ar
     5    27     9   ar
     6    27    28   ar
     7     9     1   ar
     8    19    11    1
     9    19    29    2
    10    25    28   ar
    11    25    26    1
    12    11    23    2
    13    28    10   ar
    14     1     2   ar
    15    29    26    1
    16    29    31    1
    17    26    12    2
    18     6    22   ar
    19     6     8   ar
    20    23    22    1
    21    23    13    1
    22    10     2   ar
    23    22     5   ar
    24     8    24   ar
    25    17    30    1
    26    17    15    1
    27    31    13    1
    28    31    20    1
    29     5     7   ar
    30    24     7   ar
    31    24    30    1
    32    12    20    1
    33    30    16    1
    34    15    21    1
    35    21    14    1
    36    16    14    1
