@<TRIPOS>MOLECULE
3mdz_EZL_A_1.pdb
 16 17 0 0 0
SMALL
GASTEIGER

@<TRIPOS>ATOM
      1  N1        15.8730   12.5730   80.9780 N.3   264  EZL264      0.0423
      2  C2        15.2480    7.8930   81.7440 C.2   264  EZL264      0.1219
      3  C3        14.0870    7.6460   80.9600 C.2   264  EZL264      0.0619
      4  C4        13.4120    6.4610   81.0850 C.2   264  EZL264      0.0454
      5  C5        13.8010    5.4700   81.9760 C.2   264  EZL264      0.1353
      6  C8        13.6890    3.1060   82.2510 C.3   264  EZL264      0.2055
      7  O1        16.7720   11.2790   79.0280 O.2   264  EZL264     -0.1473
      8  O2        14.4110   11.6960   79.0050 O.2   264  EZL264     -0.1473
      9  S1        15.5860   11.4040   79.8610 S.O2  264  EZL264      0.1273
     10  C1        15.1850    9.8450   80.5200 C.2   264  EZL264      0.2852
     11  N2        15.8370    9.1190   81.4750 N.2   264  EZL264     -0.3796
     12  S2        13.7630    8.9930   79.9280 S.3   264  EZL264     -0.0329
     13  C6        14.9260    5.6800   82.7960 C.2   264  EZL264      0.0182
     14  C7        15.6290    6.8790   82.6620 C.3   264  EZL264      0.0887
     15  O3        12.9920    4.3580   82.0000 O.2   264  EZL264     -0.4758
     16  C9        12.6010    2.0430   81.9650 C.3   264  EZL264      0.0512
@<TRIPOS>BOND
     1     8     9    2
     2     7     9    2
     3     9    10    1
     4     9     1    1
     5    12    10    1
     6    12     3    1
     7    10    11    2
     8     3     4    2
     9     3     2    1
    10     4     5    1
    11    11     2    2
    12     2    14    1
    13    16     6    1
    14     5    15    1
    15     5    13    2
    16    15     6    1
    17    14    13    1
