@<TRIPOS>MOLECULE
3me3_FBP_A_1.pdb
 20 20 0 0 0
SMALL
GASTEIGER

@<TRIPOS>ATOM
      1  P1       -23.6400  -18.4570   12.1040 P.3   541  FBP541      0.5328
      2  O1P      -23.7180  -19.8190   11.4720 O.3   541  FBP541     -0.1145
      3  O2P      -23.3730  -17.5080   10.9550 O.2   541  FBP541     -0.2224
      4  O3P      -24.7390  -17.9540   12.9690 O.3   541  FBP541     -0.1145
      5  O1       -22.3040  -18.3970   13.0300 O.3   541  FBP541     -0.2648
      6  C1       -21.0690  -18.8300   12.5220 C.3   541  FBP541      0.2152
      7  C2       -19.9710  -18.1950   13.3750 C.3   541  FBP541      0.2780
      8  O2       -18.6860  -18.7200   12.9860 O.3   541  FBP541     -0.1897
      9  C3       -20.1720  -18.4430   14.8590 C.3   541  FBP541      0.2408
     10  O3       -19.6270  -19.6880   15.2580 O.3   541  FBP541     -0.2149
     11  C4       -19.5160  -17.2050   15.4520 C.3   541  FBP541      0.2167
     12  O4       -19.8730  -16.8840   16.7790 O.3   541  FBP541     -0.2175
     13  C5       -19.9580  -16.1450   14.4520 C.3   541  FBP541      0.1808
     14  O5       -19.9310  -16.7770   13.1800 O.3   541  FBP541     -0.3255
     15  C6       -19.0430  -14.9240   14.4760 C.3   541  FBP541      0.1859
     16  O6       -19.7860  -13.7710   14.1680 O.3   541  FBP541     -0.2675
     17  P2       -19.4360  -12.3740   14.8750 P.3   541  FBP541      0.5327
     18  O4P      -19.3360  -12.4980   16.3490 O.3   541  FBP541     -0.1145
     19  O5P      -20.5590  -11.4430   14.5340 O.3   541  FBP541     -0.1145
     20  O6P      -18.0700  -11.9530   14.2900 O.2   541  FBP541     -0.2224
@<TRIPOS>BOND
     1     3     1    2
     2     2     1    1
     3     1     4    1
     4     1     5    1
     5     6     5    1
     6     6     7    1
     7     8     7    1
     8    14     7    1
     9    14    13    1
    10     7     9    1
    11    16    15    1
    12    16    17    1
    13    20    17    2
    14    13    15    1
    15    13    11    1
    16    19    17    1
    17     9    10    1
    18     9    11    1
    19    17    18    1
    20    11    12    1
