@<TRIPOS>MOLECULE
3me3_3SZ_A_1.pdb
 30 33 0 0 0
SMALL
GASTEIGER

@<TRIPOS>ATOM
      1  NAA       15.2830    6.3800   11.2310 N.pl3 540  3SZ540     -0.1280
      2  OAB       12.3080    4.3590   16.2710 O.2   540  3SZ540     -0.1528
      3  OAC       11.5070    6.2230   14.9190 O.2   540  3SZ540     -0.1528
      4  OAD        8.2870   -0.7090   13.9050 O.2   540  3SZ540     -0.1528
      5  OAE        7.4940    0.2890   11.7850 O.2   540  3SZ540     -0.1528
      6  CAF       15.6740    3.7200   13.6500 C.ar  540  3SZ540      0.0028
      7  CAG       15.9600    4.5700   12.5800 C.ar  540  3SZ540      0.0181
      8  CAH       14.4820    3.8110   14.3360 C.ar  540  3SZ540      0.0200
      9  CAI        5.9030    0.2810   15.3400 C.ar  540  3SZ540      0.0232
     10  CAJ        4.6720    0.4730   15.9730 C.ar  540  3SZ540      0.0414
     11  CAK       13.8190    5.6280   12.9220 C.ar  540  3SZ540      0.0380
     12  CAL        5.0440    1.2710   13.3070 C.ar  540  3SZ540      0.0599
     13  CAM        8.8680    4.2970   12.8400 C.3   540  3SZ540      0.0383
     14  CAN        1.4380    2.0900   15.2160 C.3   540  3SZ540      0.2526
     15  CAO        1.4820    1.7980   13.7240 C.3   540  3SZ540      0.2526
     16  CAP       10.3960    4.2970   12.8840 C.3   540  3SZ540      0.0973
     17  CAQ        8.2320    2.9450   12.5630 C.3   540  3SZ540      0.0973
     18  CAR       10.8030    2.4650   14.5180 C.3   540  3SZ540      0.1149
     19  CAS        9.3390    1.9980   14.7510 C.3   540  3SZ540      0.1149
     20  OAT        2.4140    1.2190   15.9050 O.3   540  3SZ540     -0.4684
     21  OAU        2.8080    2.0470   13.2240 O.3   540  3SZ540     -0.4683
     22  CAV       15.0290    5.5490   12.2380 C.ar  540  3SZ540      0.0904
     23  CAW       13.5370    4.7510   13.9720 C.ar  540  3SZ540      0.1235
     24  CAX        6.0930    0.6980   14.0150 C.ar  540  3SZ540      0.1254
     25  CAY        3.6170    1.0610   15.2730 C.ar  540  3SZ540      0.1725
     26  CAZ        3.8080    1.4630   13.9370 C.ar  540  3SZ540      0.1737
     27  NBA       10.8160    3.9280   14.2440 N.3   540  3SZ540     -0.1540
     28  NBB        8.6090    1.8270   13.4630 N.3   540  3SZ540     -0.1540
     29  SBC       12.0250    4.8250   14.8670 S.O2  540  3SZ540      0.0634
     30  SBD        7.6570    0.5000   13.2610 S.O2  540  3SZ540      0.0634
@<TRIPOS>BOND
     1     1    22    1
     2     5    30    2
     3    22     7   ar
     4    22    11   ar
     5    17    13    1
     6    17    28    1
     7     7     6   ar
     8    13    16    1
     9    16    27    1
    10    11    23   ar
    11    21    15    1
    12    21    26    1
    13    30    28    1
    14    30     4    2
    15    30    24    1
    16    12    26   ar
    17    12    24   ar
    18    28    19    1
    19     6     8   ar
    20    15    14    1
    21    26    25   ar
    22    23     8   ar
    23    23    29    1
    24    24     9   ar
    25    27    18    1
    26    27    29    1
    27    18    19    1
    28    29     3    2
    29    29     2    2
    30    14    20    1
    31    25    20    1
    32    25    10   ar
    33     9    10   ar
