@<TRIPOS>MOLECULE
3me6_CGE_A_1.pdb
 21 23 0 0 0
SMALL
GASTEIGER

@<TRIPOS>ATOM
      1  C        -19.4250   44.7350   -1.7470 C.2   501  CGE501      0.3361
      2  N        -17.7880   42.9340   -2.7230 N.3   501  CGE501     -0.2573
      3  O        -20.4980   44.2610   -1.3660 O.2   501  CGE501     -0.2482
      4 CL1       -17.3310   45.8060   -4.7720 Cl    501  CGE501     -0.0825
      5  CA       -18.6250   44.1420   -2.9170 C.3   501  CGE501      0.1815
      6  CAA      -18.1030   46.9360   -1.6400 C.3   501  CGE501      0.2557
      7  CAD      -20.5060   44.1100   -6.6950 C.ar  501  CGE501      0.0008
      8  CAE      -21.0810   43.3170   -5.7020 C.ar  501  CGE501     -0.0002
      9  CAF      -13.2790   43.1530   -3.4540 C.ar  501  CGE501      0.0348
     10  CAG      -19.3670   44.8840   -6.4630 C.ar  501  CGE501      0.0111
     11  CAH      -20.4880   43.2970   -4.4470 C.ar  501  CGE501     -0.0016
     12  CAI      -14.1680   43.4280   -2.4300 C.ar  501  CGE501      0.0042
     13  CAJ      -16.8810   41.7100   -4.6020 C.3   501  CGE501      0.0500
     14  CAK      -17.9820   41.6990   -3.5250 C.3   501  CGE501      0.0783
     15  CAL      -16.6870   43.1180   -1.7720 C.3   501  CGE501      0.1000
     16  OAM      -18.9210   45.9240   -1.0330 O.3   501  CGE501     -0.4432
     17  SAN      -14.1210   42.3390   -4.7260 S.2   501  CGE501     -0.0910
     18  CAP      -18.7940   44.8570   -5.2030 C.ar  501  CGE501      0.0555
     19  CAQ      -15.4760   42.9930   -2.6560 C.ar  501  CGE501     -0.0036
     20  CAR      -15.6510   42.3260   -3.9620 C.ar  501  CGE501      0.0060
     21  CAS      -19.3530   44.0850   -4.2130 C.ar  501  CGE501      0.0135
@<TRIPOS>BOND
     1     7    10   ar
     2     7     8   ar
     3    10    18   ar
     4     8    11   ar
     5    18     4    1
     6    18    21   ar
     7    17    20   ar
     8    17     9   ar
     9    13    20    1
    10    13    14    1
    11    11    21   ar
    12    21     5    1
    13    20    19   ar
    14    14     2    1
    15     9    12   ar
    16     5     2    1
    17     5     1    1
    18     2    15    1
    19    19    12   ar
    20    19    15    1
    21     1     3    2
    22     1    16    1
    23     6    16    1
