@<TRIPOS>MOLECULE
3me6_HEM_A_1.pdb
 43 50 0 0 0
SMALL
GASTEIGER

@<TRIPOS>ATOM
      1  CHA      -21.1150   46.2890   -9.3930 C.2   500  HEM500      0.0000
      2  CHB      -24.9360   45.6470   -6.5190 C.2   500  HEM500      0.0000
      3  CHC      -24.9600   40.9460   -7.3430 C.2   500  HEM500      0.0000
      4  CHD      -21.1220   41.4280  -10.2200 C.2   500  HEM500      0.0000
      5  C1A      -22.1390   46.5280   -8.5160 C.2   500  HEM500      0.0000
      6  C2A      -22.4410   47.7790   -7.8520 C.2   500  HEM500      0.0000
      7  C3A      -23.5000   47.5810   -7.0640 C.2   500  HEM500      0.0000
      8  C4A      -23.8800   46.2040   -7.1910 C.2   500  HEM500      0.0000
      9  CMA      -24.2280   48.6010   -6.1640 C.3   500  HEM500      0.0000
     10  CAA      -21.6990   49.1160   -8.0340 C.3   500  HEM500      0.0000
     11  CBA      -22.1630   49.7240   -9.3530 C.3   500  HEM500      0.0000
     12  CGA      -21.4900   51.0430   -9.5400 C.2   500  HEM500      0.0000
     13  O1A      -21.2020   51.3970  -10.7050 O.co2 500  HEM500      0.0000
     14  O2A      -21.2430   51.7300   -8.5080 O.co2 500  HEM500      0.0000
     15  C1B      -25.2460   44.3160   -6.4350 C.ar  500  HEM500      0.0000
     16  C2B      -26.1990   43.7250   -5.5350 C.ar  500  HEM500      0.0000
     17  C3B      -26.1890   42.4270   -5.7740 C.ar  500  HEM500      0.0000
     18  C4B      -25.2350   42.1680   -6.8130 C.ar  500  HEM500      0.0000
     19  CMB      -27.0490   44.4600   -4.4890 C.3   500  HEM500      0.0000
     20  CAB      -27.0270   41.3390   -5.0770 C.2   500  HEM500      0.0000
     21  CBB      -28.3520   41.4290   -5.0490 C.2   500  HEM500      0.0000
     22  C1C      -23.9410   40.6730   -8.2080 C.2   500  HEM500      0.0000
     23  C2C      -23.6340   39.3690   -8.7510 C.2   500  HEM500      0.0000
     24  C3C      -22.5730   39.4940   -9.5280 C.2   500  HEM500      0.0000
     25  C4C      -22.1790   40.8890   -9.5190 C.2   500  HEM500      0.0000
     26  CMC      -24.3930   38.0820   -8.4530 C.3   500  HEM500      0.0000
     27  CAC      -21.8720   38.3630  -10.2800 C.2   500  HEM500      0.0000
     28  CBC      -22.0170   38.2380  -11.5870 C.2   500  HEM500      0.0000
     29  C1D      -20.7870   42.7740  -10.2920 C.ar  500  HEM500      0.0000
     30  C2D      -19.7420   43.2970  -11.1180 C.ar  500  HEM500      0.0000
     31  C3D      -19.7260   44.7890  -10.8650 C.ar  500  HEM500      0.0000
     32  C4D      -20.7680   45.0490   -9.9020 C.ar  500  HEM500      0.0000
     33  CMD      -18.8580   42.4650  -12.0360 C.3   500  HEM500      0.0000
     34  CAD      -18.8100   45.8220  -11.4890 C.3   500  HEM500      0.0000
     35  CBD      -19.5830   46.5070  -12.5840 C.3   500  HEM500      0.0000
     36  CGD      -18.5770   47.4180  -13.2120 C.2   500  HEM500      0.0000
     37  O1D      -18.6250   47.5570  -14.4680 O.co2 500  HEM500      0.0000
     38  O2D      -17.7400   47.9820  -12.4520 O.co2 500  HEM500      0.0000
     39  NA       -23.0440   45.5840   -8.0920 N.2   500  HEM500      0.0000
     40  NB       -24.6710   43.3400   -7.2060 N.ar  500  HEM500      0.0000
     41  NC       -23.0420   41.6010   -8.6930 N.2   500  HEM500      0.0000
     42  ND       -21.3830   43.8310   -9.5870 N.ar  500  HEM500      0.0000
     43 FE        -23.2010   43.6770   -8.5690 Fe    500  HEM500      0.0000
@<TRIPOS>BOND
     1    37    36   ar
     2    36    35    1
     3    36    38   ar
     4    35    34    1
     5    33    30    1
     6    28    27    2
     7    34    31    1
     8    30    31   ar
     9    30    29   ar
    10    31    32   ar
    11    13    12   ar
    12    29     4    2
    13    29    42   ar
    14    27    24    1
    15     4    25    1
    16    32    42   ar
    17    32     1    2
    18    42    43    1
    19    12    11    1
    20    12    14   ar
    21    24    25    1
    22    24    23    2
    23    25    41    2
    24     1     5    1
    25    11    10    1
    26    23    26    1
    27    23    22    1
    28    41    43    1
    29    41    22    1
    30    43    39    1
    31    43    40    1
    32     5    39    2
    33     5     6    1
    34    22     3    2
    35    39     8    1
    36    10     6    1
    37     6     7    2
    38     3    18    1
    39    40    18   ar
    40    40    15   ar
    41     8     7    1
    42     8     2    2
    43     7     9    1
    44    18    17   ar
    45     2    15    1
    46    15    16   ar
    47    17    16   ar
    48    17    20    1
    49    16    19    1
    50    20    21    2
