@<TRIPOS>MOLECULE
3me9_III_D_1.pdb
 35 34 0 0 0
SMALL
GASTEIGER

@<TRIPOS>ATOM
      1  N         53.8440    9.1890   48.9200 N.3     1  ALA1       -0.1231
      2  CA        53.6340   10.1620   47.7920 C.3     1  ALA1        0.1694
      3  C         54.0910   11.5320   48.1870 C.2     1  ALA1        0.2592
      4  O         54.1320   11.8640   49.3680 O.2     1  ALA1       -0.2718
      5  CB        52.1430   10.2370   47.3860 C.3     1  ALA1        0.0304
      6  N         54.4460   12.3340   47.1930 N.am    2  ARG2       -0.1966
      7  CA        54.7910   13.7520   47.4040 C.3     2  ARG2        0.1729
      8  C         53.5920   14.5670   46.9120 C.2     2  ARG2        0.2617
      9  O         53.2350   14.4880   45.7350 O.2     2  ARG2       -0.2715
     10  CB        56.0660   14.1080   46.6380 C.3     2  ARG2        0.0348
     11  CG        56.6580   15.5060   46.9660 C.3     2  ARG2        0.0492
     12  CD        58.0620   15.6750   46.4090 C.3     2  ARG2        0.2205
     13  NE        58.9500   14.6110   46.8800 N.pl3   2  ARG2       -0.0865
     14  CZ        60.1910   14.3730   46.4420 C.cat   2  ARG2        0.5346
     15  NH1       60.7620   15.1280   45.5090 N.pl3   2  ARG2        0.1354
     16  NH2       60.8700   13.3540   46.9610 N.pl3   2  ARG2        0.1354
     17  N         52.9290   15.2930   47.8090 N.am    3  THR3       -0.1937
     18  CA        51.7430   16.0670   47.4530 C.3     3  THR3        0.2028
     19  C         52.1110   17.4800   47.0940 C.2     3  THR3        0.2642
     20  O         53.1900   17.9440   47.4190 O.2     3  THR3       -0.2714
     21  CB        50.7160   16.1250   48.6030 C.3     3  THR3        0.1808
     22  OG1       51.3110   16.7570   49.7520 O.3     3  THR3       -0.2208
     23  CG2       50.2550   14.7490   48.9670 C.3     3  THR3        0.0379
     24  N         51.1910   18.1580   46.4350 N.am    4  LYS4       -0.1977
     25  CA        51.2580   19.6010   46.2750 C.3     4  LYS4        0.1596
     26  CB        50.0650   19.9800   45.3890 C.3     4  LYS4        0.0296
     27  CG        49.9190   21.4720   45.1620 C.3     4  LYS4        0.0001
     28  CD        48.9320   21.6530   44.0230 C.3     4  LYS4       -0.0222
     29  CE        47.4960   21.3900   44.4720 C.3     4  LYS4       -0.0733
     30  NZ        46.5160   21.8260   43.4580 N.4     4  LYS4        0.3857
     31  C         51.3010   20.2900   47.6150 C.2     4  LYS4        0.2287
     32  O         52.0970   21.2400   47.7450 O.2     4  LYS4       -0.2864
     33  CM1       46.5960   23.2780   43.2730 C.3     4  LYS4       -0.0960
     34  CM2       45.1840   21.4580   43.9140 C.3     4  LYS4       -0.0960
     35  CM3       46.7460   21.1830   42.1560 C.3     4  LYS4       -0.0960
@<TRIPOS>BOND
     1    35    30    1
     2    33    30    1
     3    30    34    1
     4    30    29    1
     5    28    29    1
     6    28    27    1
     7    27    26    1
     8    26    25    1
     9    15    14    1
    10     9     8    2
    11    25    24    1
    12    25    31    1
    13    12    13    1
    14    12    11    1
    15    24    19   am
    16    14    13    2
    17    14    16    1
    18    10    11    1
    19    10     7    1
    20     8     7    1
    21     8    17   am
    22    19    20    2
    23    19    18    1
    24     6     7    1
    25     6     3   am
    26     5     2    1
    27    18    17    1
    28    18    21    1
    29    31    32    2
    30     2     3    1
    31     2     1    1
    32     3     4    2
    33    21    23    1
    34    21    22    1
