@<TRIPOS>MOLECULE
3mea_III_B_1.pdb
 35 34 0 0 0
SMALL
GASTEIGER

@<TRIPOS>ATOM
      1  N         22.4470   21.8520    4.2010 N.3     1  ALA1       -0.1231
      2  CA        21.8230   21.6540    5.5520 C.3     1  ALA1        0.1694
      3  C         22.5720   22.5230    6.5410 C.2     1  ALA1        0.2592
      4  O         23.7480   22.8290    6.3540 O.2     1  ALA1       -0.2718
      5  CB        21.8440   20.1830    5.9780 C.3     1  ALA1        0.0304
      6  N         21.8680   22.9560    7.5610 N.am    2  ARG2       -0.1966
      7  CA        22.4610   23.7400    8.6310 C.3     2  ARG2        0.1729
      8  C         22.6510   22.8140    9.8220 C.2     2  ARG2        0.2617
      9  O         21.6850   22.2590   10.3470 O.2     2  ARG2       -0.2715
     10  CB        21.5220   24.8700    8.9920 C.3     2  ARG2        0.0348
     11  CG        22.0040   25.8510   10.0340 C.3     2  ARG2        0.0492
     12  CD        20.8320   26.7880   10.3590 C.3     2  ARG2        0.2205
     13  NE        21.1830   27.9140   11.2290 N.pl3   2  ARG2       -0.0865
     14  CZ        20.2920   28.7320   11.8110 C.cat   2  ARG2        0.5346
     15  NH1       18.9800   28.5450   11.6350 N.pl3   2  ARG2        0.1354
     16  NH2       20.7140   29.7400   12.5770 N.pl3   2  ARG2        0.1354
     17  N         23.8940   22.6050   10.2250 N.am    3  THR3       -0.1937
     18  CA        24.2130   21.7300   11.3500 C.3     3  THR3        0.2028
     19  C         24.2950   22.5370   12.6500 C.2     3  THR3        0.2642
     20  O         24.2720   23.7840   12.6350 O.2     3  THR3       -0.2714
     21  CB        25.5410   20.9360   11.1280 C.3     3  THR3        0.1808
     22  OG1       26.6430   21.8460   11.0970 O.3     3  THR3       -0.2208
     23  CG2       25.5240   20.1080    9.8430 C.3     3  THR3        0.0379
     24  N         24.3850   21.8200   13.7680 N.am    4  LYS4       -0.1977
     25  CA        24.5150   22.4450   15.1150 C.3     4  LYS4        0.1596
     26  CB        24.2590   21.3700   16.2330 C.3     4  LYS4        0.0296
     27  CG        25.4440   20.4260   16.3590 C.3     4  LYS4        0.0001
     28  CD        25.2760   19.0700   17.0440 C.3     4  LYS4       -0.0222
     29  CE        24.1990   19.0760   18.0790 C.3     4  LYS4       -0.0733
     30  NZ        24.3230   17.9460   19.0710 N.4     4  LYS4        0.3857
     31  C         25.8260   23.1920   15.3220 C.2     4  LYS4        0.2287
     32  O         26.0150   23.8810   16.3430 O.2     4  LYS4       -0.2864
     33  CM1       24.6950   18.4650   20.4010 C.3     4  LYS4       -0.0960
     34  CM2       25.2330   16.8190   18.7310 C.3     4  LYS4       -0.0960
     35  CM3       23.0010   17.3480   19.1680 C.3     4  LYS4       -0.0960
@<TRIPOS>BOND
     1     1     2    1
     2     2     5    1
     3     2     3    1
     4     4     3    2
     5     3     6   am
     6     6     7    1
     7     7    10    1
     8     7     8    1
     9    10    11    1
    10     8    17   am
    11     8     9    2
    12    23    21    1
    13    11    12    1
    14    17    18    1
    15    12    13    1
    16    22    21    1
    17    21    18    1
    18    13    14    2
    19    18    19    1
    20    15    14    1
    21    14    16    1
    22    20    19    2
    23    19    24   am
    24    24    25    1
    25    25    31    1
    26    25    26    1
    27    31    32    2
    28    26    27    1
    29    27    28    1
    30    28    29    1
    31    29    30    1
    32    34    30    1
    33    30    35    1
    34    30    33    1
