@<TRIPOS>MOLECULE
3meb_PLP_A_1.pdb
 16 16 0 0 0
SMALL
GASTEIGER

@<TRIPOS>ATOM
      1  N1         1.4140   48.2980   11.5970 N.2   499  PLP499     -0.2505
      2  C2         0.7010   47.6430   10.6220 C.2   499  PLP499      0.0679
      3  C2A        0.7200   48.1490    9.2090 C.3   499  PLP499      0.0499
      4  C3        -0.0350   46.5090   10.9460 C.3   499  PLP499      0.1987
      5  O3        -0.7390   45.8740    9.9670 O.3   499  PLP499     -0.2162
      6  C4        -0.0470   46.0410   12.2600 C.3   499  PLP499      0.1228
      7  C4A       -1.1080   45.1020   12.7510 C.2   499  PLP499      0.2141
      8  O4A       -2.2670   45.4800   12.7280 O.2   499  PLP499     -0.2879
      9  C5         0.6760   46.7200   13.2220 C.2   499  PLP499      0.0147
     10  C6         1.4100   47.8420   12.8880 C.2   499  PLP499      0.0926
     11  C5A        0.6960   46.2560   14.6590 C.3   499  PLP499      0.1780
     12  O4P       -0.2900   45.3140   15.0060 O.3   499  PLP499     -0.2656
     13  P         -0.0500   44.6330   16.4320 P.3   499  PLP499      0.5329
     14  O1P       -0.3160   45.6440   17.5110 O.3   499  PLP499     -0.1145
     15  O2P        1.4050   44.2570   16.4630 O.2   499  PLP499     -0.2224
     16  O3P       -0.8890   43.3980   16.6140 O.3   499  PLP499     -0.1145
@<TRIPOS>BOND
     1     3     2    1
     2     5     4    1
     3     2     4    1
     4     2     1    2
     5     4     6    1
     6     1    10    1
     7     6     7    1
     8     6     9    1
     9     8     7    2
    10    10     9    2
    11     9    11    1
    12    11    12    1
    13    12    13    1
    14    13    15    2
    15    13    16    1
    16    13    14    1
