@<TRIPOS>MOLECULE
3mec_65B_A_1.pdb
 28 30 0 0 0
SMALL
GASTEIGER

@<TRIPOS>ATOM
      1  C1        11.4930   13.1190   18.2690 C.ar  561  65B561      0.1399
      2  O17       12.2310   13.8260   17.2800 O.3   561  65B561     -0.4297
      3  C2        11.3520   11.6660   18.1890 C.ar  561  65B561      0.0131
      4  C2'       11.9930   10.8650   17.0520 C.3   561  65B561      0.0342
      5  C3        10.6080   10.9660   19.1930 C.ar  561  65B561      0.0090
      6  C4        10.0010   11.6710   20.2570 C.ar  561  65B561      0.0680
      7  C5        10.1180   13.0930   20.3620 C.ar  561  65B561      0.0090
      8  C6        10.8540   13.8320   19.3770 C.ar  561  65B561      0.0131
      9  C6'       10.9620   15.3690   19.5200 C.3   561  65B561      0.0342
     10  C13       11.5260   14.1680   16.1090 C.2   561  65B561      0.2879
     11  N12       10.2740   13.5780   15.8510 N.2   561  65B561     -0.2919
     12  C11        9.5270   13.8830   14.7120 C.1   561  65B561      0.2282
     13  N5         8.3320   13.3020   14.4610 N.pl3 561  65B561     -0.1253
     14  N16       10.0640   14.8230   13.7930 N.2   561  65B561     -0.3114
     15  C15       11.3320   15.4270   14.0270 C.2   561  65B561      0.2304
     16  N18       11.8170   16.3120   13.1210 N.pl3 561  65B561     -0.0955
     17  C14       12.0770   15.0900   15.2100 C.3   561  65B561      0.2171
     18  C21        7.6810   12.3480   15.1950 C.ar  561  65B561      0.0836
     19  C22        6.6480   11.6520   14.4900 C.ar  561  65B561      0.0181
     20  C23        5.9130   10.6130   15.1290 C.ar  561  65B561      0.0116
     21  C24        6.1900   10.2400   16.4900 C.ar  561  65B561      0.0685
     22  C25        7.2180   10.9200   17.2310 C.ar  561  65B561      0.0116
     23  C26        7.9690   11.9740   16.5930 C.ar  561  65B561      0.0181
     24  C27        5.4240    9.1890   17.0740 C.1   561  65B561      0.1004
     25  N27        4.7740    8.3450   17.5200 N.1   561  65B561     -0.1908
     26  C4'        9.2790   10.9490   21.2370 C.1   561  65B561      0.1004
     27  N4'        8.7180   10.3740   22.0480 N.1   561  65B561     -0.1908
     28 BR         13.7390   15.8380   15.5810 Br    561  65B561     -0.0612
@<TRIPOS>BOND
     1    16    15    1
     2    14    15    2
     3    14    12    2
     4    15    17    1
     5    13    12    1
     6    13    18    1
     7    19    20   ar
     8    19    18   ar
     9    12    11    2
    10    20    21   ar
    11    18    23   ar
    12    17    28    1
    13    17    10    1
    14    11    10    2
    15    10     2    1
    16    21    24    1
    17    21    22   ar
    18    23    22   ar
    19     4     3    1
    20    24    25    3
    21     2     1    1
    22     3     1   ar
    23     3     5   ar
    24     1     8   ar
    25     5     6   ar
    26     8     9    1
    27     8     7   ar
    28     6     7   ar
    29     6    26    1
    30    26    27    3
