@<TRIPOS>MOLECULE
3med_65B_A_1.pdb
 28 30 0 0 0
SMALL
GASTEIGER

@<TRIPOS>ATOM
      1  C1        11.7490   12.9930   18.0770 C.ar  561  65B561      0.1399
      2  O17       12.5090   13.6950   17.0920 O.3   561  65B561     -0.4297
      3  C2        11.6070   11.5360   17.9900 C.ar  561  65B561      0.0131
      4  C2'       12.2690   10.7370   16.8540 C.3   561  65B561      0.0342
      5  C3        10.8360   10.8290   18.9890 C.ar  561  65B561      0.0090
      6  C4        10.2230   11.5510   20.0380 C.ar  561  65B561      0.0680
      7  C5        10.3520   12.9620   20.1410 C.ar  561  65B561      0.0090
      8  C6        11.0940   13.6980   19.1910 C.ar  561  65B561      0.0131
      9  C6'       11.1800   15.2320   19.3890 C.3   561  65B561      0.0342
     10  C13       11.8150   14.1390   15.9510 C.2   561  65B561      0.2879
     11  N12       10.5790   13.5630   15.6640 N.2   561  65B561     -0.2919
     12  C11        9.8180   13.9350   14.5690 C.1   561  65B561      0.2282
     13  N5         8.6230   13.3630   14.3170 N.pl3 561  65B561     -0.1253
     14  N16       10.3140   14.9350   13.7180 N.2   561  65B561     -0.3114
     15  C15       11.5730   15.5520   13.9620 C.2   561  65B561      0.2304
     16  N18       11.9960   16.5150   13.0910 N.pl3 561  65B561     -0.0955
     17  C14       12.3530   15.1510   15.1120 C.3   561  65B561      0.2171
     18  C21        7.9970   12.3760   15.0290 C.ar  561  65B561      0.0836
     19  C22        7.0110   11.6090   14.3110 C.ar  561  65B561      0.0181
     20  C23        6.3070   10.5470   14.9620 C.ar  561  65B561      0.0116
     21  C24        6.5730   10.2400   16.3220 C.ar  561  65B561      0.0685
     22  C25        7.5430   10.9810   17.0600 C.ar  561  65B561      0.0116
     23  C26        8.2580   12.0470   16.4220 C.ar  561  65B561      0.0181
     24  C27        5.8500    9.1860   16.9330 C.1   561  65B561      0.1004
     25  N27        5.2260    8.3550   17.4280 N.1   561  65B561     -0.1908
     26  C4'        9.4730   10.8860   21.0070 C.1   561  65B561      0.1004
     27  N4'        8.8580   10.3720   21.8100 N.1   561  65B561     -0.1908
     28 BR         14.0450   15.9240   15.5090 Br    561  65B561     -0.0612
@<TRIPOS>BOND
     1    16    15    1
     2    14    15    2
     3    14    12    2
     4    15    17    1
     5    19    20   ar
     6    19    18   ar
     7    13    12    1
     8    13    18    1
     9    12    11    2
    10    20    21   ar
    11    18    23   ar
    12    17    28    1
    13    17    10    1
    14    11    10    2
    15    10     2    1
    16    21    24    1
    17    21    22   ar
    18    23    22   ar
    19     4     3    1
    20    24    25    3
    21     2     1    1
    22     3     1   ar
    23     3     5   ar
    24     1     8   ar
    25     5     6   ar
    26     8     9    1
    27     8     7   ar
    28     6     7   ar
    29     6    26    1
    30    26    27    3
