@<TRIPOS>MOLECULE
3mee_T27_A_1.pdb
 28 30 0 0 0
SMALL
GASTEIGER

@<TRIPOS>ATOM
      1  C1        12.3990   13.1570   17.4890 C.ar  561  T27561     -0.0068
      2  N2        10.8860   15.6060   12.7320 N.2   561  T27561     -0.1683
      3  C3        11.3020   13.6840   19.6820 C.ar  561  T27561      0.0001
      4  C4        11.5640   15.0820   19.5120 C.ar  561  T27561     -0.0030
      5  C5        12.2450   15.5480   18.3270 C.ar  561  T27561     -0.0068
      6  C6        12.6720   14.5960   17.2880 C.ar  561  T27561      0.0651
      7  C7        12.8020   12.0820   16.4820 C.3   561  T27561      0.0324
      8  C2        11.7290   12.7320   18.6610 C.ar  561  T27561     -0.0030
      9  C8        12.5070   17.0340   18.1710 C.3   561  T27561      0.0324
     10  N1        13.3170   15.0540   16.1420 N.pl3 561  T27561     -0.1834
     11  C9        12.1530   16.2920   12.8070 C.2   561  T27561      0.1158
     12  C10       13.0070   16.1310   13.9510 C.2   561  T27561      0.0720
     13  C11       12.5630   15.2700   14.9960 C.2   561  T27561      0.2178
     14  N3        11.3110   14.5990   14.8970 N.2   561  T27561     -0.3189
     15  C12       10.4550   14.7380   13.7900 C.1   561  T27561      0.1709
     16  N4         9.2310   14.0560   13.6990 N.pl3 561  T27561     -0.1357
     17  C13        7.2990   11.2590   16.3710 C.ar  561  T27561      0.0685
     18  C14        8.5610   11.8260   16.7450 C.ar  561  T27561      0.0116
     19  C15        9.2140   12.7510   15.8680 C.ar  561  T27561      0.0180
     20  C16        8.6240   13.1630   14.6040 C.ar  561  T27561      0.0826
     21  C17        7.3530   12.5860   14.2400 C.ar  561  T27561      0.0180
     22  C18        6.6830   11.6460   15.1180 C.ar  561  T27561      0.0116
     23  N5         6.1030    9.5480   17.9500 N.1   561  T27561     -0.1908
     24  C19        6.6450   10.3130   17.2540 C.1   561  T27561      0.1004
     25  C20       10.3360   11.8730   21.0880 C.2   561  T27561      0.0780
     26  C21       10.5850   13.1880   20.9250 C.2   561  T27561      0.0109
     27  N6         9.2000   11.0020   23.2500 N.1   561  T27561     -0.1908
     28  C22        9.6860   11.3950   22.2750 C.1   561  T27561      0.1011
@<TRIPOS>BOND
     1     2    11    1
     2     2    15    2
     3    11    12    2
     4    16    15    1
     5    16    20    1
     6    15    14    2
     7    12    13    1
     8    21    20   ar
     9    21    22   ar
    10    20    19   ar
    11    14    13    2
    12    13    10    1
    13    22    17   ar
    14    19    18   ar
    15    10     6    1
    16    17    18   ar
    17    17    24    1
    18     7     1    1
    19    24    23    3
    20     6     1   ar
    21     6     5   ar
    22     1     8   ar
    23     9     5    1
    24     5     4   ar
    25     8     3   ar
    26     4     3   ar
    27     3    26    1
    28    26    25    2
    29    25    28    1
    30    28    27    3
