@<TRIPOS>MOLECULE
3meg_T27_A_1.pdb
 28 30 0 0 0
SMALL
GASTEIGER

@<TRIPOS>ATOM
      1  C1        12.4520   13.4110   17.7150 C.ar  561  T27561     -0.0068
      2  N2        11.1090   15.8000   12.8620 N.2   561  T27561     -0.1683
      3  C3        11.2460   13.8810   19.8540 C.ar  561  T27561      0.0001
      4  C4        11.4660   15.2910   19.7080 C.ar  561  T27561     -0.0030
      5  C5        12.1770   15.7920   18.5600 C.ar  561  T27561     -0.0068
      6  C6        12.6820   14.8620   17.5340 C.ar  561  T27561      0.0651
      7  C7        12.9390   12.3600   16.7170 C.3   561  T27561      0.0324
      8  C2        11.7460   12.9530   18.8530 C.ar  561  T27561     -0.0030
      9  C8        12.3880   17.2870   18.4330 C.3   561  T27561      0.0324
     10  N1        13.3570   15.3500   16.4230 N.pl3 561  T27561     -0.1834
     11  C9        12.3390   16.5190   13.0130 C.2   561  T27561      0.1158
     12  C10       13.1190   16.3940   14.1950 C.2   561  T27561      0.0720
     13  C11       12.6420   15.5300   15.2310 C.2   561  T27561      0.2178
     14  N3        11.4180   14.8170   15.0700 N.2   561  T27561     -0.3189
     15  C12       10.6250   14.9300   13.9020 C.1   561  T27561      0.1709
     16  N4         9.4040   14.2200   13.7330 N.pl3 561  T27561     -0.1357
     17  C13        7.4580   11.4290   16.3710 C.ar  561  T27561      0.0685
     18  C14        8.6820   12.0380   16.7700 C.ar  561  T27561      0.0116
     19  C15        9.3250   12.9630   15.9070 C.ar  561  T27561      0.0180
     20  C16        8.7790   13.3220   14.6080 C.ar  561  T27561      0.0826
     21  C17        7.5330   12.7140   14.2060 C.ar  561  T27561      0.0180
     22  C18        6.8650   11.7630   15.0820 C.ar  561  T27561      0.0116
     23  N5         6.3430    9.7380   17.9950 N.1   561  T27561     -0.1908
     24  C19        6.8340   10.4850   17.2620 C.1   561  T27561      0.1004
     25  C20       10.2540   12.0490   21.2200 C.2   561  T27561      0.0780
     26  C21       10.4890   13.3640   21.0560 C.2   561  T27561      0.0109
     27  N6         9.0350   11.2510   23.3510 N.1   561  T27561     -0.1908
     28  C22        9.5600   11.6050   22.3820 C.1   561  T27561      0.1011
@<TRIPOS>BOND
     1     2    11    1
     2     2    15    2
     3    11    12    2
     4    16    15    1
     5    16    20    1
     6    15    14    2
     7    12    13    1
     8    21    20   ar
     9    21    22   ar
    10    20    19   ar
    11    14    13    2
    12    22    17   ar
    13    13    10    1
    14    19    18   ar
    15    17    18   ar
    16    17    24    1
    17    10     6    1
    18     7     1    1
    19    24    23    3
    20     6     1   ar
    21     6     5   ar
    22     1     8   ar
    23     9     5    1
    24     5     4   ar
    25     8     3   ar
    26     4     3   ar
    27     3    26    1
    28    26    25    2
    29    25    28    1
    30    28    27    3
