@<TRIPOS>MOLECULE
3meh_THP_A_1.pdb
 25 26 0 0 0
SMALL
GASTEIGER

@<TRIPOS>ATOM
      1  P2        17.8870   11.0820    4.8200 P.3   150  THP150      0.5327
      2  O4P       17.8700    9.6050    5.1190 O.2   150  THP150     -0.2224
      3  O5P       19.1520   11.8560    5.3150 O.3   150  THP150     -0.1145
      4  O6P       16.6170   11.8480    5.3550 O.3   150  THP150     -0.1145
      5  P1        21.1230   14.5470    0.9840 P.3   150  THP150      0.5326
      6  O1P       20.4860   15.5050    1.9170 O.3   150  THP150     -0.1145
      7  O2P       21.8400   13.3860    1.8240 O.3   150  THP150     -0.1145
      8  O3P       22.1860   15.2560    0.0540 O.2   150  THP150     -0.2224
      9  O5'       17.8100   11.0990    3.2570 O.3   150  THP150     -0.2675
     10  C5'       17.8520   12.4420    2.6730 C.3   150  THP150      0.1857
     11  C4'       18.7760   12.3150    1.4250 C.3   150  THP150      0.1748
     12  O4'       18.4960   11.2290    0.5260 O.3   150  THP150     -0.3340
     13  C3'       18.7560   13.5650    0.4730 C.3   150  THP150      0.1600
     14  O3'       20.0940   13.8660   -0.0420 O.3   150  THP150     -0.2700
     15  C2'       17.8740   13.1080   -0.7370 C.3   150  THP150      0.0847
     16  C1'       18.1430   11.5840   -0.8020 C.3   150  THP150      0.2089
     17  N1        16.8360   10.9350   -1.1620 N.am  150  THP150     -0.1794
     18  C2        16.5360   10.7280   -2.4700 C.1   150  THP150      0.2844
     19  O2        17.3510   11.1130   -3.3190 O.2   150  THP150     -0.1918
     20  N3        15.3600   10.2420   -2.8710 N.2   150  THP150     -0.2455
     21  C4        14.3880    9.9040   -1.9510 C.1   150  THP150      0.2134
     22  O4        13.3110    9.5300   -2.2970 O.2   150  THP150     -0.2088
     23  C5        14.6730   10.1500   -0.5670 C.2   150  THP150      0.0891
     24  C5M       13.6590    9.7860    0.5070 C.3   150  THP150      0.0462
     25  C6        15.8910   10.6380   -0.1950 C.2   150  THP150      0.0877
@<TRIPOS>BOND
     1    19    18    2
     2    20    18    2
     3    20    21    2
     4    18    17   am
     5    22    21    2
     6    21    23    1
     7    17    16    1
     8    17    25    1
     9    16    15    1
    10    16    12    1
    11    15    13    1
    12    23    25    2
    13    23    24    1
    14    14    13    1
    15    14     5    1
    16     8     5    2
    17    13    11    1
    18    12    11    1
    19     5     7    1
    20     5     6    1
    21    11    10    1
    22    10     9    1
    23     9     1    1
    24     1     2    2
    25     1     3    1
    26     1     4    1
