@<TRIPOS>MOLECULE
3mek_SAM_A_1.pdb
 27 29 0 0 0
SMALL
GASTEIGER

@<TRIPOS>ATOM
      1  N         19.7550   18.4610   23.1950 N.3   510  SAM510     -0.1208
      2  CA        19.8370   18.5310   21.7090 C.3   510  SAM510      0.1952
      3  C         20.7950   17.4750   21.1560 C.2   510  SAM510      0.3819
      4  O         21.2420   16.6070   21.9220 O.co2 510  SAM510     -0.2441
      5  OXT       21.1200   17.4430   19.9540 O.co2 510  SAM510     -0.2441
      6  CB        20.2110   19.9550   21.3200 C.3   510  SAM510      0.0414
      7  CG        18.9610   20.8140   21.0980 C.3   510  SAM510      0.0503
      8  SD        17.9890   20.2890   19.6410 S.3   510  SAM510     -0.1761
      9  CE        17.7680   21.8580   18.7620 C.3   510  SAM510      0.0590
     10  C5'       16.2980   20.1350   20.3200 C.3   510  SAM510      0.0806
     11  C4'       16.0560   18.9340   21.2260 C.3   510  SAM510      0.1622
     12  O4'       16.7850   19.0070   22.4460 O.3   510  SAM510     -0.3153
     13  C3'       14.6040   18.7390   21.6660 C.3   510  SAM510      0.2168
     14  O3'       13.8930   18.0250   20.6790 O.3   510  SAM510     -0.2175
     15  C2'       14.7600   17.9520   22.9590 C.3   510  SAM510      0.2569
     16  O2'       15.0800   16.6160   22.6500 O.3   510  SAM510     -0.2130
     17  C1'       16.0240   18.5590   23.5510 C.3   510  SAM510      0.3185
     18  N9        15.7440   19.7180   24.4220 N.pl3 510  SAM510     -0.1439
     19  C8        15.9000   21.0370   24.0930 C.3   510  SAM510      0.3377
     20  N7        15.5620   21.7790   25.1510 N.2   510  SAM510     -0.2095
     21  C5        15.1740   20.9720   26.1510 C.2   510  SAM510      0.2526
     22  C6        14.7190   21.2310   27.4320 C.2   510  SAM510      0.4393
     23  N6        14.5980   22.4830   27.9110 N.pl3 510  SAM510      0.2180
     24  N1        14.3790   20.1520   28.2240 N.2   510  SAM510      0.0021
     25  C2        14.4980   18.8530   27.7620 C.3   510  SAM510      0.5254
     26  N3        14.9560   18.6110   26.4870 N.2   510  SAM510     -0.0055
     27  C4        15.2840   19.6630   25.7020 C.2   510  SAM510      0.3518
@<TRIPOS>BOND
     1     9     8    1
     2     8    10    1
     3     8     7    1
     4     5     3   ar
     5    10    11    1
     6    14    13    1
     7     7     6    1
     8     3     2    1
     9     3     4   ar
    10    11    13    1
    11    11    12    1
    12     6     2    1
    13    13    15    1
    14     2     1    1
    15    12    17    1
    16    16    15    1
    17    15    17    1
    18    17    18    1
    19    19    18    1
    20    19    20    1
    21    18    27    1
    22    20    21    2
    23    27    21    1
    24    27    26    2
    25    21    22    1
    26    26    25    1
    27    22    23    1
    28    22    24    2
    29    25    24    1
