@<TRIPOS>MOLECULE
3mel_TPP_A_1.pdb
 26 27 0 0 0
SMALL
GASTEIGER

@<TRIPOS>ATOM
      1  N1'       10.2540  -25.5820   80.7540 N.3   902  TPP902     -0.2021
      2  C2'        9.9910  -25.9640   79.3490 C.3   902  TPP902      0.1466
      3  CM2       11.2510  -26.5080   78.6470 C.3   902  TPP902      0.0383
      4  N3'        9.2270  -24.9480   78.6170 N.3   902  TPP902     -0.1848
      5  C4'        8.0270  -24.3930   79.2890 C.3   902  TPP902      0.1678
      6  N4'        7.4180  -23.3540   78.4490 N.3   902  TPP902     -0.1136
      7  C5'        8.4540  -23.8480   80.7030 C.3   902  TPP902      0.0676
      8  C6'        9.0960  -25.0260   81.4530 C.3   902  TPP902      0.0945
      9  C7'        7.2380  -23.2500   81.4670 C.3   902  TPP902      0.0771
     10  N3         6.8090  -21.9360   80.8910 N.3   902  TPP902     -0.2639
     11  C2         7.8660  -21.1000   80.3050 C.3   902  TPP902      0.1313
     12  S1         7.8940  -19.5400   81.2360 S.3   902  TPP902     -0.1221
     13  C5         6.3580  -19.8350   82.1820 C.3   902  TPP902      0.0661
     14  C4         5.7510  -21.1420   81.6370 C.3   902  TPP902      0.0683
     15  CM4        5.0630  -21.9440   82.7380 C.3   902  TPP902      0.0183
     16  C6         5.4000  -18.6550   82.3490 C.3   902  TPP902      0.0447
     17  C7         5.5940  -17.9300   83.6930 C.3   902  TPP902      0.1501
     18  O7         5.4150  -16.5410   83.4730 O.3   902  TPP902     -0.3138
     19  PA         5.1530  -15.4360   84.5900 P.3   902  TPP902      0.2230
     20  O1A        5.7800  -16.2170   85.8100 O.3   902  TPP902     -0.4370
     21  O2A        3.8550  -14.7510   84.6680 O.2   902  TPP902     -0.5169
     22  O3A        6.0090  -14.0960   84.5200 O.3   902  TPP902     -0.2261
     23  PB         6.6850  -13.1310   85.5730 P.3   902  TPP902      0.5373
     24  O1B        7.7220  -12.2630   84.7760 O.2   902  TPP902     -0.2221
     25  O2B        5.6070  -11.9900   85.7830 O.3   902  TPP902     -0.1143
     26  O3B        6.9970  -13.6720   86.9100 O.3   902  TPP902     -0.1143
@<TRIPOS>BOND
     1     6     5    1
     2     4     5    1
     3     4     2    1
     4     3     2    1
     5     5     7    1
     6     2     1    1
     7    11    10    1
     8    11    12    1
     9     7     8    1
    10     7     9    1
    11     1     8    1
    12    10     9    1
    13    10    14    1
    14    12    13    1
    15    14    13    1
    16    14    15    1
    17    13    16    1
    18    16    17    1
    19    18    17    1
    20    18    19    1
    21    22    19    1
    22    22    23    1
    23    19    21    2
    24    19    20    1
    25    24    23    2
    26    23    25    1
    27    23    26    1
