@<TRIPOS>MOLECULE
3meq_NAI_A_1.pdb
 44 48 0 0 0
SMALL
GASTEIGER

@<TRIPOS>ATOM
      1  PA        23.5810   -3.4650  -22.8160 P.3   601  NAI601      0.2189
      2  O1A       24.5630   -3.4110  -23.9690 O.2   601  NAI601     -0.5170
      3  O2A       22.1530   -3.9270  -22.8940 O.3   601  NAI601     -0.4371
      4  O5B       23.5440   -2.0470  -22.0480 O.3   601  NAI601     -0.3112
      5  C5B       24.7470   -1.2940  -21.8530 C.3   601  NAI601      0.1813
      6  C4B       24.3170    0.1490  -21.5840 C.3   601  NAI601      0.1821
      7  O4B       25.4380    0.9090  -21.1080 O.3   601  NAI601     -0.3135
      8  C3B       23.7890    0.8520  -22.8480 C.3   601  NAI601      0.2184
      9  O3B       22.5260    1.4810  -22.5820 O.3   601  NAI601     -0.2174
     10  C2B       24.8450    1.8990  -23.1480 C.3   601  NAI601      0.2570
     11  O2B       24.3290    3.0680  -23.7590 O.3   601  NAI601     -0.2130
     12  C1B       25.3100    2.2020  -21.7320 C.3   601  NAI601      0.3186
     13  N9A       26.5520    3.0000  -21.7270 N.pl3 601  NAI601     -0.1439
     14  C8A       27.6560    2.8340  -22.5120 C.3   601  NAI601      0.3377
     15  N7A       28.5800    3.7910  -22.1950 N.2   601  NAI601     -0.2095
     16  C5A       28.0520    4.5250  -21.1900 C.2   601  NAI601      0.2526
     17  C6A       28.5260    5.6120  -20.4720 C.2   601  NAI601      0.4393
     18  N6A       29.7670    6.1120  -20.7610 N.pl3 601  NAI601      0.2180
     19  N1A       27.7300    6.1510  -19.5030 N.2   601  NAI601      0.0021
     20  C2A       26.5100    5.6460  -19.2410 C.3   601  NAI601      0.5254
     21  N3A       26.0220    4.6030  -19.9180 N.2   601  NAI601     -0.0055
     22  C4A       26.7740    4.0290  -20.8950 C.2   601  NAI601      0.3518
     23  O3        24.4350   -4.4020  -21.7680 O.3   601  NAI601     -0.2703
     24  PN        23.8400   -5.2990  -20.5200 P.3   601  NAI601      0.2189
     25  O1N       22.8140   -4.4520  -19.7980 O.3   601  NAI601     -0.4371
     26  O2N       23.4140   -6.6530  -21.0840 O.2   601  NAI601     -0.5170
     27  O5D       25.1890   -5.5160  -19.6350 O.3   601  NAI601     -0.3112
     28  C5D       25.8870   -4.4050  -19.0490 C.3   601  NAI601      0.1813
     29  C4D       27.1900   -4.8880  -18.3780 C.3   601  NAI601      0.1799
     30  O4D       26.8660   -5.7020  -17.2260 O.3   601  NAI601     -0.3327
     31  C3D       28.0870   -5.7730  -19.2470 C.3   601  NAI601      0.2158
     32  O3D       29.4730   -5.4060  -19.0310 O.3   601  NAI601     -0.2175
     33  C2D       27.7890   -7.2180  -18.8020 C.3   601  NAI601      0.2309
     34  O2D       28.8440   -8.1980  -19.0110 O.3   601  NAI601     -0.2158
     35  C1D       27.5810   -6.9450  -17.3090 C.3   601  NAI601      0.2263
     36  N1N       26.8200   -7.9300  -16.5350 N.pl3 601  NAI601     -0.2787
     37  C2N       27.2060   -8.1190  -15.2610 C.3   601  NAI601      0.1244
     38  C3N       26.5310   -8.9960  -14.4300 C.2   601  NAI601      0.0544
     39  C7N       26.9840   -9.1920  -13.0070 C.2   601  NAI601      0.2818
     40  O7N       26.4440  -10.0850  -12.3590 O.2   601  NAI601     -0.2670
     41  N7N       27.8740   -8.3210  -12.4690 N.am  601  NAI601     -0.0839
     42  C4N       25.4140   -9.6810  -14.9410 C.2   601  NAI601      0.0033
     43  C5N       24.9970   -9.4330  -16.2530 C.2   601  NAI601      0.0157
     44  C6N       25.7230   -8.5420  -17.0400 C.2   601  NAI601      0.0633
@<TRIPOS>BOND
     1     2     1    2
     2    11    10    1
     3    10     8    1
     4    10    12    1
     5     3     1    1
     6     8     9    1
     7     8     6    1
     8     1     4    1
     9     1    23    1
    10    14    15    1
    11    14    13    1
    12    15    16    2
    13     4     5    1
    14     5     6    1
    15    23    24    1
    16    12    13    1
    17    12     7    1
    18    13    22    1
    19     6     7    1
    20    16    22    1
    21    16    17    1
    22    26    24    2
    23    22    21    2
    24    18    17    1
    25    24    25    1
    26    24    27    1
    27    17    19    2
    28    21    20    1
    29    27    28    1
    30    19    20    1
    31    31    32    1
    32    31    33    1
    33    31    29    1
    34    28    29    1
    35    34    33    1
    36    33    35    1
    37    29    30    1
    38    35    30    1
    39    35    36    1
    40    44    36    1
    41    44    43    2
    42    36    37    1
    43    43    42    1
    44    37    38    1
    45    42    38    2
    46    38    39    1
    47    39    41   am
    48    39    40    2
