@<TRIPOS>MOLECULE
3mes_PT3_A_1.pdb
 13 12 0 0 0
SMALL
GASTEIGER

@<TRIPOS>ATOM
      1  O1        14.0030   -0.0950   39.7940 O.co2 428  PT3428     -0.2427
      2  O11       15.9190    1.0330   39.6050 O.co2 428  PT3428     -0.2427
      3  C1        14.8080    0.6440   39.1820 C.2   428  PT3428      0.3978
      4  C2        14.3980    1.1110   37.7830 C.3   428  PT3428      0.2929
      5  O2        15.5200    1.6970   37.1190 O.3   428  PT3428     -0.2075
      6  C3        13.2860    2.1520   37.8890 C.3   428  PT3428      0.2702
      7  O3        13.7350    3.2380   38.7070 O.3   428  PT3428     -0.2098
      8  C4        12.9390    2.6530   36.4790 C.2   428  PT3428      0.2751
      9  O41       12.4300    1.9000   35.6500 O.2   428  PT3428     -0.2705
     10  N4        13.2380    3.9260   36.2300 N.am  428  PT3428     -0.2032
     11  C41       13.8520    4.8080   37.2320 C.3   428  PT3428      0.1152
     12  C42       14.2440    6.1350   36.5700 C.3   428  PT3428      0.0234
     13  C43       13.0370    7.0740   36.4580 C.3   428  PT3428      0.0019
@<TRIPOS>BOND
     1     9     8    2
     2    10     8   am
     3    10    11    1
     4    13    12    1
     5     8     6    1
     6    12    11    1
     7     5     4    1
     8     4     6    1
     9     4     3    1
    10     6     7    1
    11     3     2   ar
    12     3     1   ar
