@<TRIPOS>MOLECULE
3mes_DME_A_1.pdb
 18 17 0 0 0
SMALL
GASTEIGER

@<TRIPOS>ATOM
      1  N1         8.7760    2.3690   35.7940 N.4   427  DME427      0.3857
      2  C2         8.3130    3.3360   36.8030 C.3   427  DME427     -0.0733
      3  C3         9.5050    3.8660   37.6040 C.3   427  DME427     -0.0223
      4  C4         9.0540    4.3870   38.9740 C.3   427  DME427     -0.0021
      5  C5         9.6400    5.7720   39.2690 C.3   427  DME427     -0.0001
      6  C6        11.0800    5.6640   39.7820 C.3   427  DME427     -0.0000
      7  C7        11.4020    6.7810   40.7780 C.3   427  DME427     -0.0000
      8  C8        12.0490    7.9800   40.0770 C.3   427  DME427     -0.0001
      9  C9        13.5280    8.1210   40.4580 C.3   427  DME427     -0.0021
     10  C10       14.3100    8.8860   39.3830 C.3   427  DME427     -0.0223
     11  C11       13.5660   10.1480   38.9380 C.3   427  DME427     -0.0733
     12  N12       14.4540   10.9760   38.1020 N.4   427  DME427      0.3857
     13  C13        9.5480    1.3020   36.4510 C.3   427  DME427     -0.0960
     14  C14        7.6080    1.7840   35.1130 C.3   427  DME427     -0.0960
     15  C15        9.6270    3.0560   34.8090 C.3   427  DME427     -0.0960
     16  C16       14.0710   10.8470   36.6880 C.3   427  DME427     -0.0960
     17  C17       14.3260   12.3840   38.5100 C.3   427  DME427     -0.0960
     18  C18       15.8470   10.5330   38.2640 C.3   427  DME427     -0.0960
@<TRIPOS>BOND
     1    15     1    1
     2    14     1    1
     3     1    13    1
     4     1     2    1
     5    16    12    1
     6     2     3    1
     7     3     4    1
     8    12    18    1
     9    12    17    1
    10    12    11    1
    11    11    10    1
    12     4     5    1
    13     5     6    1
    14    10     9    1
    15     6     7    1
    16     8     9    1
    17     8     7    1
