@<TRIPOS>MOLECULE
3mes_ADP_A_1.pdb
 27 29 0 0 0
SMALL
GASTEIGER

@<TRIPOS>ATOM
      1  PB        19.5770    1.1990   40.6950 P.3   425  ADP425      0.5373
      2  O1B       18.1100    1.3190   40.3520 O.3   425  ADP425     -0.1143
      3  O2B       19.9190    1.6740   42.0900 O.3   425  ADP425     -0.1143
      4  O3B       20.2030   -0.1200   40.3070 O.2   425  ADP425     -0.2221
      5  PA        20.2040    2.1640   38.1410 P.3   425  ADP425      0.2231
      6  O1A       18.7390    2.2190   37.7760 O.3   425  ADP425     -0.4370
      7  O2A       21.0630    1.0060   37.6970 O.2   425  ADP425     -0.5169
      8  O3A       20.3090    2.2730   39.7450 O.3   425  ADP425     -0.2261
      9  O5'       20.9000    3.5190   37.6280 O.3   425  ADP425     -0.3111
     10  C5'       20.4280    4.7770   38.1000 C.3   425  ADP425      0.1813
     11  C4'       20.8060    5.8830   37.1240 C.3   425  ADP425      0.1821
     12  O4'       22.2250    6.0650   37.0470 O.3   425  ADP425     -0.3135
     13  C3'       20.3440    5.5960   35.7070 C.3   425  ADP425      0.2184
     14  O3'       19.0410    6.1410   35.4930 O.3   425  ADP425     -0.2174
     15  C2'       21.3600    6.3250   34.8580 C.3   425  ADP425      0.2570
     16  O2'       20.9110    7.6610   34.6390 O.3   425  ADP425     -0.2130
     17  C1'       22.6190    6.3680   35.7020 C.3   425  ADP425      0.3186
     18  N9        23.5650    5.3340   35.2110 N.pl3 425  ADP425     -0.1439
     19  C8        23.5890    4.0460   35.6040 C.3   425  ADP425      0.3377
     20  N7        24.5710    3.3590   34.9680 N.2   425  ADP425     -0.2095
     21  C5        25.1960    4.2160   34.1400 C.2   425  ADP425      0.2526
     22  C6        26.3230    4.1430   33.1790 C.2   425  ADP425      0.4393
     23  N6        26.9940    2.9830   32.9700 N.pl3 425  ADP425      0.2180
     24  N1        26.6570    5.2740   32.5160 N.2   425  ADP425      0.0021
     25  C2        25.9990    6.4310   32.7150 C.3   425  ADP425      0.5254
     26  N3        24.9720    6.5670   33.5710 N.2   425  ADP425     -0.0055
     27  C4        24.5280    5.5160   34.3020 C.2   425  ADP425      0.3518
@<TRIPOS>BOND
     1    24    25    1
     2    24    22    2
     3    25    26    1
     4    23    22    1
     5    22    21    1
     6    26    27    2
     7    21    27    1
     8    21    20    2
     9    27    18    1
    10    16    15    1
    11    15    17    1
    12    15    13    1
    13    20    19    1
    14    18    19    1
    15    18    17    1
    16    14    13    1
    17    17    12    1
    18    13    11    1
    19    12    11    1
    20    11    10    1
    21     9    10    1
    22     9     5    1
    23     7     5    2
    24     6     5    1
    25     5     8    1
    26     8     1    1
    27     4     1    2
    28     2     1    1
    29     1     3    1
