@<TRIPOS>MOLECULE
3met_III_D_1.pdb
 28 27 0 0 0
SMALL
GASTEIGER

@<TRIPOS>ATOM
      1  N        -28.8710    9.2310  -48.8780 N.3     1  ALA1       -0.1231
      2  CA       -28.6380   10.1920  -47.7640 C.3     1  ALA1        0.1694
      3  C        -29.0870   11.5880  -48.1740 C.2     1  ALA1        0.2592
      4  O        -29.0080   11.9350  -49.3420 O.2     1  ALA1       -0.2718
      5  CB       -27.1680   10.1980  -47.3380 C.3     1  ALA1        0.0304
      6  N        -29.6280   12.3390  -47.2200 N.am    2  ARG2       -0.1966
      7  CA       -29.9800   13.7450  -47.4330 C.3     2  ARG2        0.1728
      8  C        -28.7840   14.5280  -46.9340 C.2     2  ARG2        0.2617
      9  O        -28.4600   14.4720  -45.7440 O.2     2  ARG2       -0.2715
     10  CB       -31.2750   14.1180  -46.7020 C.3     2  ARG2        0.0334
     11  N        -28.0800   15.1820  -47.8650 N.am    3  THR3       -0.1937
     12  CA       -26.8940   15.9550  -47.5650 C.3     3  THR3        0.2028
     13  C        -27.2630   17.3990  -47.1940 C.2     3  THR3        0.2642
     14  O        -28.3750   17.8520  -47.4390 O.2     3  THR3       -0.2714
     15  CB       -25.9360   16.0120  -48.7890 C.3     3  THR3        0.1808
     16  OG1      -26.5420   16.7910  -49.8330 O.3     3  THR3       -0.2208
     17  CG2      -25.6190   14.5980  -49.2980 C.3     3  THR3        0.0379
     18  N        -26.3220   18.0870  -46.5750 N.am    4  LYS4       -0.1977
     19  CA       -26.3650   19.5350  -46.4310 C.3     4  LYS4        0.1596
     20  CB       -25.2400   19.9750  -45.4940 C.3     4  LYS4        0.0297
     21  CG       -25.2170   21.4830  -45.2920 C.3     4  LYS4        0.0037
     22  CD       -23.8220   21.9740  -44.9210 C.3     4  LYS4        0.0174
     23  CE       -23.1830   21.1560  -43.8050 C.3     4  LYS4        0.0722
     24  NZ       -22.2210   21.9440  -43.0150 N.3     4  LYS4       -0.2703
     25  CH1      -21.5280   22.9640  -43.8030 C.3     4  LYS4        0.0897
     26  CH2      -21.2560   21.0440  -42.3820 C.3     4  LYS4        0.0897
     27  C        -26.2100   20.1790  -47.7850 C.2     4  LYS4        0.2287
     28  O        -27.0440   21.0110  -48.1520 O.2     4  LYS4       -0.2864
@<TRIPOS>BOND
     1    16    15    1
     2     4     3    2
     3    17    15    1
     4     1     2    1
     5    15    12    1
     6     3     2    1
     7     3     6   am
     8    28    27    2
     9    11    12    1
    10    11     8   am
    11    27    19    1
    12     2     5    1
    13    12    13    1
    14    14    13    2
    15     7     6    1
    16     7     8    1
    17     7    10    1
    18    13    18   am
    19     8     9    2
    20    18    19    1
    21    19    20    1
    22    20    21    1
    23    21    22    1
    24    22    23    1
    25    23    24    1
    26    25    24    1
    27    24    26    1
