@<TRIPOS>MOLECULE
3meu_III_C_1.pdb
 42 41 0 0 0
SMALL
GASTEIGER

@<TRIPOS>ATOM
      1  N          4.3440  -10.6280    3.7870 N.3     1  ALA1       -0.1231
      2  CA         4.0100  -11.6560    4.7940 C.3     1  ALA1        0.1694
      3  C          4.5680  -12.9810    4.2920 C.2     1  ALA1        0.2592
      4  O          4.7890  -13.2140    3.1020 O.2     1  ALA1       -0.2718
      5  CB         2.4860  -11.7480    4.9880 C.3     1  ALA1        0.0304
      6  N          4.9340  -13.9160    5.3480 N.am    2  ARG2       -0.1966
      7  CA         5.2240  -15.3000    5.0420 C.3     2  ARG2        0.1729
      8  CB         6.5460  -15.7220    5.6800 C.3     2  ARG2        0.0348
      9  CG         6.8700  -17.1970    5.3740 C.3     2  ARG2        0.0492
     10  CD         8.2630  -17.5920    5.9090 C.3     2  ARG2        0.2203
     11  NE         8.4290  -19.0630    5.9540 N.pl3   2  ARG2       -0.0923
     12  CZ         8.7960  -19.7800    4.8740 C.cat   2  ARG2        0.4545
     13  NH1        9.0770  -19.1740    3.7020 N.pl3   2  ARG2       -0.0883
     14  CQ1        9.4970  -19.9460    2.5110 C.3     2  ARG2        0.2668
     15  NH2        8.9350  -21.1020    4.9770 N.pl3   2  ARG2       -0.0883
     16  CQ2        8.6630  -21.8400    6.2230 C.3     2  ARG2        0.2668
     17  C          4.0410  -16.0990    5.5440 C.2     2  ARG2        0.2617
     18  O          3.6680  -16.1010    6.7070 O.2     2  ARG2       -0.2715
     19  N          3.2380  -16.8710    4.5740 N.am    3  THR3       -0.1937
     20  CA         2.0560  -17.6840    4.9390 C.3     3  THR3        0.2028
     21  C          2.5250  -19.1090    5.2200 C.2     3  THR3        0.2642
     22  O          3.6650  -19.4880    4.8930 O.2     3  THR3       -0.2714
     23  CB         1.0240  -17.6670    3.8070 C.3     3  THR3        0.1808
     24  OG1        1.6190  -18.2950    2.6640 O.3     3  THR3       -0.2208
     25  CG2        0.6510  -16.2250    3.4450 C.3     3  THR3        0.0379
     26  N          1.6410  -19.8790    5.8450 N.am    4  LYS4       -0.1963
     27  CA         1.8210  -21.3220    5.9490 C.3     4  LYS4        0.1728
     28  CB         0.7500  -21.9260    6.8730 C.3     4  LYS4        0.0310
     29  CG         0.9480  -23.4070    7.1760 C.3     4  LYS4        0.0001
     30  CD         0.0320  -23.8250    8.3270 C.3     4  LYS4       -0.0222
     31  CE        -1.4150  -23.7810    7.8620 C.3     4  LYS4       -0.0733
     32  NZ        -2.3770  -24.3490    8.8090 N.4     4  LYS4        0.3857
     33  C          1.8100  -21.9420    4.5780 C.2     4  LYS4        0.2616
     34  O          0.9780  -21.5900    3.7340 O.2     4  LYS4       -0.2715
     35  CM1       -2.1820  -25.7930    8.9400 C.3     4  LYS4       -0.0960
     36  CM2       -3.7160  -24.0710    8.2800 C.3     4  LYS4       -0.0960
     37  CM3       -2.3130  -23.6950   10.1330 C.3     4  LYS4       -0.0960
     38  N          2.7310  -22.8810    4.3620 N.am    5  GLN5       -0.1977
     39  CA         2.8950  -23.5420    3.0710 C.3     5  GLN5        0.1597
     40  C          2.0110  -24.7810    2.9940 C.2     5  GLN5        0.2287
     41  O          0.9330  -24.8250    3.5920 O.2     5  GLN5       -0.2864
     42  CB         4.3630  -23.9250    2.8490 C.3     5  GLN5        0.0319
@<TRIPOS>BOND
     1    14    13    1
     2    24    23    1
     3    42    39    1
     4    40    39    1
     5    40    41    2
     6    39    38    1
     7     4     3    2
     8    25    23    1
     9    13    12    1
    10    34    33    2
    11     1     2    1
    12    23    20    1
    13     3     2    1
    14     3     6   am
    15    38    33   am
    16    19    20    1
    17    19    17   am
    18    33    27    1
    19     2     5    1
    20    12    15    2
    21    12    11    1
    22    22    21    2
    23    20    21    1
    24    15    16    1
    25     7     6    1
    26     7    17    1
    27     7     8    1
    28    21    26   am
    29     9     8    1
    30     9    10    1
    31    17    18    2
    32    26    27    1
    33    10    11    1
    34    27    28    1
    35    28    29    1
    36    29    30    1
    37    31    30    1
    38    31    32    1
    39    36    32    1
    40    32    35    1
    41    32    37    1
