@<TRIPOS>MOLECULE
3mev_III_C_1.pdb
 29 28 0 0 0
SMALL
GASTEIGER

@<TRIPOS>ATOM
      1  N          3.6090   10.7090   -3.5500 N.3     1  ALA1       -0.1231
      2  CA         3.4590   11.6210   -4.7180 C.3     1  ALA1        0.1694
      3  C          3.9890   12.9780   -4.3070 C.2     1  ALA1        0.2592
      4  O          4.1020   13.2670   -3.1250 O.2     1  ALA1       -0.2718
      5  CB         1.9960   11.7300   -5.1480 C.3     1  ALA1        0.0304
      6  N          4.3410   13.7940   -5.2850 N.am    2  ALA2       -0.1966
      7  CA         4.7370   15.1630   -4.9990 C.3     2  ALA2        0.1728
      8  C          3.5410   16.0140   -5.3870 C.2     2  ALA2        0.2617
      9  O          3.1010   15.9510   -6.5170 O.2     2  ALA2       -0.2715
     10  CB         5.9560   15.5290   -5.8090 C.3     2  ALA2        0.0334
     11  N          2.9900   16.7620   -4.4330 N.am    3  THR3       -0.1937
     12  CA         1.8350   17.6230   -4.6940 C.3     3  THR3        0.2028
     13  C          2.2320   19.0840   -4.8860 C.2     3  THR3        0.2642
     14  O          3.3740   19.4930   -4.5910 O.2     3  THR3       -0.2714
     15  CB         0.7980   17.5870   -3.5560 C.3     3  THR3        0.1808
     16  OG1        1.3370   18.2530   -2.4030 O.3     3  THR3       -0.2208
     17  CG2        0.3880   16.1460   -3.2080 C.3     3  THR3        0.0379
     18  N          1.2730   19.8650   -5.3790 N.am    4  LYS4       -0.1977
     19  CA         1.4160   21.3090   -5.4690 C.3     4  LYS4        0.1596
     20  CB         0.2350   21.8960   -6.2450 C.3     4  LYS4        0.0296
     21  CG         0.6240   23.2240   -6.8910 C.3     4  LYS4        0.0001
     22  CD        -0.3420   23.6000   -8.0160 C.3     4  LYS4       -0.0222
     23  CE        -1.7630   23.7640   -7.4820 C.3     4  LYS4       -0.0733
     24  NZ        -2.6530   24.4670   -8.4110 N.4     4  LYS4        0.3857
     25  C          1.5510   21.9200   -4.0970 C.2     4  LYS4        0.2287
     26  O          2.5320   22.6360   -3.8370 O.2     4  LYS4       -0.2864
     27  CM1       -2.2610   25.8730   -8.5470 C.3     4  LYS4       -0.0960
     28  CM2       -3.9950   24.3800   -7.8170 C.3     4  LYS4       -0.0960
     29  CM3       -2.6270   23.8580   -9.7570 C.3     4  LYS4       -0.0960
@<TRIPOS>BOND
     1    29    24    1
     2    27    24    1
     3    24    28    1
     4    24    23    1
     5    22    23    1
     6    22    21    1
     7    21    20    1
     8     9     8    2
     9    20    19    1
    10    10     7    1
    11    19    18    1
    12    19    25    1
    13     8     7    1
    14     8    11   am
    15    18    13   am
    16     6     7    1
    17     6     3   am
    18     5     2    1
    19    13    12    1
    20    13    14    2
    21     2     3    1
    22     2     1    1
    23    12    11    1
    24    12    15    1
    25     3     4    2
    26    25    26    2
    27    15    17    1
    28    15    16    1
