@<TRIPOS>MOLECULE
3mey_ATP_A_1.pdb
 31 33 0 0 0
SMALL
GASTEIGER

@<TRIPOS>ATOM
      1  PG        89.9970   34.8850    0.8200 P.3   1010  ATP1010     0.5373
      2  O1G       90.7370   36.1840    0.5100 O.3   1010  ATP1010    -0.1143
      3  O2G       88.5380   35.0520    0.3840 O.3   1010  ATP1010    -0.1143
      4  O3G       90.5840   33.6950   -0.0150 O.2   1010  ATP1010    -0.2221
      5  PB        89.6090   33.1100    3.0590 P.3   1010  ATP1010     0.2277
      6  O1B       89.9390   32.0420    1.9440 O.2   1010  ATP1010    -0.5168
      7  O2B       88.0500   32.9820    3.3220 O.3   1010  ATP1010    -0.4368
      8  O3B       90.0170   34.5380    2.4060 O.3   1010  ATP1010    -0.2258
      9  PA        90.1470   32.3200    5.9510 P.3   1010  ATP1010     0.2189
     10  O1A       89.9050   30.8460    5.7990 O.2   1010  ATP1010    -0.5170
     11  O2A       89.0390   32.9580    6.8520 O.3   1010  ATP1010    -0.4371
     12  O3A       90.3640   32.9670    4.4810 O.3   1010  ATP1010    -0.2700
     13  O5'       91.6250   32.5540    6.6210 O.3   1010  ATP1010    -0.3112
     14  C5'       91.8410   33.4290    7.7080 C.3   1010  ATP1010     0.1813
     15  C4'       92.6450   34.6170    7.2630 C.3   1010  ATP1010     0.1821
     16  O4'       94.0070   34.2920    6.7610 O.3   1010  ATP1010    -0.3135
     17  C3'       91.9640   35.5070    6.2360 C.3   1010  ATP1010     0.2184
     18  O3'       91.0120   36.3500    6.8090 O.3   1010  ATP1010    -0.2174
     19  C2'       93.1780   36.3100    5.7300 C.3   1010  ATP1010     0.2570
     20  O2'       93.3570   37.3540    6.7000 O.3   1010  ATP1010    -0.2130
     21  C1'       94.3480   35.2640    5.7210 C.3   1010  ATP1010     0.3186
     22  N9        94.5020   34.6120    4.4260 N.pl3 1010  ATP1010    -0.1439
     23  C8        93.6350   33.6840    3.8940 C.3   1010  ATP1010     0.3377
     24  N7        94.0100   33.2580    2.7020 N.2   1010  ATP1010    -0.2095
     25  C5        95.1970   33.9770    2.4550 C.2   1010  ATP1010     0.2526
     26  C6        96.1030   33.9840    1.3380 C.2   1010  ATP1010     0.4393
     27  N6        95.9160   33.1430    0.2430 N.pl3 1010  ATP1010     0.2180
     28  N1        97.1780   34.8630    1.3620 N.2   1010  ATP1010     0.0021
     29  C2        97.4060   35.6570    2.4630 C.3   1010  ATP1010     0.5254
     30  N3        96.6360   35.6690    3.5880 N.2   1010  ATP1010    -0.0055
     31  C4        95.5250   34.8210    3.5100 C.2   1010  ATP1010     0.3518
@<TRIPOS>BOND
     1     4     1    2
     2    27    26    1
     3     3     1    1
     4     2     1    1
     5     1     8    1
     6    26    28    2
     7    26    25    1
     8    28    29    1
     9     6     5    2
    10     8     5    1
    11    25    24    2
    12    25    31    1
    13    29    30    1
    14    24    23    1
    15     5     7    1
    16     5    12    1
    17    31    30    2
    18    31    22    1
    19    23    22    1
    20    22    21    1
    21    12     9    1
    22    21    19    1
    23    21    16    1
    24    19    17    1
    25    19    20    1
    26    10     9    2
    27     9    13    1
    28     9    11    1
    29    17    18    1
    30    17    15    1
    31    13    14    1
    32    16    15    1
    33    15    14    1
