@<TRIPOS>MOLECULE
3mf1_G5A_A_1.pdb
 27 29 0 0 0
SMALL
GASTEIGER

@<TRIPOS>ATOM
      1  C         91.0550   30.6850    8.9050 C.2   1001  G5A1001     0.2818
      2  N         91.0110   29.4220   10.8700 N.3   1001  G5A1001    -0.1209
      3  O         91.8500   29.9030    8.3640 O.2   1001  G5A1001    -0.2700
      4  S         90.5940   32.2150    6.9300 S.3   1001  G5A1001     0.0852
      5  N1        97.8580   34.7810    1.5330 N.2   1001  G5A1001     0.0021
      6  C2        98.0910   35.5760    2.5810 C.3   1001  G5A1001     0.5254
      7  N3        97.2130   35.6120    3.6470 N.2   1001  G5A1001    -0.0055
      8  C4        96.1090   34.7760    3.6620 C.2   1001  G5A1001     0.3518
      9  C5        95.8600   33.8740    2.5250 C.2   1001  G5A1001     0.2526
     10  C6        96.7990   33.9030    1.4210 C.2   1001  G5A1001     0.4393
     11  N6        96.6280   33.0870    0.3000 N.pl3 1001  G5A1001     0.2180
     12  N7        94.7840   33.2030    2.7690 N.2   1001  G5A1001    -0.2095
     13  C8        94.3200   33.5900    4.0020 C.3   1001  G5A1001     0.3377
     14  N9        95.1330   34.5370    4.5160 N.pl3 1001  G5A1001    -0.1439
     15  CA        90.5720   30.6690   10.3010 C.3   1001  G5A1001     0.1973
     16  C1*       95.0050   35.2790    5.8120 C.3   1001  G5A1001     0.3186
     17  O1S       89.8200   33.4280    6.6940 O.3   1001  G5A1001    -0.0508
     18  C2*       93.8600   36.3040    5.6020 C.3   1001  G5A1001     0.2570
     19  O2*       94.2400   37.5510    6.2320 O.3   1001  G5A1001    -0.2130
     20  O2S       90.6040   31.3930    5.7490 O.3   1001  G5A1001    -0.0508
     21  C3*       92.6130   35.6090    6.2060 C.3   1001  G5A1001     0.2185
     22  O3*       91.7340   36.5440    6.7770 O.3   1001  G5A1001    -0.2174
     23  N3S       90.4650   31.7150    8.3550 N.am  1001  G5A1001    -0.0576
     24  C4*       93.2940   34.9430    7.4300 C.3   1001  G5A1001     0.1842
     25  O4*       94.5520   34.4370    6.8840 O.3   1001  G5A1001    -0.3135
     26  C5*       92.5460   33.7200    8.0000 C.3   1001  G5A1001     0.2064
     27  O5*       92.0930   32.7570    6.9660 O.3   1001  G5A1001    -0.2230
@<TRIPOS>BOND
     1    11    10    1
     2    10     5    2
     3    10     9    1
     4     5     6    1
     5     9    12    2
     6     9     8    1
     7     6     7    1
     8    12    13    1
     9     7     8    2
    10     8    14    1
    11    13    14    1
    12    14    16    1
    13    18    16    1
    14    18    21    1
    15    18    19    1
    16    20     4    1
    17    16    25    1
    18    21    22    1
    19    21    24    1
    20    17     4    1
    21    25    24    1
    22     4    27    1
    23     4    23    1
    24    27    26    1
    25    24    26    1
    26    23     1   am
    27     3     1    2
    28     1    15    1
    29    15     2    1
