@<TRIPOS>MOLECULE
3mf2_AMP_A_1.pdb
 23 25 0 0 0
SMALL
GASTEIGER

@<TRIPOS>ATOM
      1  P         90.5870   31.9290    6.4830 P.3   1010  AMP1010     0.5327
      2  O1P       90.6960   30.5540    7.0480 O.3   1010  AMP1010    -0.1145
      3  O2P       90.3820   31.9150    4.9600 O.2   1010  AMP1010    -0.2224
      4  O3P       89.4990   32.7530    7.1300 O.3   1010  AMP1010    -0.1145
      5  O5'       92.0800   32.6060    6.7420 O.3   1010  AMP1010    -0.2675
      6  C5'       92.3250   33.3510    7.9520 C.3   1010  AMP1010     0.1860
      7  C4'       93.2070   34.5410    7.5590 C.3   1010  AMP1010     0.1823
      8  O4'       94.4690   34.0500    7.0010 O.3   1010  AMP1010    -0.3135
      9  C3'       92.5470   35.3140    6.4370 C.3   1010  AMP1010     0.2184
     10  O3'       91.6430   36.2240    7.0220 O.3   1010  AMP1010    -0.2174
     11  C2'       93.7680   35.9630    5.7650 C.3   1010  AMP1010     0.2570
     12  O2'       94.0280   37.1620    6.5420 O.3   1010  AMP1010    -0.2130
     13  C1'       94.8890   34.8970    5.9440 C.3   1010  AMP1010     0.3186
     14  N9        95.0160   34.1900    4.6960 N.pl3 1010  AMP1010    -0.1439
     15  C8        94.1800   33.2360    4.1140 C.3   1010  AMP1010     0.3377
     16  N7        94.6010   32.8670    2.9040 N.2   1010  AMP1010    -0.2095
     17  C5        95.7270   33.6030    2.6730 C.2   1010  AMP1010     0.2526
     18  C6        96.6060   33.6710    1.5880 C.2   1010  AMP1010     0.4393
     19  N6        96.4230   32.8580    0.4320 N.pl3 1010  AMP1010     0.2180
     20  N1        97.6600   34.6080    1.6650 N.2   1010  AMP1010     0.0021
     21  C2        97.8380   35.3400    2.7780 C.3   1010  AMP1010     0.5254
     22  N3        97.0500   35.3200    3.9340 N.2   1010  AMP1010    -0.0055
     23  C4        96.0090   34.4500    3.7850 C.2   1010  AMP1010     0.3518
@<TRIPOS>BOND
     1    19    18    1
     2    18    20    2
     3    18    17    1
     4    20    21    1
     5    17    16    2
     6    17    23    1
     7    21    22    1
     8    16    15    1
     9    23    22    2
    10    23    14    1
    11    15    14    1
    12    14    13    1
    13     3     1    2
    14    11    13    1
    15    11     9    1
    16    11    12    1
    17    13     8    1
    18     9    10    1
    19     9     7    1
    20     1     5    1
    21     1     2    1
    22     1     4    1
    23     5     6    1
    24     8     7    1
    25     7     6    1
