@<TRIPOS>MOLECULE
3mf5_HJZ_A_1.pdb
 27 30 0 0 0
SMALL
GASTEIGER

@<TRIPOS>ATOM
      1  S1        77.4740   31.8080   -8.2860 S.2   571  HJZ571     -0.0804
      2  C2        75.9660   32.0190   -9.0730 C.ar  571  HJZ571      0.0297
      3  C3        76.1540   32.6770  -10.2470 C.ar  571  HJZ571      0.0072
      4  C4        77.4250   32.9780  -10.4910 C.ar  571  HJZ571      0.0126
      5  C5        78.3290   32.6010   -9.5580 C.ar  571  HJZ571      0.1092
      6  C6        74.8030   31.5710   -8.3730 C.ar  571  HJZ571      0.0060
      7  C7        79.7530   32.7670   -9.4860 C.2   571  HJZ571      0.3936
      8  C8        77.7580   33.6670  -11.7390 C.ar  571  HJZ571     -0.0033
      9  O9        80.3440   32.2960   -8.4880 O.co2 571  HJZ571     -0.2400
     10  O10       80.5080   33.3050  -10.2320 O.co2 571  HJZ571     -0.2400
     11  C11       77.7570   35.0380  -11.9170 C.ar  571  HJZ571     -0.0225
     12  C12       78.4340   34.7500  -14.3400 C.ar  571  HJZ571     -0.0003
     13  C13       78.4260   33.3160  -14.1450 C.ar  571  HJZ571     -0.0000
     14  C14       78.0830   35.6180  -13.2300 C.ar  571  HJZ571     -0.0043
     15  C15       78.0900   32.7610  -12.8580 C.ar  571  HJZ571     -0.0003
     16  C16       73.6180   32.3910   -8.5960 C.ar  571  HJZ571      0.0005
     17  C17       72.4180   30.8830   -6.9710 C.ar  571  HJZ571      0.0000
     18  C18       73.5770   30.0840   -6.7220 C.ar  571  HJZ571      0.0000
     19  C19       72.4360   32.0250   -7.8850 C.ar  571  HJZ571      0.0000
     20  C20       74.7710   30.4180   -7.4260 C.ar  571  HJZ571      0.0005
     21  C21       77.3840   35.9280  -10.7470 C.3   571  HJZ571      0.0223
     22  C22       78.3000   37.1080  -10.4950 C.3   571  HJZ571      0.0044
     23  C23       77.6860   37.9500   -9.3230 C.3   571  HJZ571      0.0003
     24  C24       76.2550   38.4040   -9.6340 C.3   571  HJZ571      0.0000
     25  C25       75.2460   37.2660  -10.0810 C.3   571  HJZ571      0.0003
     26  C26       75.8870   36.3030  -11.1350 C.3   571  HJZ571      0.0044
     27  C27       75.6650   39.3010   -8.5220 C.3   571  HJZ571      0.0000
@<TRIPOS>BOND
     1    12    13   ar
     2    12    14   ar
     3    13    15   ar
     4    14    11   ar
     5    15     8   ar
     6    11     8   ar
     7    11    21    1
     8     8     4    1
     9    26    21    1
    10    26    25    1
    11    21    22    1
    12    22    23    1
    13     4     3   ar
    14     4     5   ar
    15     3     2   ar
    16    10     7   ar
    17    25    24    1
    18    24    23    1
    19    24    27    1
    20     5     7    1
    21     5     1   ar
    22     7     9   ar
    23     2     6    1
    24     2     1   ar
    25    16     6   ar
    26    16    19   ar
    27     6    20   ar
    28    19    17   ar
    29    20    18   ar
    30    17    18   ar
