@<TRIPOS>MOLECULE
3mff_ARG_D_1.pdb
 11 10 0 0 0
SMALL
GASTEIGER

@<TRIPOS>ATOM
      1  N          9.9120  -43.1910  136.4390 N.3   246  ARG246     -0.1245
      2  CA         9.9890  -41.8550  137.1230 C.3   246  ARG246      0.1563
      3  C          8.8510  -40.9190  136.7220 C.2   246  ARG246      0.2260
      4  O          8.0220  -41.2470  135.8790 O.2   246  ARG246     -0.2867
      5  CB        11.3440  -41.1810  136.8710 C.3   246  ARG246      0.0307
      6  CG        11.6420  -40.8640  135.4120 C.3   246  ARG246      0.0489
      7  CD        12.6350  -39.7300  135.3190 C.3   246  ARG246      0.2205
      8  NE        13.6850  -40.0190  134.3550 N.pl3 246  ARG246     -0.0865
      9  CZ        14.9790  -39.7660  134.5480 C.cat 246  ARG246      0.5346
     10  NH1       15.4130  -39.2010  135.6820 N.pl3 246  ARG246      0.1354
     11  NH2       15.8400  -40.0960  133.5930 N.pl3 246  ARG246      0.1354
@<TRIPOS>BOND
     1    11     9    1
     2     8     9    2
     3     8     7    1
     4     9    10    1
     5     7     6    1
     6     6     5    1
     7     4     3    2
     8     1     2    1
     9     3     2    1
    10     5     2    1
