@<TRIPOS>MOLECULE
3mfh_DTP_A_1.pdb
 30 32 0 0 0
SMALL
GASTEIGER

@<TRIPOS>ATOM
      1  PG       -20.0670   40.2630   -2.7390 P.3   514  DTP514      0.5373
      2  O1G      -20.8650   40.1230   -1.4810 O.3   514  DTP514     -0.1143
      3  O2G      -20.6950   40.9540   -3.9240 O.2   514  DTP514     -0.2221
      4  O3G      -18.6720   40.7850   -2.4950 O.3   514  DTP514     -0.1143
      5  PB       -20.2210   37.3690   -2.6730 P.3   514  DTP514      0.2277
      6  O1B      -19.9190   37.4120   -1.1970 O.3   514  DTP514     -0.4368
      7  O2B      -19.4520   36.3440   -3.5150 O.2   514  DTP514     -0.5168
      8  O3B      -19.8990   38.7810   -3.3620 O.3   514  DTP514     -0.2258
      9  PA       -23.0270   37.0590   -1.9930 P.3   514  DTP514      0.2189
     10  O1A      -22.7570   37.9380   -0.7990 O.3   514  DTP514     -0.4371
     11  O2A      -24.2560   37.2840   -2.8000 O.2   514  DTP514     -0.5170
     12  O3A      -21.7810   37.1650   -3.0290 O.3   514  DTP514     -0.2700
     13  O5'      -23.0580   35.5220   -1.5230 O.3   514  DTP514     -0.3112
     14  C5'      -22.1390   34.9670   -0.5930 C.3   514  DTP514      0.1813
     15  C4'      -21.6130   33.6280   -1.0870 C.3   514  DTP514      0.1795
     16  O4'      -22.7100   32.7340   -1.2560 O.3   514  DTP514     -0.3155
     17  C3'      -20.8890   33.6840   -2.4380 C.3   514  DTP514      0.1883
     18  O3'      -19.4830   33.9350   -2.2940 O.3   514  DTP514     -0.2202
     19  C2'      -21.1670   32.3290   -3.0660 C.3   514  DTP514      0.1151
     20  C1'      -22.5120   31.9700   -2.4530 C.3   514  DTP514      0.2873
     21  N9       -23.6630   32.2090   -3.3610 N.pl3 514  DTP514     -0.1460
     22  C8       -24.2390   33.3860   -3.6920 C.3   514  DTP514      0.3377
     23  N7       -25.2820   33.2080   -4.5550 N.2   514  DTP514     -0.2095
     24  C5       -25.3660   31.9080   -4.7940 C.2   514  DTP514      0.2526
     25  C6       -26.2490   31.0460   -5.5970 C.2   514  DTP514      0.4393
     26  N6       -27.2500   31.5860   -6.3440 N.pl3 514  DTP514      0.2180
     27  N1       -25.9890   29.7220   -5.5760 N.2   514  DTP514      0.0021
     28  C2       -24.9910   29.1960   -4.8500 C.3   514  DTP514      0.5254
     29  N3       -24.1610   29.9190   -4.0990 N.2   514  DTP514     -0.0055
     30  C4       -24.3000   31.2530   -4.0270 C.2   514  DTP514      0.3518
@<TRIPOS>BOND
     1    26    25    1
     2    25    27    2
     3    25    24    1
     4    27    28    1
     5    28    29    1
     6    24    23    2
     7    24    30    1
     8    23    22    1
     9    29    30    2
    10    30    21    1
    11     3     1    2
    12    22    21    1
    13     7     5    2
    14     8     1    1
    15     8     5    1
    16    21    20    1
    17    19    20    1
    18    19    17    1
    19    12     5    1
    20    12     9    1
    21    11     9    2
    22     1     4    1
    23     1     2    1
    24     5     6    1
    25    20    16    1
    26    17    18    1
    27    17    15    1
    28     9    13    1
    29     9    10    1
    30    13    14    1
    31    16    15    1
    32    15    14    1
