@<TRIPOS>MOLECULE
3mfi_DTP_A_1.pdb
 30 32 0 0 0
SMALL
GASTEIGER

@<TRIPOS>ATOM
      1  PG       -19.8940   39.8890   -2.5210 P.3   514  DTP514      0.5373
      2  O1G      -20.4940   39.5940   -1.1440 O.3   514  DTP514     -0.1143
      3  O2G      -20.7430   40.5560   -3.5760 O.2   514  DTP514     -0.2221
      4  O3G      -18.5300   40.4510   -2.4200 O.3   514  DTP514     -0.1143
      5  PB       -19.9150   36.9910   -2.5110 P.3   514  DTP514      0.2277
      6  O1B      -19.6010   36.9480   -1.0350 O.3   514  DTP514     -0.4368
      7  O2B      -19.2550   35.9560   -3.4040 O.2   514  DTP514     -0.5168
      8  O3B      -19.6440   38.4310   -3.1700 O.3   514  DTP514     -0.2258
      9  PA       -22.6990   36.6530   -1.6760 P.3   514  DTP514      0.2189
     10  O1A      -22.3580   37.4530   -0.4710 O.3   514  DTP514     -0.4371
     11  O2A      -23.9360   36.9530   -2.4900 O.2   514  DTP514     -0.5170
     12  O3A      -21.4840   36.8010   -2.7620 O.3   514  DTP514     -0.2700
     13  O5'      -22.6970   35.1040   -1.3330 O.3   514  DTP514     -0.3112
     14  C5'      -21.8060   34.4870   -0.4110 C.3   514  DTP514      0.1813
     15  C4'      -21.3190   33.1620   -0.9720 C.3   514  DTP514      0.1795
     16  O4'      -22.4190   32.2800   -1.2230 O.3   514  DTP514     -0.3155
     17  C3'      -20.5730   33.3250   -2.2840 C.3   514  DTP514      0.1883
     18  O3'      -19.1770   33.5390   -2.0930 O.3   514  DTP514     -0.2202
     19  C2'      -20.8400   32.0100   -2.9860 C.3   514  DTP514      0.1151
     20  C1'      -22.1790   31.5630   -2.4520 C.3   514  DTP514      0.2873
     21  N9       -23.2870   31.8930   -3.3660 N.pl3 514  DTP514     -0.1460
     22  C8       -23.8170   33.1020   -3.6370 C.3   514  DTP514      0.3377
     23  N7       -24.8500   32.9620   -4.5120 N.2   514  DTP514     -0.2095
     24  C5       -24.9420   31.6210   -4.7660 C.2   514  DTP514      0.2526
     25  C6       -25.7810   30.8570   -5.5510 C.2   514  DTP514      0.4393
     26  N6       -26.7580   31.4600   -6.2800 N.pl3 514  DTP514      0.2180
     27  N1       -25.5900   29.5010   -5.5960 N.2   514  DTP514      0.0021
     28  C2       -24.6240   28.9060   -4.8870 C.3   514  DTP514      0.5254
     29  N3       -23.8080   29.6210   -4.0960 N.2   514  DTP514     -0.0055
     30  C4       -23.9720   30.9670   -4.0400 C.2   514  DTP514      0.3518
@<TRIPOS>BOND
     1    26    25    1
     2    27    25    2
     3    27    28    1
     4    25    24    1
     5    28    29    1
     6    24    23    2
     7    24    30    1
     8    23    22    1
     9    29    30    2
    10    30    21    1
    11    22    21    1
    12     3     1    2
    13     7     5    2
    14    21    20    1
    15     8     1    1
    16     8     5    1
    17    19    20    1
    18    19    17    1
    19    12     5    1
    20    12     9    1
    21     1     4    1
    22     1     2    1
    23     5     6    1
    24    11     9    2
    25    20    16    1
    26    17    18    1
    27    17    15    1
    28     9    13    1
    29     9    10    1
    30    13    14    1
    31    16    15    1
    32    15    14    1
