@<TRIPOS>MOLECULE
3mfl_DHY_M_1.pdb
 12 12 0 0 0
SMALL
GASTEIGER

@<TRIPOS>ATOM
      1  C1       -12.6900  -13.1210  -42.9960 C.ar  539  DHY539     -0.0076
      2  C2       -11.4290  -13.3970  -43.5290 C.ar  539  DHY539      0.0417
      3  C3       -10.3000  -13.3510  -42.7150 C.ar  539  DHY539      0.2340
      4  C4       -10.4500  -12.9880  -41.2900 C.ar  539  DHY539      0.2342
      5  C5       -11.7150  -12.7180  -40.7890 C.ar  539  DHY539      0.0451
      6  C6       -12.8140  -12.7820  -41.6470 C.ar  539  DHY539     -0.0002
      7  C7       -13.9080  -13.1890  -43.9080 C.3   539  DHY539      0.1405
      8  C8       -15.0080  -14.0950  -43.3890 C.2   539  DHY539      0.3692
      9  O1       -15.3400  -15.1100  -44.0320 O.co2 539  DHY539     -0.2453
     10  O2       -15.5930  -13.8040  -42.3270 O.co2 539  DHY539     -0.2453
     11  O3        -9.0740  -13.6300  -43.2100 O.3   539  DHY539     -0.2832
     12  O4        -9.3500  -12.9310  -40.5020 O.3   539  DHY539     -0.2831
@<TRIPOS>BOND
     1     9     8   ar
     2     7     8    1
     3     7     1    1
     4     2     1   ar
     5     2     3   ar
     6     8    10   ar
     7    11     3    1
     8     1     6   ar
     9     3     4   ar
    10     6     5   ar
    11     4     5   ar
    12     4    12    1
