@<TRIPOS>MOLECULE
3mfp_ADP_A_1.pdb
 27 29 0 0 0
SMALL
GASTEIGER

@<TRIPOS>ATOM
      1  PB        -9.7880   12.3030  -53.1370 P.3   376  ADP376      0.5373
      2  O1B      -10.2480   13.2610  -52.1200 O.3   376  ADP376     -0.1143
      3  O2B       -9.2720   13.0830  -54.3030 O.2   376  ADP376     -0.2221
      4  O3B       -8.8680   11.1650  -52.6320 O.3   376  ADP376     -0.1143
      5  PA       -12.6580   11.8950  -53.6050 P.3   376  ADP376      0.2231
      6  O1A      -13.2980   11.7130  -52.2900 O.3   376  ADP376     -0.4370
      7  O2A      -12.8680   13.2350  -54.2270 O.2   376  ADP376     -0.5169
      8  O3A      -11.1150   11.5580  -53.5930 O.3   376  ADP376     -0.2261
      9  O5'      -13.2950   10.7460  -54.5200 O.3   376  ADP376     -0.3111
     10  C5'      -12.8790   10.7000  -55.9300 C.3   376  ADP376      0.1813
     11  C4'      -12.9990    9.2330  -56.3520 C.3   376  ADP376      0.1821
     12  O4'      -14.3800    8.8280  -56.1380 O.3   376  ADP376     -0.3135
     13  C3'      -12.6840    9.0390  -57.8620 C.3   376  ADP376      0.2184
     14  O3'      -11.9670    7.7850  -57.9680 O.3   376  ADP376     -0.2174
     15  C2'      -14.0880    8.8550  -58.4580 C.3   376  ADP376      0.2570
     16  O2'      -14.1010    8.0540  -59.6530 O.3   376  ADP376     -0.2130
     17  C1'      -14.8770    8.2810  -57.3150 C.3   376  ADP376      0.3186
     18  N9       -16.3180    8.4450  -57.4040 N.pl3 376  ADP376     -0.1439
     19  C8       -17.0340    9.5910  -57.5450 C.3   376  ADP376      0.3377
     20  N7       -18.3300    9.4520  -57.6470 N.2   376  ADP376     -0.2095
     21  C5       -18.4740    8.1370  -57.5390 C.2   376  ADP376      0.2526
     22  C6       -19.6200    7.3630  -57.5830 C.2   376  ADP376      0.4393
     23  N6       -20.8450    7.8860  -57.7320 N.pl3 376  ADP376      0.2180
     24  N1       -19.4430    6.0550  -57.4740 N.2   376  ADP376      0.0021
     25  C2       -18.1860    5.4820  -57.3190 C.3   376  ADP376      0.5254
     26  N3       -17.0390    6.1490  -57.2840 N.2   376  ADP376     -0.0055
     27  C4       -17.2840    7.4660  -57.4010 C.2   376  ADP376      0.3518
@<TRIPOS>BOND
     1    16    15    1
     2    15    13    1
     3    15    17    1
     4    14    13    1
     5    13    11    1
     6    23    22    1
     7    20    19    1
     8    20    21    2
     9    22    21    1
    10    22    24    2
    11    19    18    1
    12    21    27    1
    13    24    25    1
    14    18    27    1
    15    18    17    1
    16    27    26    2
    17    25    26    1
    18    17    12    1
    19    11    12    1
    20    11    10    1
    21    10     9    1
    22     9     5    1
    23     3     1    2
    24     7     5    2
    25     5     8    1
    26     5     6    1
    27     8     1    1
    28     1     4    1
    29     1     2    1
