@<TRIPOS>MOLECULE
3mfv_Z70_A_1.pdb
 13 13 0 0 0
SMALL
GASTEIGER

@<TRIPOS>ATOM
      1  CA       -19.5010   16.4710   -5.2810 C.3     0  Z700        0.1947
      2  C        -20.9540   16.8970   -5.5920 C.2     0  Z700        0.3819
      3  C3       -20.2620   12.6300   -5.6040 C.2     0  Z700        0.1248
      4  C4       -20.2510   10.4610   -5.6450 C.1     0  Z700        0.1817
      5  C5       -19.2420   12.2430   -6.5980 C.3     0  Z700        0.1934
      6  C6       -19.2760   14.9430   -5.1580 C.3     0  Z700        0.0378
      7  C7       -20.5410   14.1040   -5.3310 C.3     0  Z700        0.0596
      8  N        -19.1230   17.0290   -4.0280 N.3     0  Z700       -0.1208
      9  N2       -20.8500   11.5140   -5.0490 N.2     0  Z700       -0.3423
     10  N3       -19.2840   10.8510   -6.5770 N.2     0  Z700       -0.1879
     11  N4       -20.5650    9.1430   -5.3650 N.pl3   0  Z700       -0.0348
     12  OXT      -21.5310   16.5360   -6.6910 O.co2   0  Z700       -0.2441
     13  O        -21.6040   17.6250   -4.7600 O.co2   0  Z700       -0.2441
@<TRIPOS>BOND
     1    12     2   ar
     2     5    10    1
     3     5     3    1
     4    10     4    2
     5     4    11    1
     6     4     9    2
     7     3     7    1
     8     3     9    2
     9     2     1    1
    10     2    13   ar
    11     7     6    1
    12     1     6    1
    13     1     8    1
