@<TRIPOS>MOLECULE
3mfw_B3U_A_1.pdb
 12 12 0 0 0
SMALL
GASTEIGER

@<TRIPOS>ATOM
      1  N          4.9060   25.4740   31.2040 N.3   600  B3U600     -0.1204
      2  CA         4.9090   25.5790   29.7380 C.3   600  B3U600      0.2010
      3  CB         4.4850   24.3130   29.0350 C.3   600  B3U600      0.0881
      4  CG         3.0360   24.0280   29.1850 C.2   600  B3U600      0.1268
      5  CD2        2.1190   24.3010   30.1390 C.3   600  B3U600      0.1935
      6  NE2        0.9480   23.7680   29.6880 N.2   600  B3U600     -0.1879
      7  CE1        1.1280   23.1980   28.5120 C.1   600  B3U600      0.1817
      8  ND1        2.3960   23.3370   28.1790 N.2   600  B3U600     -0.3422
      9  NT         0.1920   22.5250   27.6790 N.pl3 600  B3U600     -0.0348
     10  C          4.0780   26.8120   29.3450 C.2   600  B3U600      0.3823
     11  OXT        3.8010   27.1030   28.1780 O.co2 600  B3U600     -0.2440
     12  O          3.6960   27.4960   30.3120 O.co2 600  B3U600     -0.2440
@<TRIPOS>BOND
     1     9     7    1
     2    11    10   ar
     3     8     7    2
     4     8     4    2
     5     7     6    2
     6     3     4    1
     7     3     2    1
     8     4     5    1
     9    10     2    1
    10    10    12   ar
    11     6     5    1
    12     2     1    1
