@<TRIPOS>MOLECULE
3mg0_BO2_2_1.pdb
 28 29 0 0 0
SMALL
GASTEIGER

@<TRIPOS>ATOM
      1  N1        19.7790 -164.3650   53.5470 N.ar  1405  BO21405     0.0000
      2  C2        20.1470 -163.1570   54.0360 C.ar  1405  BO21405     0.0000
      3  C3        19.2150 -162.1230   54.1160 C.ar  1405  BO21405     0.0000
      4  N4        17.9670 -162.3410   53.6780 N.ar  1405  BO21405     0.0000
      5  C5        17.6060 -163.5410   53.1840 C.ar  1405  BO21405     0.0000
      6  C6        18.5300 -164.5770   53.1140 C.ar  1405  BO21405     0.0000
      7  C7        21.5390 -162.9610   54.5420 C.2   1405  BO21405     0.0000
      8  O8        22.3770 -163.8190   54.3610 O.2   1405  BO21405     0.0000
      9  N9        21.8220 -161.8570   55.2080 N.am  1405  BO21405     0.0000
     10  C10       23.1470 -161.6780   55.7610 C.3   1405  BO21405     0.0000
     11  C11       23.6760 -160.3090   55.3130 C.3   1405  BO21405     0.0000
     12  C12       24.8710 -159.7750   56.1000 C.ar  1405  BO21405     0.0000
     13  C13       26.1720 -160.2410   55.8520 C.ar  1405  BO21405     0.0000
     14  C14       27.2690 -159.7290   56.5670 C.ar  1405  BO21405     0.0000
     15  C15       27.0760 -158.7350   57.5340 C.ar  1405  BO21405     0.0000
     16  C16       25.7870 -158.2570   57.7910 C.ar  1405  BO21405     0.0000
     17  C17       24.6920 -158.7710   57.0720 C.ar  1405  BO21405     0.0000
     18  C18       22.9420 -161.7060   57.2390 C.2   1405  BO21405     0.0000
     19  O19       21.9690 -161.1590   57.7490 O.2   1405  BO21405     0.0000
     20  N20       23.8490 -162.3690   57.9280 N.am  1405  BO21405     0.0000
     21  C21       23.7430 -162.3520   59.3720 C.3   1405  BO21405     0.0000
     22  C22       23.4090 -163.6950   60.0250 C.3   1405  BO21405     0.0000
     23  C23       23.5820 -164.9630   59.2270 C.3   1405  BO21405     0.0000
     24  C24       24.9180 -165.5900   59.5700 C.3   1405  BO21405     0.0000
     25  C25       22.4680 -165.9280   59.5830 C.3   1405  BO21405     0.0000
     26  B26       25.1610 -161.7510   59.8250 B     1405  BO21405     0.0000
     27  O27       26.4330 -162.5960   59.7880 O.3   1405  BO21405     0.0000
     28  O28       25.2570 -160.2610   60.1900 O.3   1405  BO21405     0.0000
@<TRIPOS>BOND
     1     6     5   ar
     2     6     1   ar
     3     5     4   ar
     4     1     2   ar
     5     4     3   ar
     6     2     3   ar
     7     2     7    1
     8     8     7    2
     9     7     9   am
    10     9    10    1
    11    11    10    1
    12    11    12    1
    13    10    18    1
    14    13    12   ar
    15    13    14   ar
    16    12    17   ar
    17    14    15   ar
    18    17    16   ar
    19    18    19    2
    20    18    20   am
    21    15    16   ar
    22    20    21    1
    23    23    24    1
    24    23    25    1
    25    23    22    1
    26    21    26    1
    27    21    22    1
    28    27    26    1
    29    26    28    1
