@<TRIPOS>MOLECULE
3mg1_ECH_A_1.pdb
 41 42 0 0 0
SMALL
GASTEIGER

@<TRIPOS>ATOM
      1  C1       -22.0420   50.7790   31.1850 C.3   351  ECH351      0.0183
      2  C2       -22.3600   50.9180   32.6490 C.3   351  ECH351      0.0044
      3  C3       -21.2100   51.5120   33.4400 C.3   351  ECH351      0.0047
      4  C4       -20.7660   52.8490   32.9220 C.3   351  ECH351      0.0217
      5  C5       -20.7510   52.9670   31.3840 C.2   351  ECH351     -0.0479
      6  C6       -21.3580   52.0290   30.5860 C.2   351  ECH351     -0.0307
      7  C7       -21.3950   52.1120   29.0580 C.2   351  ECH351     -0.0052
      8  C8       -21.8280   53.1920   28.4330 C.2   351  ECH351     -0.0049
      9  C9       -21.7850   53.2520   26.9010 C.2   351  ECH351     -0.0261
     10  C10      -22.2290   54.3560   26.3080 C.2   351  ECH351     -0.0300
     11  C11      -22.1150   54.5830   24.7910 C.3   351  ECH351      0.0300
     12  C12      -22.5620   55.7750   24.3630 C.3   351  ECH351      0.0267
     13  C13      -22.3420   56.2370   22.9130 C.2   351  ECH351     -0.0436
     14  C14      -22.6770   57.4920   22.6120 C.2   351  ECH351     -0.0085
     15  C15      -22.3300   58.1480   21.2730 C.2   351  ECH351     -0.0007
     16  C16      -22.7440   59.4060   21.0880 C.2   351  ECH351     -0.0003
     17  C17      -22.1910   60.1720   19.8830 C.2   351  ECH351     -0.0043
     18  C18      -22.4830   61.4650   19.6840 C.2   351  ECH351     -0.0218
     19  C19      -21.9320   62.1250   18.4130 C.2   351  ECH351     -0.0043
     20  C20      -22.3170   63.3680   18.1010 C.2   351  ECH351     -0.0006
     21  C21      -21.5360   64.0320   16.9660 C.2   351  ECH351     -0.0043
     22  C22      -21.8880   65.2110   16.4550 C.2   351  ECH351     -0.0222
     23  C23      -20.8670   65.8490   15.5130 C.2   351  ECH351     -0.0088
     24  C24      -21.1140   67.0220   14.9620 C.2   351  ECH351     -0.0264
     25  C25      -20.0030   67.7440   14.1880 C.3   351  ECH351      0.0289
     26  C26      -20.3920   68.4770   13.1350 C.3   351  ECH351      0.0616
     27  C27      -19.4470   69.4290   12.4160 C.2   351  ECH351      0.1506
     28  O27      -19.8630   70.1230   11.5210 O.2   351  ECH351     -0.2961
     29  C28      -18.0380   69.5610   12.9330 C.3   351  ECH351      0.0645
     30  C29      -17.6120   68.3730   13.7610 C.3   351  ECH351      0.0081
     31  C30      -18.6160   67.9880   14.8440 C.3   351  ECH351      0.0046
     32  C31      -21.1260   49.5630   30.9790 C.3   351  ECH351      0.0043
     33  C32      -23.3390   50.5180   30.4370 C.3   351  ECH351      0.0043
     34  C33      -20.0560   54.1940   30.7900 C.3   351  ECH351      0.0260
     35  C34      -21.2320   52.0800   26.0850 C.3   351  ECH351      0.0307
     36  C35      -21.7690   55.2860   21.8670 C.3   351  ECH351      0.0264
     37  C36      -23.4680   62.2520   20.5630 C.3   351  ECH351      0.0310
     38  C37      -23.0900   66.0070   16.9590 C.3   351  ECH351      0.0310
     39  C38      -21.7500   68.2320   12.4980 C.3   351  ECH351      0.0081
     40  C39      -18.0580   66.7480   15.5800 C.3   351  ECH351      0.0003
     41  C40      -18.7200   69.1150   15.8510 C.3   351  ECH351      0.0003
@<TRIPOS>BOND
     1    28    27    2
     2    27    29    1
     3    27    26    1
     4    39    26    1
     5    29    30    1
     6    26    25    1
     7    30    31    1
     8    25    31    1
     9    25    24    1
    10    31    40    1
    11    31    41    1
    12    24    23    2
    13    23    22    1
    14    22    38    1
    15    22    21    2
    16    21    20    1
    17    20    19    2
    18    19    18    1
    19    18    17    2
    20    18    37    1
    21    17    16    1
    22    16    15    2
    23    15    14    1
    24    36    13    1
    25    14    13    2
    26    13    12    1
    27    12    11    1
    28    11    10    1
    29    35     9    1
    30    10     9    2
    31     9     8    1
    32     8     7    2
    33     7     6    1
    34    33     1    1
    35     6     1    1
    36     6     5    2
    37    34     5    1
    38    32     1    1
    39     1     2    1
    40     5     4    1
    41     2     3    1
    42     4     3    1
