@<TRIPOS>MOLECULE
3mg2_ECH_A_1.pdb
 41 42 0 0 0
SMALL
GASTEIGER

@<TRIPOS>ATOM
      1  C1       -19.4410   21.0790    1.0870 C.3   351  ECH351      0.0037
      2  C2       -19.2120   20.9400    2.5690 C.3   351  ECH351      0.0003
      3  C3       -20.4710   20.5460    3.3060 C.3   351  ECH351      0.0000
      4  C4       -20.9980   19.2200    2.8460 C.3   351  ECH351      0.0003
      5  C5       -20.7210   18.9300    1.3580 C.3   351  ECH351      0.0040
      6  C6       -20.2790   19.9130    0.5230 C.3   351  ECH351      0.0220
      7  C7       -20.3030   19.7700   -1.0120 C.2   351  ECH351     -0.0268
      8  C8       -19.6740   18.7700   -1.6210 C.2   351  ECH351     -0.0088
      9  C9       -19.6300   18.6860   -3.1630 C.2   351  ECH351     -0.0222
     10  C10      -19.1120   17.5900   -3.7280 C.2   351  ECH351     -0.0043
     11  C11      -19.3590   17.2370   -5.2180 C.2   351  ECH351     -0.0006
     12  C12      -18.9340   16.0370   -5.6450 C.2   351  ECH351     -0.0043
     13  C13      -19.2890   15.4950   -7.0560 C.2   351  ECH351     -0.0218
     14  C14      -19.0190   14.2140   -7.3080 C.2   351  ECH351     -0.0043
     15  C15      -19.2340   13.5990   -8.7100 C.2   351  ECH351     -0.0003
     16  C16      -19.0820   12.2830   -8.8560 C.2   351  ECH351     -0.0006
     17  C17      -19.2830   11.6280  -10.2390 C.2   351  ECH351     -0.0082
     18  C18      -19.0880   10.3140  -10.3850 C.2   351  ECH351     -0.0395
     19  C19      -19.3910    9.6570  -11.7510 C.3   351  ECH351      0.0476
     20  C20      -19.1820    8.3460  -11.9440 C.2   351  ECH351     -0.0260
     21  C21      -19.8820    7.6830  -13.1560 C.2   351  ECH351     -0.0263
     22  C22      -19.7300    6.3910  -13.4590 C.3   351  ECH351      0.0433
     23  C23      -20.8010    5.7250  -14.3460 C.2   351  ECH351     -0.0267
     24  C24      -20.5800    4.5360  -14.9000 C.2   351  ECH351     -0.0303
     25  C25      -21.6230    3.9170  -15.8530 C.3   351  ECH351      0.0286
     26  C26      -21.1450    3.1070  -16.7990 C.3   351  ECH351      0.0616
     27  C27      -22.0670    2.1090  -17.5170 C.2   351  ECH351      0.1506
     28  O27      -21.6100    1.3540  -18.3020 O.2   351  ECH351     -0.2961
     29  C28      -23.5330    2.0600  -17.2010 C.3   351  ECH351      0.0645
     30  C29      -24.0040    3.2800  -16.4780 C.3   351  ECH351      0.0081
     31  C30      -23.0730    3.6960  -15.3400 C.3   351  ECH351      0.0045
     32  C31      -18.0950   21.1080    0.3760 C.3   351  ECH351      0.0003
     33  C32      -20.1820   22.3790    0.8000 C.3   351  ECH351      0.0003
     34  C33      -21.1900   17.5870    0.8080 C.3   351  ECH351      0.0003
     35  C34      -20.2800   19.7730   -4.0210 C.3   351  ECH351      0.0310
     36  C35      -19.5750   16.4560   -8.2090 C.3   351  ECH351      0.0310
     37  C36      -18.5170    9.4820   -9.2350 C.3   351  ECH351      0.0267
     38  C37      -18.5290    5.5910  -12.9770 C.3   351  ECH351      0.0094
     39  C38      -19.8440    3.4930  -17.4780 C.3   351  ECH351      0.0081
     40  C39      -23.0610    2.5920  -14.2720 C.3   351  ECH351      0.0003
     41  C40      -23.6300    4.9710  -14.7260 C.3   351  ECH351      0.0003
@<TRIPOS>BOND
     1    28    27    2
     2    27    29    1
     3    27    26    1
     4    39    26    1
     5    29    30    1
     6    26    25    1
     7    30    31    1
     8    25    31    1
     9    25    24    1
    10    31    41    1
    11    31    40    1
    12    24    23    2
    13    23    22    1
    14    22    21    1
    15    22    38    1
    16    21    20    2
    17    20    19    1
    18    19    18    1
    19    18    17    2
    20    18    37    1
    21    17    16    1
    22    16    15    2
    23    15    14    1
    24    36    13    1
    25    14    13    2
    26    13    12    1
    27    12    11    2
    28    11    10    1
    29    35     9    1
    30    10     9    2
    31     9     8    1
    32     8     7    2
    33     7     6    1
    34    32     1    1
    35     6     1    1
    36     6     5    1
    37    33     1    1
    38    34     5    1
    39     1     2    1
    40     5     4    1
    41     2     3    1
    42     4     3    1
