@<TRIPOS>MOLECULE
3mg4_LXT_K_1.pdb
 45 48 0 0 0
SMALL
GASTEIGER

@<TRIPOS>ATOM
      1  C1         9.0890 -137.6890   19.5680 C.3   213  LXT213      0.1731
      2  N2         9.6140 -137.4880   20.9420 N.am  213  LXT213     -0.1966
      3  C3         8.0110 -136.6220   19.2740 C.3   213  LXT213      0.0358
      4  C4        10.2200 -137.6360   18.5220 C.2   213  LXT213      0.2616
      5  N5        10.2490 -138.6880   17.6960 N.am  213  LXT213     -0.1963
      6  O6        11.0140 -136.6930   18.4900 O.2   213  LXT213     -0.2715
      7  C7        11.2410 -138.8890   16.6200 C.3   213  LXT213      0.1731
      8  C8        11.9450 -140.2390   16.8600 C.3   213  LXT213      0.0358
      9  C9        10.5240 -138.8290   15.2630 C.2   213  LXT213      0.2615
     10  O10        9.5100 -139.4900   15.0490 O.2   213  LXT213     -0.2715
     11  N11       11.0700 -137.9970   14.3780 N.am  213  LXT213     -0.1991
     12  C12       10.5060 -137.7430   13.0430 C.3   213  LXT213      0.1415
     13  C13        9.7300 -136.4250   13.1380 C.ar  213  LXT213     -0.0006
     14  C14       10.2210 -135.2590   12.5350 C.ar  213  LXT213     -0.0029
     15  C15        9.5120 -134.0550   12.6430 C.ar  213  LXT213     -0.0045
     16  C16        8.3150 -134.0210   13.3580 C.ar  213  LXT213     -0.0219
     17  C17        7.8270 -135.1810   13.9610 C.ar  213  LXT213     -0.0045
     18  C18        8.5310 -136.3820   13.8560 C.ar  213  LXT213     -0.0029
     19  C19        7.5300 -132.7210   13.4860 C.3   213  LXT213      0.0310
     20  C20       13.4170 -140.2940   16.4180 C.3   213  LXT213      0.0286
     21  C21       14.3840 -139.3360   17.1390 C.ar  213  LXT213     -0.0221
     22  C22       15.6110 -139.0550   16.5260 C.ar  213  LXT213     -0.0043
     23  C23       16.5250 -138.1900   17.1340 C.ar  213  LXT213     -0.0003
     24  C24       16.2080 -137.6010   18.3650 C.ar  213  LXT213     -0.0000
     25  C25       14.9860 -137.8800   18.9870 C.ar  213  LXT213     -0.0003
     26  C26       14.0810 -138.7500   18.3740 C.ar  213  LXT213     -0.0043
     27  C27        7.0250 -137.0360   18.1650 C.3   213  LXT213      0.0286
     28  C28        5.6230 -136.4560   18.4180 C.ar  213  LXT213     -0.0221
     29  C29        4.6940 -137.1660   19.1990 C.ar  213  LXT213     -0.0043
     30  C30        3.4130 -136.6540   19.4470 C.ar  213  LXT213     -0.0003
     31  C31        3.0630 -135.4180   18.9040 C.ar  213  LXT213     -0.0000
     32  C32        3.9860 -134.7100   18.1250 C.ar  213  LXT213     -0.0003
     33  C33        5.2660 -135.2180   17.8770 C.ar  213  LXT213     -0.0043
     34  C34       10.5870 -138.2020   21.5320 C.2   213  LXT213      0.2592
     35  O35       11.1910 -139.1420   21.0120 O.2   213  LXT213     -0.2718
     36  C36       10.8810 -137.7880   22.9880 C.3   213  LXT213      0.1696
     37  C37       12.3890 -137.8210   23.3110 C.3   213  LXT213      0.0331
     38  N38       10.1490 -138.6900   23.9040 N.3   213  LXT213     -0.1231
     39  C41       12.8350 -136.5760   24.1050 C.3   213  LXT213      0.0283
     40  C42       14.2810 -136.1620   23.7640 C.ar  213  LXT213     -0.0221
     41  C43       15.2490 -136.1300   24.7740 C.ar  213  LXT213     -0.0043
     42  C44       16.5600 -135.7600   24.4650 C.ar  213  LXT213     -0.0003
     43  C45       16.9050 -135.4240   23.1500 C.ar  213  LXT213     -0.0000
     44  C46       15.9450 -135.4510   22.1340 C.ar  213  LXT213     -0.0003
     45  C47       14.6350 -135.8180   22.4470 C.ar  213  LXT213     -0.0043
@<TRIPOS>BOND
     1    14    15   ar
     2    14    13   ar
     3    15    16   ar
     4    12    13    1
     5    12    11    1
     6    13    18   ar
     7    16    19    1
     8    16    17   ar
     9    18    17   ar
    10    11     9   am
    11    10     9    2
    12     9     7    1
    13    20     8    1
    14    20    21    1
    15    22    23   ar
    16    22    21   ar
    17     7     8    1
    18     7     5    1
    19    23    24   ar
    20    21    26   ar
    21     5     4   am
    22    33    32   ar
    23    33    28   ar
    24    32    31   ar
    25    27    28    1
    26    27     3    1
    27    24    25   ar
    28    26    25   ar
    29    28    29   ar
    30     6     4    2
    31     4     1    1
    32    31    30   ar
    33    29    30   ar
    34     3     1    1
    35     1     2    1
    36     2    34   am
    37    35    34    2
    38    34    36    1
    39    44    45   ar
    40    44    43   ar
    41    45    40   ar
    42    36    37    1
    43    36    38    1
    44    43    42   ar
    45    37    39    1
    46    40    39    1
    47    40    41   ar
    48    42    41   ar
