@<TRIPOS>MOLECULE
3mg5_BTN_A_1.pdb
 16 17 0 0 0
SMALL
GASTEIGER

@<TRIPOS>ATOM
      1  C11        5.0200  -16.2390   23.8100 C.2   5100  BTN5100     0.3649
      2  O11        4.4520  -15.1650   24.0870 O.co2 5100  BTN5100    -0.2457
      3  O12        4.5720  -17.0300   22.9410 O.co2 5100  BTN5100    -0.2457
      4  C10        6.2220  -16.6580   24.6090 C.3   5100  BTN5100     0.1141
      5  C9         7.1290  -15.5200   25.0900 C.3   5100  BTN5100     0.0118
      6  C8         7.7840  -14.7860   23.9290 C.3   5100  BTN5100     0.0015
      7  C7         8.6900  -13.6770   24.3980 C.3   5100  BTN5100     0.0129
      8  C2         9.4430  -13.0430   23.1880 C.3   5100  BTN5100     0.0729
      9  S1        10.7610  -14.0380   22.5180 S.3   5100  BTN5100    -0.1369
     10  C6        11.3490  -12.6530   21.5450 C.3   5100  BTN5100     0.0848
     11  C5        11.2240  -11.4290   22.4610 C.3   5100  BTN5100     0.1509
     12  N1        12.4480  -11.2700   23.2540 N.2   5100  BTN5100    -0.1859
     13  C3        12.1400  -11.4240   24.5570 C.1   5100  BTN5100     0.2386
     14  O3        13.0180  -11.3450   25.5230 O.2   5100  BTN5100    -0.2023
     15  N2        10.8710  -11.7180   24.7670 N.2   5100  BTN5100    -0.1860
     16  C4        10.1210  -11.7020   23.5050 C.3   5100  BTN5100     0.1500
@<TRIPOS>BOND
     1    10    11    1
     2    10     9    1
     3    11    12    1
     4    11    16    1
     5     9     8    1
     6     3     1   ar
     7     8    16    1
     8     8     7    1
     9    12    13    2
    10    16    15    1
    11     1     2   ar
    12     1     4    1
    13     6     7    1
    14     6     5    1
    15    13    15    2
    16    13    14    2
    17     4     5    1
