@<TRIPOS>MOLECULE
3mg6_LZT_K_1.pdb
 43 46 0 0 0
SMALL
GASTEIGER

@<TRIPOS>ATOM
      1  C1        13.9130 -135.7030   23.8450 C.ar  213  LZT213     -0.0158
      2  C2        13.3750 -136.0610   25.0750 C.ar  213  LZT213      0.0327
      3  C3        14.0710 -135.7200   26.2180 C.ar  213  LZT213      0.1384
      4  O4        13.5200 -136.1000   27.4020 O.3   213  LZT213     -0.4714
      5  C5        14.2460 -135.4720   28.4220 C.3   213  LZT213      0.2525
      6  C6        15.2780 -135.0090   26.1260 C.ar  213  LZT213      0.0370
      7  C7        15.8060 -134.6320   24.8830 C.ar  213  LZT213      0.0056
      8  C8        15.1060 -134.9770   23.7270 C.ar  213  LZT213      0.0310
      9  C9        15.3220 -134.7970   22.3530 C.2   213  LZT213      0.1731
     10  O10       15.9660 -133.8840   21.8380 O.2   213  LZT213     -0.2913
     11  C11       14.6280 -135.9500   21.5880 C.3   213  LZT213      0.0740
     12  C12       13.3690 -135.8410   22.4330 C.3   213  LZT213      0.0393
     13  C13       12.2350 -136.8890   22.3930 C.3   213  LZT213      0.0916
     14  C14        7.9100 -131.2320   13.2820 C.3   213  LZT213      0.0310
     15  C15        8.5870 -132.6020   13.1240 C.ar  213  LZT213     -0.0219
     16  C16        8.0670 -133.7370   13.7410 C.ar  213  LZT213     -0.0045
     17  C17        8.6980 -134.9640   13.5670 C.ar  213  LZT213     -0.0029
     18  C18        9.8490 -135.0300   12.7720 C.ar  213  LZT213     -0.0006
     19  C19       10.3590 -133.9010   12.1510 C.ar  213  LZT213     -0.0029
     20  C20        9.7250 -132.6860   12.3320 C.ar  213  LZT213     -0.0045
     21  C21       10.5790 -136.3520   12.5520 C.3   213  LZT213      0.1415
     22  N22       11.3630 -136.6520   13.7410 N.am  213  LZT213     -0.1991
     23  C23       10.8810 -137.4650   14.6650 C.2   213  LZT213      0.2615
     24  O24        9.7650 -137.9870   14.5690 O.2   213  LZT213     -0.2715
     25  C25       11.8250 -137.6960   15.8800 C.3   213  LZT213      0.1731
     26  C26       12.5820 -139.0080   15.7310 C.3   213  LZT213      0.0358
     27  N27       11.0400 -137.7150   17.1240 N.am  213  LZT213     -0.1963
     28  C28       13.4250 -139.2660   16.9850 C.3   213  LZT213      0.0286
     29  C29       11.1050 -136.7740   18.0620 C.2   213  LZT213      0.2642
     30  O30       11.8310 -135.7900   18.0370 O.2   213  LZT213     -0.2714
     31  C31       10.1700 -137.0320   19.2240 C.3   213  LZT213      0.2028
     32  N32       10.7180 -136.6750   20.5470 N.am  213  LZT213     -0.1951
     33  C33        8.8070 -136.3740   19.0170 C.3   213  LZT213      0.1808
     34  O34        7.9450 -136.9120   19.9990 O.3   213  LZT213     -0.2208
     35  C35        8.2200 -136.6960   17.6550 C.3   213  LZT213      0.0379
     36  C36       14.6910 -138.4150   16.9490 C.ar  213  LZT213     -0.0221
     37  C37       15.5470 -138.4810   15.8420 C.ar  213  LZT213     -0.0043
     38  C38       14.9830 -137.5680   18.0120 C.ar  213  LZT213     -0.0043
     39  C39       16.7160 -137.7160   15.7950 C.ar  213  LZT213     -0.0003
     40  C40       17.0130 -136.8740   16.8630 C.ar  213  LZT213     -0.0000
     41  C41       16.1520 -136.8020   17.9590 C.ar  213  LZT213     -0.0003
     42  C42       11.8070 -137.2660   21.0100 C.2   213  LZT213      0.2422
     43  O43       12.4760 -138.0910   20.4000 O.2   213  LZT213     -0.2733
@<TRIPOS>BOND
     1    19    20   ar
     2    19    18   ar
     3    20    15   ar
     4    21    18    1
     5    21    22    1
     6    18    17   ar
     7    15    14    1
     8    15    16   ar
     9    17    16   ar
    10    22    23   am
    11    24    23    2
    12    23    25    1
    13    26    25    1
    14    26    28    1
    15    39    37   ar
    16    39    40   ar
    17    37    36   ar
    18    25    27    1
    19    40    41   ar
    20    36    28    1
    21    36    38   ar
    22    27    29   am
    23    35    33    1
    24    41    38   ar
    25    30    29    2
    26    29    31    1
    27    33    31    1
    28    33    34    1
    29    31    32    1
    30    43    42    2
    31    32    42   am
    32    42    13    1
    33    11     9    1
    34    11    12    1
    35    10     9    2
    36     9     8    1
    37    13    12    1
    38    12     1    1
    39     8     1   ar
    40     8     7   ar
    41     1     2   ar
    42     7     6   ar
    43     2     3   ar
    44     6     3   ar
    45     3     4    1
    46     4     5    1
