@<TRIPOS>MOLECULE
3mg7_L2T_K_1.pdb
 44 47 0 0 0
SMALL
GASTEIGER

@<TRIPOS>ATOM
      1  C1         9.5750 -135.0990   12.7880 C.ar  213  L2T213     -0.0045
      2  C2         8.2580 -135.1770   13.2320 C.ar  213  L2T213     -0.0029
      3  C3         7.5020 -134.0220   13.4290 C.ar  213  L2T213     -0.0003
      4  C4         8.0540 -132.7740   13.1740 C.ar  213  L2T213     -0.0003
      5  C5         9.3680 -132.6890   12.7270 C.ar  213  L2T213     -0.0045
      6  C6        10.1310 -133.8420   12.5340 C.ar  213  L2T213     -0.0241
      7  C8        10.3210 -136.4200   12.5850 C.3   213  L2T213      0.1412
      8  C9        11.6710 -137.5150   22.3260 C.ar  213  L2T213      0.0553
      9  C10       10.5460 -137.7060   14.6490 C.2   213  L2T213      0.2615
     10  O11        9.4490 -138.2430   14.5130 O.2   213  L2T213     -0.2715
     11  C12       11.4540 -137.9990   15.8600 C.3   213  L2T213      0.1731
     12  C13       12.1740 -139.3440   15.6820 C.3   213  L2T213      0.0358
     13  N14       10.6160 -138.0100   17.0660 N.am  213  L2T213     -0.1963
     14  C15       13.0260 -139.7240   16.8910 C.3   213  L2T213      0.0286
     15  C16       10.6270 -137.0420   17.9720 C.2   213  L2T213      0.2642
     16  O17       11.3400 -136.0450   17.9230 O.2   213  L2T213     -0.2714
     17  C18        9.6330 -137.2810   19.1120 C.3   213  L2T213      0.2031
     18  N19       10.2110 -137.0880   20.4550 N.am  213  L2T213     -0.1913
     19  C20        8.3790 -136.4130   18.9510 C.3   213  L2T213      0.1808
     20  O21        7.5300 -136.6460   20.0700 O.3   213  L2T213     -0.2208
     21  C22       14.1860 -138.7460   17.0550 C.ar  213  L2T213     -0.0221
     22  C23       14.2000 -137.8670   18.1440 C.ar  213  L2T213     -0.0043
     23  C24       15.2230 -138.7320   16.1200 C.ar  213  L2T213     -0.0043
     24  C25       15.2600 -136.9730   18.2870 C.ar  213  L2T213     -0.0003
     25  C26       16.2940 -136.9580   17.3500 C.ar  213  L2T213     -0.0000
     26  C27       16.2830 -137.8370   16.2700 C.ar  213  L2T213     -0.0003
     27  C28       11.2280 -137.8180   20.9040 C.2   213  L2T213      0.2652
     28  O29       11.8000 -138.6850   20.2510 O.2   213  L2T213     -0.2684
     29  N30       11.0370 -136.8290   13.7910 N.am  213  L2T213     -0.1991
     30  C31       11.8910 -138.5690   23.2200 C.ar  213  L2T213      0.0077
     31  C32       12.2960 -138.2860   24.5270 C.ar  213  L2T213      0.0371
     32  C33       12.4740 -136.9530   24.9260 C.ar  213  L2T213      0.1391
     33  C34       12.2400 -135.9130   24.0250 C.ar  213  L2T213      0.0371
     34  C35       11.8420 -136.1920   22.7230 C.ar  213  L2T213      0.0077
     35  O36       12.8580 -136.5910   26.1830 O.3   213  L2T213     -0.4706
     36  C37       13.4900 -137.5600   27.0380 C.3   213  L2T213      0.2320
     37  C38       14.2290 -137.0460   28.0980 C.ar  213  L2T213      0.0212
     38  C39       15.5600 -137.4260   28.2780 C.ar  213  L2T213     -0.0007
     39  C40       16.2960 -136.8900   29.3330 C.ar  213  L2T213     -0.0002
     40  C41       15.6990 -135.9730   30.2020 C.ar  213  L2T213     -0.0000
     41  C42       14.3680 -135.5940   30.0210 C.ar  213  L2T213     -0.0002
     42  C43       13.6340 -136.1230   28.9610 C.ar  213  L2T213     -0.0007
     43  C44        7.6340 -136.7490   17.6640 C.3   213  L2T213      0.0379
     44  CL7       11.7820 -133.6980   11.9840 C.3   213  L2T213      0.0308
@<TRIPOS>BOND
     1    44     6    1
     2     6     5   ar
     3     6     1   ar
     4     7     1    1
     5     7    29    1
     6     5     4   ar
     7     1     2   ar
     8     4     3   ar
     9     2     3   ar
    10    29     9   am
    11    10     9    2
    12     9    11    1
    13    12    11    1
    14    12    14    1
    15    11    13    1
    16    23    26   ar
    17    23    21   ar
    18    26    25   ar
    19    14    21    1
    20    21    22   ar
    21    13    15   am
    22    25    24   ar
    23    43    19    1
    24    16    15    2
    25    15    17    1
    26    22    24   ar
    27    19    17    1
    28    19    20    1
    29    17    18    1
    30    28    27    2
    31    18    27   am
    32    27     8    1
    33     8    34   ar
    34     8    30   ar
    35    34    33   ar
    36    30    31   ar
    37    33    32   ar
    38    31    32   ar
    39    32    35    1
    40    35    36    1
    41    36    37    1
    42    37    38   ar
    43    37    42   ar
    44    38    39   ar
    45    42    41   ar
    46    39    40   ar
    47    41    40   ar
