@<TRIPOS>MOLECULE
3mg8_L3T_K_1.pdb
 46 49 0 0 0
SMALL
GASTEIGER

@<TRIPOS>ATOM
      1  C1        12.6880 -137.8260   25.9020 C.2   213  L3T213      0.0635
      2  N2        12.1280 -138.8630   25.2570 N.2   213  L3T213     -0.2477
      3  C3        11.6160 -138.4400   24.0960 C.2   213  L3T213      0.1018
      4  C4        11.8790 -137.1330   23.9670 C.2   213  L3T213      0.0639
      5  C5        12.5270 -136.6850   25.1090 C.2   213  L3T213      0.0186
      6  C6        13.0180 -135.4440   25.5190 C.2   213  L3T213      0.0010
      7  C7        13.6750 -135.3450   26.7420 C.2   213  L3T213     -0.0041
      8  C8        13.8400 -136.4790   27.5430 C.2   213  L3T213     -0.0198
      9  C9        13.3510 -137.7230   27.1290 C.3   213  L3T213      0.0717
     10  C10       11.4030 -136.2440   22.8160 C.2   213  L3T213      0.2517
     11  C11       10.9610 -136.8060   21.4630 C.2   213  L3T213      0.3044
     12  O12       11.2010 -135.0550   23.0350 O.2   213  L3T213     -0.2816
     13  O13       11.1420 -137.9940   21.2190 O.2   213  L3T213     -0.2648
     14  N14       15.8420 -138.1750   18.4000 N.ar  213  L3T213     -0.2423
     15  N15       11.0010 -135.9740   14.0170 N.am  213  L3T213     -0.1991
     16  C16       10.1230 -135.6670   12.9050 C.3   213  L3T213      0.1412
     17  C17        9.4810 -134.3080   13.1300 C.ar  213  L3T213     -0.0045
     18  C18       10.1440 -133.0790   13.0120 C.ar  213  L3T213     -0.0241
     19  C19        9.4440 -131.8850   13.2320 C.ar  213  L3T213     -0.0045
     20  C20        8.0950 -131.9100   13.5730 C.ar  213  L3T213     -0.0003
     21  C21        7.4490 -133.1310   13.7040 C.ar  213  L3T213     -0.0003
     22  C22        8.1380 -134.3190   13.4820 C.ar  213  L3T213     -0.0029
     23 CL23       11.8410 -133.0000   12.6140 C.3   213  L3T213      0.0308
     24  N24       10.4470 -135.9670   20.5710 N.am  213  L3T213     -0.1908
     25  C25       10.6800 -136.9100   14.8890 C.2   213  L3T213      0.2619
     26  C26       11.6920 -137.0980   16.0100 C.3   213  L3T213      0.1771
     27  O27        9.6330 -137.5550   14.8610 O.2   213  L3T213     -0.2715
     28  C28       12.4800 -138.3820   15.8340 C.3   213  L3T213      0.0575
     29  N29       10.9160 -137.1390   17.2350 N.am  213  L3T213     -0.1960
     30  C30       13.6820 -138.3120   16.7500 C.ar  213  L3T213     -0.0169
     31  C31       13.6460 -138.9390   17.9970 C.ar  213  L3T213      0.0165
     32  C32       14.7680 -138.8450   18.8160 C.ar  213  L3T213      0.0986
     33  C33       15.9100 -137.5630   17.2180 C.ar  213  L3T213      0.0986
     34  C34       14.8190 -137.6120   16.3470 C.ar  213  L3T213      0.0165
     35  C35       10.9980 -136.2100   18.1660 C.2   213  L3T213      0.2621
     36  C36        9.9830 -136.4250   19.2580 C.3   213  L3T213      0.1822
     37  O37       11.7360 -135.2240   18.1290 O.2   213  L3T213     -0.2715
     38  C38        8.7350 -135.6340   18.8290 C.3   213  L3T213      0.1178
     39  C39        7.4400 -135.8870   19.6170 C.2   213  L3T213      0.2436
     40  N40        6.5800 -134.8690   19.5610 N.am  213  L3T213     -0.2054
     41  O41        7.2220 -136.9460   20.2100 O.2   213  L3T213     -0.2733
     42  C42        5.2670 -134.8940   20.2330 C.3   213  L3T213      0.1150
     43  C43        4.1310 -134.4890   19.2700 C.3   213  L3T213      0.0201
     44  C44        4.1090 -135.4060   18.0500 C.3   213  L3T213      0.0018
     45  C45        2.7910 -134.6260   19.9830 C.3   213  L3T213      0.0018
     46  C46        4.3010 -133.0530   18.7820 C.3   213  L3T213      0.0018
@<TRIPOS>BOND
     1    23    18    1
     2    16    17    1
     3    16    15    1
     4    18    17   ar
     5    18    19   ar
     6    17    22   ar
     7    19    20   ar
     8    22    21   ar
     9    20    21   ar
    10    15    25   am
    11    27    25    2
    12    25    26    1
    13    28    26    1
    14    28    30    1
    15    26    29    1
    16    34    30   ar
    17    34    33   ar
    18    30    31   ar
    19    33    14   ar
    20    29    35   am
    21    31    32   ar
    22    44    43    1
    23    37    35    2
    24    35    36    1
    25    14    32   ar
    26    46    43    1
    27    38    36    1
    28    38    39    1
    29    36    24    1
    30    43    45    1
    31    43    42    1
    32    40    39   am
    33    40    42    1
    34    39    41    2
    35    24    11   am
    36    13    11    2
    37    11    10    1
    38    10    12    2
    39    10     4    1
    40     4     3    2
    41     4     5    1
    42     3     2    1
    43     5     6    2
    44     5     1    1
    45     2     1    2
    46     6     7    1
    47     1     9    1
    48     7     8    2
    49     9     8    1
