@<TRIPOS>MOLECULE
3mg9_3MY_B_1.pdb
 13 13 0 0 0
SMALL
GASTEIGER

@<TRIPOS>ATOM
      1  OBD      -32.8440    4.6750   11.5510 O.3   388  3MY388     -0.2857
      2  CZ       -33.4160    3.8260   12.4880 C.ar  388  3MY388      0.2061
      3  CE2      -33.7050    4.3180   13.7880 C.ar  388  3MY388      0.0962
      4  CD2      -34.2790    3.4610   14.7440 C.ar  388  3MY388      0.0104
      5 CL        -33.3340    5.9590   14.1980 Cl    388  3MY388     -0.0789
      6  CE1      -33.7180    2.4700   12.1330 C.ar  388  3MY388      0.0426
      7  CD1      -34.2980    1.6120   13.0860 C.ar  388  3MY388     -0.0009
      8  CG       -34.5840    2.1030   14.3890 C.ar  388  3MY388     -0.0192
      9  CB       -35.1690    1.1770   15.4300 C.3   388  3MY388      0.0534
     10  CA       -34.1270    0.4170   16.2080 C.3   388  3MY388      0.1605
     11  C        -33.1680    1.3430   16.9250 C.2   388  3MY388      0.2264
     12  O        -33.5840    2.1920   17.6970 O.2   388  3MY388     -0.2867
     13  N        -33.4300   -0.5320   15.3560 N.3   388  3MY388     -0.1241
@<TRIPOS>BOND
     1     1     2    1
     2     6     2   ar
     3     6     7   ar
     4     2     3   ar
     5     7     8   ar
     6     3     5    1
     7     3     4   ar
     8     8     4   ar
     9     8     9    1
    10    13    10    1
    11     9    10    1
    12    10    11    1
    13    11    12    2
