@<TRIPOS>MOLECULE
3mg9_GHP_B_1.pdb
 11 11 0 0 0
SMALL
GASTEIGER

@<TRIPOS>ATOM
      1  N        -33.1260   -4.2840   15.0510 N.3   387  GHP387     -0.1196
      2  CA       -32.6270   -2.9410   14.8820 C.3   387  GHP387      0.1783
      3  C        -33.3270   -1.9150   15.7740 C.2   387  GHP387      0.2306
      4  O        -33.6510   -2.2310   16.9050 O.2   387  GHP387     -0.2863
      5  C1       -31.1070   -2.8370   14.9060 C.ar  387  GHP387      0.0027
      6  C2       -30.4170   -2.5420   16.1710 C.ar  387  GHP387      0.0008
      7  C3       -28.9440   -2.4400   16.2110 C.ar  387  GHP387      0.0418
      8  C4       -28.1710   -2.6520   14.9810 C.ar  387  GHP387      0.1957
      9  O4       -26.7980   -2.5650   15.0230 O.3   387  GHP387     -0.2866
     10  C5       -28.8630   -2.9520   13.7130 C.ar  387  GHP387      0.0418
     11  C6       -30.3320   -3.0460   13.6720 C.ar  387  GHP387      0.0008
@<TRIPOS>BOND
     1    11    10   ar
     2    11     5   ar
     3    10     8   ar
     4     2     5    1
     5     2     1    1
     6     2     3    1
     7     5     6   ar
     8     8     9    1
     9     8     7   ar
    10     3     4    2
    11     6     7   ar
