@<TRIPOS>MOLECULE
3mg9_3FG_B_1.pdb
 12 12 0 0 0
SMALL
GASTEIGER

@<TRIPOS>ATOM
      1  N        -31.7950    1.3960   16.5090 N.3   389  3FG389     -0.1196
      2  OD1      -28.3740    0.8570   21.4050 O.3   389  3FG389     -0.2865
      3  CD1      -28.7530    0.5800   20.1030 C.ar  389  3FG389      0.1987
      4  CG1      -29.5980    1.5400   19.3770 C.ar  389  3FG389      0.0398
      5  CZ       -28.3050   -0.6690   19.4310 C.ar  389  3FG389      0.0840
      6  CD2      -28.6890   -0.9660   18.0440 C.ar  389  3FG389      0.1987
      7  OD2      -28.2560   -2.1680   17.4180 O.3   389  3FG389     -0.2865
      8  CG2      -29.5050   -0.0310   17.3380 C.ar  389  3FG389      0.0398
      9  CB       -29.9620    1.2440   18.0330 C.ar  389  3FG389      0.0089
     10  CA       -30.8340    2.1800   17.2450 C.3   389  3FG389      0.1785
     11  C        -30.0090    3.1450   16.3690 C.2   389  3FG389      0.2306
     12  O        -29.4560    4.1040   16.8790 O.2   389  3FG389     -0.2863
@<TRIPOS>BOND
     1    11    12    2
     2    11    10    1
     3     1    10    1
     4    10     9    1
     5     8     9   ar
     6     8     6   ar
     7     7     6    1
     8     9     4   ar
     9     6     5   ar
    10     4     3   ar
    11     5     3   ar
    12     3     2    1
