@<TRIPOS>MOLECULE
3mg9_OMY_B_1.pdb
 14 14 0 0 0
SMALL
GASTEIGER

@<TRIPOS>ATOM
      1  N        -23.2380    4.1500   11.6990 N.3   392  OMY392     -0.1214
      2  CA       -22.9910    2.9460   10.9930 C.3   392  OMY392      0.1905
      3  OCZ      -28.4660    5.0180    9.2360 O.3   392  OMY392     -0.2857
      4  CE2      -26.1000    5.5360    9.2710 C.ar  392  OMY392      0.0427
      5  CE1      -26.8860    3.1370    9.2850 C.ar  392  OMY392      0.0962
      6  CZ       -27.1600    4.5700    9.2630 C.ar  392  OMY392      0.2061
      7  CG       -24.4990    3.6710    9.3080 C.ar  392  OMY392      0.0106
      8  CD2      -24.7720    5.0980    9.3010 C.ar  392  OMY392      0.0016
      9  CD1      -25.5580    2.7010    9.3210 C.ar  392  OMY392      0.0128
     10  CB       -23.0860    3.2000    9.4990 C.3   392  OMY392      0.1992
     11 CL        -28.1790    1.9720    9.2590 Cl    392  OMY392     -0.0789
     12  O        -20.9510    3.0000   12.1860 O.2   392  OMY392     -0.2866
     13  C        -21.6830    2.3490   11.4580 C.2   392  OMY392      0.2290
     14  ODE      -22.1400    4.0780    9.0010 O.3   392  OMY392     -0.2162
@<TRIPOS>BOND
     1    14    10    1
     2     3     6    1
     3    11     5    1
     4     6     4   ar
     5     6     5   ar
     6     4     8   ar
     7     5     9   ar
     8     8     7   ar
     9     7     9   ar
    10     7    10    1
    11    10     2    1
    12     2    13    1
    13     2     1    1
    14    13    12    2
