@<TRIPOS>MOLECULE
3mgb_PAP_A_1.pdb
 27 29 0 0 0
SMALL
GASTEIGER

@<TRIPOS>ATOM
      1  PA        -2.1860  -45.3160  -11.7670 P.3   286  PAP286      0.5327
      2  O1A       -2.9050  -46.2240  -10.7960 O.3   286  PAP286     -0.1145
      3  O2A       -0.6970  -45.2430  -11.6680 O.3   286  PAP286     -0.1145
      4  O3A       -2.8140  -43.8440  -11.6910 O.2   286  PAP286     -0.2224
      5  O5'       -2.5480  -45.8390  -13.2460 O.3   286  PAP286     -0.2675
      6  C5'       -3.8170  -45.6170  -13.8370 C.3   286  PAP286      0.1859
      7  C4'       -3.7720  -46.4060  -15.1390 C.3   286  PAP286      0.1796
      8  O4'       -3.6350  -47.8050  -14.8160 O.3   286  PAP286     -0.3136
      9  C3'       -5.0320  -46.2430  -15.9800 C.3   286  PAP286      0.1928
     10  O3'       -4.6750  -46.3650  -17.3650 O.3   286  PAP286     -0.2673
     11  P         -5.6180  -45.8540  -18.5960 P.3   286  PAP286      0.5327
     12  O1        -4.6510  -45.7050  -19.7410 O.2   286  PAP286     -0.2224
     13  O2        -6.6390  -46.9460  -18.7930 O.3   286  PAP286     -0.1145
     14  O3        -6.1850  -44.5680  -18.0720 O.3   286  PAP286     -0.1145
     15  C2'       -5.8060  -47.4520  -15.5120 C.3   286  PAP286      0.2543
     16  O2'       -6.8800  -47.8240  -16.3820 O.3   286  PAP286     -0.2131
     17  C1'       -4.7100  -48.5030  -15.4230 C.3   286  PAP286      0.3185
     18  N9        -5.2560  -49.6740  -14.7150 N.pl3 286  PAP286     -0.1439
     19  C8        -6.1040  -49.6470  -13.6770 C.3   286  PAP286      0.3377
     20  N7        -6.4500  -50.9010  -13.3270 N.2   286  PAP286     -0.2095
     21  C5        -5.8270  -51.7390  -14.1740 C.2   286  PAP286      0.2526
     22  C6        -5.7630  -53.1980  -14.3480 C.2   286  PAP286      0.4393
     23  N6        -6.4750  -54.0100  -13.5270 N.pl3 286  PAP286      0.2180
     24  N1        -4.9920  -53.6690  -15.3510 N.2   286  PAP286      0.0021
     25  C2        -4.2880  -52.8680  -16.1760 C.3   286  PAP286      0.5254
     26  N3        -4.3040  -51.5210  -16.0750 N.2   286  PAP286     -0.0055
     27  C4        -5.0460  -50.9250  -15.0970 C.2   286  PAP286      0.3518
@<TRIPOS>BOND
     1    12    11    2
     2    13    11    1
     3    11    14    1
     4    11    10    1
     5    10     9    1
     6    16    15    1
     7    25    26    1
     8    25    24    1
     9    26    27    2
    10     9    15    1
    11     9     7    1
    12    15    17    1
    13    17     8    1
    14    17    18    1
    15    24    22    2
    16     7     8    1
    17     7     6    1
    18    27    18    1
    19    27    21    1
    20    18    19    1
    21    22    21    1
    22    22    23    1
    23    21    20    2
    24     6     5    1
    25    19    20    1
    26     5     1    1
    27     1     4    2
    28     1     3    1
    29     1     2    1
