@<TRIPOS>MOLECULE
3mgb_3FG_C_1.pdb
 12 12 0 0 0
SMALL
GASTEIGER

@<TRIPOS>ATOM
      1  N        -20.5980  -41.8150  -13.7380 N.3   389  3FG389     -0.1196
      2  OD1      -23.6080  -37.6250  -10.5000 O.3   389  3FG389     -0.2865
      3  CD1      -23.3530  -38.4220  -11.5960 C.ar  389  3FG389      0.1987
      4  CG1      -22.4930  -39.6110  -11.4710 C.ar  389  3FG389      0.0398
      5  CZ       -23.9500  -38.0730  -12.9030 C.ar  389  3FG389      0.0840
      6  CD2      -23.6850  -38.9140  -14.0730 C.ar  389  3FG389      0.1987
      7  OD2      -24.2290  -38.5160  -15.3080 O.3   389  3FG389     -0.2865
      8  CG2      -22.8500  -40.0700  -13.9660 C.ar  389  3FG389      0.0398
      9  CB       -22.2480  -40.4230  -12.6170 C.ar  389  3FG389      0.0089
     10  CA       -21.3640  -41.6520  -12.5190 C.3   389  3FG389      0.1785
     11  C        -22.1010  -42.9200  -12.0480 C.2   389  3FG389      0.2306
     12  O        -22.7180  -42.9370  -10.9990 O.2   389  3FG389     -0.2863
@<TRIPOS>BOND
     1     7     6    1
     2     6     8   ar
     3     6     5   ar
     4     8     9   ar
     5     1    10    1
     6     5     3   ar
     7     9    10    1
     8     9     4   ar
     9    10    11    1
    10    11    12    2
    11     3     4   ar
    12     3     2    1
