@<TRIPOS>MOLECULE
3mgb_3MY_C_1.pdb
 13 13 0 0 0
SMALL
GASTEIGER

@<TRIPOS>ATOM
      1  OBD      -19.0030  -47.4570  -14.3560 O.3   388  3MY388     -0.2857
      2  CZ       -18.5770  -46.1620  -14.5810 C.ar  388  3MY388      0.2061
      3  CE2      -17.9460  -45.4310  -13.5400 C.ar  388  3MY388      0.0962
      4  CD2      -17.5610  -44.0990  -13.7520 C.ar  388  3MY388      0.0104
      5 CL        -17.6610  -46.1350  -11.9890 Cl    388  3MY388     -0.0789
      6  CE1      -18.8150  -45.5520  -15.8530 C.ar  388  3MY388      0.0426
      7  CD1      -18.4110  -44.2170  -16.0700 C.ar  388  3MY388     -0.0009
      8  CG       -17.7880  -43.4830  -15.0210 C.ar  388  3MY388     -0.0192
      9  CB       -17.4010  -42.0280  -15.1890 C.3   388  3MY388      0.0534
     10  CA       -18.5420  -41.0450  -15.0780 C.3   388  3MY388      0.1605
     11  C        -19.3290  -41.1650  -13.7830 C.2   388  3MY388      0.2264
     12  O        -18.8940  -40.7510  -12.7230 O.2   388  3MY388     -0.2867
     13  N        -19.3940  -41.1520  -16.2430 N.3   388  3MY388     -0.1241
@<TRIPOS>BOND
     1    13    10    1
     2     7     6   ar
     3     7     8   ar
     4     6     2   ar
     5     9    10    1
     6     9     8    1
     7    10    11    1
     8     8     4   ar
     9     2     1    1
    10     2     3   ar
    11    11    12    2
    12     4     3   ar
    13     3     5    1
