@<TRIPOS>MOLECULE
3mgb_OMY_C_1.pdb
 14 14 0 0 0
SMALL
GASTEIGER

@<TRIPOS>ATOM
      1  N        -27.8420  -48.5100  -11.5900 N.3   392  OMY392     -0.1214
      2  CA       -28.7260  -48.1580  -12.6390 C.3   392  OMY392      0.1905
      3  OCZ      -23.4530  -49.4240  -15.3520 O.3   392  OMY392     -0.2857
      4  CE2      -25.1840  -50.4280  -14.0040 C.ar  392  OMY392      0.0427
      5  CE1      -25.6970  -48.4740  -15.5130 C.ar  392  OMY392      0.0962
      6  CZ       -24.7700  -49.4510  -14.9590 C.ar  392  OMY392      0.2061
      7  CG       -27.4530  -49.4530  -14.1430 C.ar  392  OMY392      0.0106
      8  CD2      -26.5210  -50.4180  -13.5810 C.ar  392  OMY392      0.0016
      9  CD1      -27.0270  -48.4670  -15.0850 C.ar  392  OMY392      0.0128
     10  CB       -28.8430  -49.3390  -13.5890 C.3   392  OMY392      0.1992
     11 CL        -25.1860  -47.3120  -16.7140 Cl    392  OMY392     -0.0789
     12  O        -30.4020  -48.0370  -10.9510 O.2   392  OMY392     -0.2866
     13  C        -30.0360  -47.6670  -12.0580 C.2   392  OMY392      0.2290
     14  ODE      -29.2890  -50.5110  -12.9870 O.3   392  OMY392     -0.2162
@<TRIPOS>BOND
     1    11     5    1
     2     5     9   ar
     3     5     6   ar
     4     3     6    1
     5     9     7   ar
     6     6     4   ar
     7     7    10    1
     8     7     8   ar
     9     4     8   ar
    10    10    14    1
    11    10     2    1
    12     2    13    1
    13     2     1    1
    14    13    12    2
