@<TRIPOS>MOLECULE
3mgb_GHP_C_1.pdb
 11 11 0 0 0
SMALL
GASTEIGER

@<TRIPOS>ATOM
      1  N        -20.1280  -39.0660  -19.3200 N.3   387  GHP387     -0.1196
      2  CA       -20.4230  -40.0570  -18.3260 C.3   387  GHP387      0.1783
      3  C        -19.4940  -39.9980  -17.1180 C.2   387  GHP387      0.2306
      4  O        -19.0750  -38.9070  -16.7460 O.2   387  GHP387     -0.2863
      5  C1       -21.8850  -40.0510  -17.9380 C.ar  387  GHP387      0.0027
      6  C2       -22.3170  -39.2750  -16.7670 C.ar  387  GHP387      0.0008
      7  C3       -23.7450  -39.2590  -16.4040 C.ar  387  GHP387      0.0418
      8  C4       -24.7200  -39.9910  -17.2220 C.ar  387  GHP387      0.1957
      9  O4       -26.0500  -39.9570  -16.8690 O.3   387  GHP387     -0.2866
     10  C5       -24.2790  -40.7570  -18.3980 C.ar  387  GHP387      0.0418
     11  C6       -22.8570  -40.7930  -18.7560 C.ar  387  GHP387      0.0008
@<TRIPOS>BOND
     1     1     2    1
     2    11    10   ar
     3    11     5   ar
     4    10     8   ar
     5     2     5    1
     6     2     3    1
     7     5     6   ar
     8     8     9    1
     9     8     7   ar
    10     3     4    2
    11     6     7   ar
