@<TRIPOS>MOLECULE
3mgc_PME_A_1.pdb
 21 21 0 0 0
SMALL
GASTEIGER

@<TRIPOS>ATOM
      1  N1       -17.7470   16.3030   19.0920 N.3   290  PME290     -0.1225
      2  C2       -19.1000   16.1870   19.5480 C.3   290  PME290      0.1805
      3  C3       -19.3040   14.8530   20.2720 C.3   290  PME290      0.1424
      4  C4       -18.7530   13.6830   19.5060 C.2   290  PME290      0.3668
      5  O5       -18.0930   13.8930   18.4470 O.co2 290  PME290     -0.2456
      6  O6       -18.9830   12.5480   19.9990 O.co2 290  PME290     -0.2456
      7  C7       -19.3180   17.3810   20.4360 C.2   290  PME290      0.2598
      8  O8       -18.7470   18.3970   20.1070 O.2   290  PME290     -0.2718
      9  N9       -20.2180   17.2670   21.4260 N.am  290  PME290     -0.1942
     10  C10      -21.0140   18.3530   21.9860 C.3   290  PME290      0.1978
     11  C11      -21.8650   17.8210   23.1430 C.3   290  PME290      0.0594
     12  C12      -22.5940   16.4970   22.8660 C.ar  290  PME290     -0.0199
     13  C13      -21.9610   15.2750   23.1330 C.ar  290  PME290     -0.0042
     14  C14      -22.5950   14.0480   22.9070 C.ar  290  PME290     -0.0003
     15  C15      -23.9010   14.0360   22.4170 C.ar  290  PME290     -0.0000
     16  C16      -24.5590   15.2570   22.1510 C.ar  290  PME290     -0.0003
     17  C17      -23.9100   16.4840   22.3810 C.ar  290  PME290     -0.0042
     18  C18      -20.2470   19.5300   22.5190 C.2   290  PME290      0.3374
     19  O19      -19.3450   20.0440   21.8530 O.2   290  PME290     -0.2482
     20  O20      -20.5830   20.0980   23.8440 O.3   290  PME290     -0.4432
     21  C21      -20.0070   21.3910   24.1570 C.3   290  PME290      0.2557
@<TRIPOS>BOND
     1     5     4   ar
     2     1     2    1
     3     4     6   ar
     4     4     3    1
     5     2     3    1
     6     2     7    1
     7     8     7    2
     8     7     9   am
     9     9    10    1
    10    19    18    2
    11    10    18    1
    12    10    11    1
    13    16    17   ar
    14    16    15   ar
    15    17    12   ar
    16    15    14   ar
    17    18    20    1
    18    12    13   ar
    19    12    11    1
    20    14    13   ar
    21    20    21    1
