@<TRIPOS>MOLECULE
3mgi_D3T_A_1.pdb
 28 29 0 0 0
SMALL
GASTEIGER

@<TRIPOS>ATOM
      1  PA        16.2200   23.2590   14.7040 P.3   576  D3T576      0.2189
      2  O1A       17.0420   24.3630   13.7980 O.2   576  D3T576     -0.5170
      3  O2A       15.8260   22.1190   13.8880 O.3   576  D3T576     -0.4371
      4  O5'       14.8720   23.9890   15.2940 O.3   576  D3T576     -0.3113
      5  C5'       15.0050   25.1750   16.0200 C.3   576  D3T576      0.1785
      6  C4'       14.2240   25.2280   17.3280 C.3   576  D3T576      0.1472
      7  O4'       12.7950   24.8340   17.1740 O.3   576  D3T576     -0.3366
      8  C1'       12.3880   24.1090   18.4000 C.3   576  D3T576      0.2063
      9  N1        11.9730   22.7600   18.0650 N.am  576  D3T576     -0.1795
     10  C6        12.6650   22.0600   17.0290 C.2   576  D3T576      0.0877
     11  C2        10.8560   22.1630   18.8080 C.1   576  D3T576      0.2844
     12  O2        10.1900   22.8600   19.8130 O.2   576  D3T576     -0.1918
     13  N3        10.4170   20.6700   18.4170 N.2   576  D3T576     -0.2455
     14  C4        11.1950   19.9290   17.2760 C.1   576  D3T576      0.2134
     15  O4        10.8430   18.6240   16.9090 O.2   576  D3T576     -0.2088
     16  C5        12.3180   20.6920   16.6210 C.2   576  D3T576      0.0891
     17  C5M       13.1290   20.0470   15.5010 C.3   576  D3T576      0.0462
     18  C2'       13.5910   24.0650   19.2990 C.3   576  D3T576      0.0545
     19  C3'       14.7350   24.3190   18.4330 C.3   576  D3T576      0.0366
     20  O3A       17.1400   22.7100   15.9530 O.3   576  D3T576     -0.2700
     21  PB        18.4960   23.5050   16.4410 P.3   576  D3T576      0.2277
     22  O1B       18.5470   25.0120   15.7870 O.2   576  D3T576     -0.5168
     23  O2B       18.4790   23.5970   17.8930 O.3   576  D3T576     -0.4368
     24  O3B       19.8240   22.6390   16.0080 O.3   576  D3T576     -0.2258
     25  PG        20.3770   22.7060   14.4620 P.3   576  D3T576      0.5373
     26  O1G       21.8340   23.4690   14.4550 O.3   576  D3T576     -0.1143
     27  O2G       20.5320   21.1690   13.8880 O.3   576  D3T576     -0.1143
     28  O3G       19.4360   23.4380   13.6270 O.2   576  D3T576     -0.2221
@<TRIPOS>BOND
     1    28    25    2
     2     2     1    2
     3     3     1    1
     4    27    25    1
     5    26    25    1
     6    25    24    1
     7     1     4    1
     8     1    20    1
     9     4     5    1
    10    17    16    1
    11    22    21    2
    12    20    21    1
    13    24    21    1
    14     5     6    1
    15    21    23    1
    16    16    10    2
    17    16    14    1
    18    15    14    2
    19    10     9    1
    20     7     6    1
    21     7     8    1
    22    14    13    2
    23     6    19    1
    24     9     8    1
    25     9    11   am
    26     8    18    1
    27    13    11    2
    28    19    18    1
    29    11    12    2
