@<TRIPOS>MOLECULE
3mgn_DPN_G_1.pdb
 11 11 0 0 0
SMALL
GASTEIGER

@<TRIPOS>ATOM
      1  N         43.3040    5.5670   59.6240 N.3     3  DPN3       -0.1241
      2  CA        43.7810    5.2280   60.9980 C.3     3  DPN3        0.1605
      3  C         43.3710    6.2980   62.0070 C.2     3  DPN3        0.2264
      4  O         42.2290    6.7620   61.9760 O.2     3  DPN3       -0.2867
      5  CB        43.2400    3.8630   61.4410 C.3     3  DPN3        0.0534
      6  CG        43.5340    2.7450   60.4770 C.ar    3  DPN3       -0.0203
      7  CD1       42.5340    2.2450   59.6510 C.ar    3  DPN3       -0.0042
      8  CD2       44.8070    2.1870   60.4020 C.ar    3  DPN3       -0.0042
      9  CE1       42.7980    1.2050   58.7570 C.ar    3  DPN3       -0.0003
     10  CE2       45.0820    1.1480   59.5130 C.ar    3  DPN3       -0.0003
     11  CZ        44.0740    0.6560   58.6890 C.ar    3  DPN3       -0.0000
@<TRIPOS>BOND
     1    11     9   ar
     2    11    10   ar
     3     9     7   ar
     4    10     8   ar
     5     1     2    1
     6     7     6   ar
     7     8     6   ar
     8     6     5    1
     9     2     5    1
    10     2     3    1
    11     4     3    2
