@<TRIPOS>MOLECULE
3mgn_DTR_G_1.pdb
 14 15 0 0 0
SMALL
GASTEIGER

@<TRIPOS>ATOM
      1  N         35.3960    1.2980   67.5760 N.3     9  DTR9       -0.1241
      2  CA        35.5900    0.9530   66.1680 C.3     9  DTR9        0.1602
      3  CB        37.0710    0.6640   65.9010 C.3     9  DTR9        0.0513
      4  CG        37.5040   -0.6630   66.4060 C.2     9  DTR9       -0.0140
      5  CD1       38.3730   -0.9060   67.4310 C.2     9  DTR9        0.0907
      6  NE1       38.5190   -2.2570   67.6160 N.2     9  DTR9       -0.2482
      7  CE2       37.7420   -2.9190   66.7020 C.2     9  DTR9        0.0665
      8  CZ2       37.5610   -4.2870   66.4970 C.2     9  DTR9        0.0153
      9  CH2       36.7070   -4.6700   65.4950 C.2     9  DTR9        0.0009
     10  CZ3       36.0360   -3.7230   64.7020 C.2     9  DTR9       -0.0038
     11  CE3       36.2150   -2.3630   64.9070 C.2     9  DTR9       -0.0164
     12  CD2       37.0830   -1.9440   65.9230 C.3     9  DTR9        0.0819
     13  C         35.1010    2.0440   65.2190 C.2     9  DTR9        0.2264
     14  O         35.3710    1.9980   64.0140 O.2     9  DTR9       -0.2867
@<TRIPOS>BOND
     1    14    13    2
     2    10    11    2
     3    10     9    1
     4    11    12    1
     5    13     2    1
     6     9     8    2
     7     3     2    1
     8     3     4    1
     9    12     4    1
    10    12     7    1
    11     2     1    1
    12     4     5    2
    13     8     7    1
    14     7     6    2
    15     5     6    1
