@<TRIPOS>MOLECULE
3mgx_HEM_A_1.pdb
 43 50 0 0 0
SMALL
GASTEIGER

@<TRIPOS>ATOM
      1  CHA       43.7720   13.0450   44.1840 C.2   397  HEM397      0.0000
      2  CHB       42.3280   11.3680   39.8550 C.2   397  HEM397      0.0000
      3  CHC       45.7170    7.8920   40.0570 C.2   397  HEM397      0.0000
      4  CHD       46.5900    9.0760   44.6840 C.2   397  HEM397      0.0000
      5  C1A       43.1350   12.9400   42.9660 C.ar  397  HEM397      0.0000
      6  C2A       42.2080   13.9000   42.4030 C.ar  397  HEM397      0.0000
      7  C3A       41.8070   13.4430   41.2070 C.ar  397  HEM397      0.0000
      8  C4A       42.4670   12.1730   40.9700 C.ar  397  HEM397      0.0000
      9  CMA       40.8150   14.1420   40.2460 C.3   397  HEM397      0.0000
     10  CAA       41.7770   15.2230   43.0770 C.3   397  HEM397      0.0000
     11  CBA       40.5420   15.0180   43.9460 C.3   397  HEM397      0.0000
     12  CGA       39.9100   16.3520   44.2610 C.2   397  HEM397      0.0000
     13  O1A       39.1420   16.4280   45.2540 O.co2 397  HEM397      0.0000
     14  O2A       40.1580   17.3410   43.5210 O.co2 397  HEM397      0.0000
     15  C1B       43.1170   10.2880   39.5100 C.2   397  HEM397      0.0000
     16  C2B       43.0440    9.5170   38.2830 C.2   397  HEM397      0.0000
     17  C3B       43.9830    8.5560   38.3360 C.2   397  HEM397      0.0000
     18  C4B       44.6800    8.6840   39.6020 C.2   397  HEM397      0.0000
     19  CMB       42.0420    9.7910   37.1380 C.3   397  HEM397      0.0000
     20  CAB       44.2940    7.4710   37.2740 C.2   397  HEM397      0.0000
     21  CBB       44.5370    7.7760   35.9960 C.2   397  HEM397      0.0000
     22  C1C       46.2830    7.9230   41.3180 C.ar  397  HEM397      0.0000
     23  C2C       47.3970    7.1200   41.7900 C.ar  397  HEM397      0.0000
     24  C3C       47.6290    7.4450   43.0710 C.ar  397  HEM397      0.0000
     25  C4C       46.6780    8.4710   43.4490 C.ar  397  HEM397      0.0000
     26  CMC       48.1670    6.0680   40.9540 C.3   397  HEM397      0.0000
     27  CAC       48.7260    6.8640   44.0000 C.2   397  HEM397      0.0000
     28  CBC       48.7580    5.5720   44.3340 C.2   397  HEM397      0.0000
     29  C1D       45.9690   10.2690   44.9860 C.2   397  HEM397      0.0000
     30  C2D       46.1100   10.9970   46.2320 C.2   397  HEM397      0.0000
     31  C3D       45.2270   12.2400   46.0750 C.2   397  HEM397      0.0000
     32  C4D       44.6430   12.1370   44.7530 C.2   397  HEM397      0.0000
     33  CMD       46.9680   10.6090   47.4600 C.3   397  HEM397      0.0000
     34  CAD       45.0140   13.3640   47.1130 C.3   397  HEM397      0.0000
     35  CBD       45.8390   14.5780   46.6980 C.3   397  HEM397      0.0000
     36  CGD       45.5350   15.7790   47.5600 C.2   397  HEM397      0.0000
     37  O1D       44.4340   15.8440   48.1690 O.co2 397  HEM397      0.0000
     38  O2D       46.4040   16.6850   47.6310 O.co2 397  HEM397      0.0000
     39  NA        43.2680   11.9010   42.0650 N.ar  397  HEM397      0.0000
     40  NB        44.1230    9.7470   40.2830 N.2   397  HEM397      0.0000
     41  NC        45.8720    8.7350   42.3600 N.ar  397  HEM397      0.0000
     42  ND        45.1050   10.9700   44.1520 N.2   397  HEM397      0.0000
     43 FE         44.7230   10.4430   42.1400 Fe    397  HEM397      0.0000
@<TRIPOS>BOND
     1    21    20    2
     2    19    16    1
     3    20    17    1
     4    16    17    2
     5    16    15    1
     6    17    18    1
     7    15     2    1
     8    15    40    2
     9    18     3    2
    10    18    40    1
    11     2     8    2
    12     3    22    1
    13     9     7    1
    14    40    43    1
    15    26    23    1
    16     8     7   ar
    17     8    39   ar
    18     7     6   ar
    19    22    23   ar
    20    22    41   ar
    21    23    24   ar
    22    39    43    1
    23    39     5   ar
    24    43    41    1
    25    43    42    1
    26    41    25   ar
    27     6     5   ar
    28     6    10    1
    29     5     1    2
    30    24    25   ar
    31    24    27    1
    32    10    11    1
    33    25     4    1
    34    14    12   ar
    35    11    12    1
    36    27    28    2
    37    42    32    2
    38    42    29    1
    39     1    32    1
    40    12    13   ar
    41     4    29    2
    42    32    31    1
    43    29    30    1
    44    31    30    2
    45    31    34    1
    46    30    33    1
    47    35    34    1
    48    35    36    1
    49    36    38   ar
    50    36    37   ar
