@<TRIPOS>MOLECULE
3mh5_DFP_A_1.pdb
 10 9 0 0 0
SMALL
GASTEIGER

@<TRIPOS>ATOM
      1  C1        51.1880   28.2610   32.9960 C.3   500  DFP500      0.1236
      2  C2        51.2660   26.7810   32.5460 C.3   500  DFP500      0.0325
      3  C3        50.6010   29.2450   31.9110 C.3   500  DFP500      0.0325
      4  C1'       51.6300   31.2210   35.6310 C.3   500  DFP500      0.1236
      5  C2'       51.6730   32.6270   34.9780 C.3   500  DFP500      0.0325
      6  C3'       51.6930   31.3190   37.1550 C.3   500  DFP500      0.0325
      7  P         52.9120   28.9030   34.8770 P.3   500  DFP500      0.3659
      8  O1P       52.5220   28.6490   33.3570 O.3   500  DFP500     -0.2993
      9  O2P       52.7740   30.4880   35.1690 O.3   500  DFP500     -0.2993
     10  O3P       54.3420   28.4480   35.1200 O.3   500  DFP500     -0.1446
@<TRIPOS>BOND
     1     3     1    1
     2     2     1    1
     3     1     8    1
     4     8     7    1
     5     7    10    1
     6     7     9    1
     7     5     4    1
     8     9     4    1
     9     4     6    1
