@<TRIPOS>MOLECULE
3mh6_DFP_A_1.pdb
 10 9 0 0 0
SMALL
GASTEIGER

@<TRIPOS>ATOM
      1  C1        48.6610   40.5590   25.4470 C.3   500  DFP500      0.1236
      2  C2        49.3280   39.3740   24.7330 C.3   500  DFP500      0.0325
      3  C3        48.9540   41.9470   24.8320 C.3   500  DFP500      0.0325
      4  C1'       49.6390   39.2640   29.5970 C.3   500  DFP500      0.1236
      5  C2'       49.5870   38.3550   28.3860 C.3   500  DFP500      0.0325
      6  C3'       48.5850   38.9310   30.6500 C.3   500  DFP500      0.0325
      7  P         49.8400   41.2270   27.7750 P.3   500  DFP500      0.3659
      8  O1P       48.6810   40.4740   26.8620 O.3   500  DFP500     -0.2993
      9  O2P       49.7300   40.6430   29.3200 O.3   500  DFP500     -0.2993
     10  O3P       49.5040   42.6440   27.8420 O.3   500  DFP500     -0.1446
@<TRIPOS>BOND
     1     2     1    1
     2     3     1    1
     3     1     8    1
     4     8     7    1
     5     7    10    1
     6     7     9    1
     7     5     4    1
     8     9     4    1
     9     4     6    1
