@<TRIPOS>MOLECULE
3mh7_III_B_1.pdb
 26 25 0 0 0
SMALL
GASTEIGER

@<TRIPOS>ATOM
      1  N         43.2190   27.4770   32.8290 N.3   102  UNK102     -0.1231
      2  CA        43.8470   27.5830   31.5060 C.3   102  UNK102      0.1694
      3  C         44.7510   28.8220   31.3560 C.2   102  UNK102      0.2592
      4  O         44.3030   29.9590   31.5620 O.2   102  UNK102     -0.2718
      5  CB        42.7760   27.5490   30.3950 C.3   102  UNK102      0.0304
      6  N         46.0220   28.5940   31.0120 N.am  103  UNK103     -0.1966
      7  CA        46.9560   29.6910   30.7210 C.3   103  UNK103      0.1728
      8  C         46.5540   30.4050   29.4270 C.2   103  UNK103      0.2616
      9  O         46.1830   29.7680   28.4360 O.2   103  UNK103     -0.2715
     10  CB        48.4250   29.1910   30.6490 C.3   103  UNK103      0.0334
     11  N         46.6040   31.7320   29.4630 N.am  104  UNK104     -0.1963
     12  CA        46.2100   32.5710   28.3370 C.3   104  UNK104      0.1728
     13  C         47.2730   33.6590   28.1580 C.2   104  UNK104      0.2616
     14  O         47.6130   34.3780   29.1080 O.2   104  UNK104     -0.2715
     15  CB        44.7960   33.1970   28.5850 C.3   104  UNK104      0.0334
     16  N         47.8430   33.7480   26.9600 N.am  105  UNK105     -0.1963
     17  CA        48.7620   34.8380   26.6460 C.3   105  UNK105      0.1728
     18  C         47.9340   36.1390   26.4950 C.2   105  UNK105      0.2617
     19  O         46.9660   36.1870   25.7280 O.2   105  UNK105     -0.2715
     20  CB        49.5550   34.5110   25.3750 C.3   105  UNK105      0.0334
     21  N         48.2680   37.1730   27.2630 N.am  106  UNK106     -0.1942
     22  CA        47.4160   38.3680   27.3100 C.3   106  UNK106      0.1979
     23  C         47.6710   39.3480   26.1320 C.2   106  UNK106      0.3842
     24  O         47.9240   38.9510   24.9720 O.co2 106  UNK106     -0.2437
     25  CB        47.5260   39.0820   28.6870 C.3   106  UNK106      0.0356
     26  OXT       47.6170   40.5810   26.3130 O.co2 106  UNK106     -0.2437
@<TRIPOS>BOND
     1    24    23   ar
     2    20    17    1
     3    19    18    2
     4    23    26   ar
     5    23    22    1
     6    18    17    1
     7    18    21   am
     8    17    16    1
     9    16    13   am
    10    21    22    1
    11    22    25    1
    12    13    12    1
    13    13    14    2
    14    12    15    1
    15    12    11    1
    16     9     8    2
    17     8    11   am
    18     8     7    1
    19     5     2    1
    20    10     7    1
    21     7     6    1
    22     6     3   am
    23     3     2    1
    24     3     4    2
    25     2     1    1
