@<TRIPOS>MOLECULE
3mhb_THP_A_1.pdb
 25 26 0 0 0
SMALL
GASTEIGER

@<TRIPOS>ATOM
      1  P2        17.9430   11.0520    4.7670 P.3   150  THP150      0.5327
      2  O4P       16.7280   11.7910    5.3550 O.3   150  THP150     -0.1145
      3  O5P       17.9680    9.4990    5.0660 O.2   150  THP150     -0.2224
      4  O6P       19.2100   11.7860    5.2850 O.3   150  THP150     -0.1145
      5  P1        21.2130   14.5360    0.9610 P.3   150  THP150      0.5326
      6  O1P       20.5710   15.5110    1.8760 O.3   150  THP150     -0.1145
      7  O2P       21.9440   13.3940    1.7830 O.3   150  THP150     -0.1145
      8  O3P       22.1470   15.1270   -0.1530 O.2   150  THP150     -0.2224
      9  O5'       17.8460   11.0760    3.2270 O.3   150  THP150     -0.2675
     10  C5'       17.8770   12.4220    2.5650 C.3   150  THP150      0.1857
     11  C4'       18.8790   12.2490    1.3960 C.3   150  THP150      0.1748
     12  O4'       18.5950   11.1770    0.4870 O.3   150  THP150     -0.3340
     13  C3'       18.8270   13.5630    0.5430 C.3   150  THP150      0.1600
     14  O3'       20.1380   13.8650   -0.0410 O.3   150  THP150     -0.2700
     15  C2'       17.9110   13.1210   -0.6310 C.3   150  THP150      0.0847
     16  C1'       18.2050   11.5660   -0.7860 C.3   150  THP150      0.2089
     17  N1        16.9220   10.8660   -1.1720 N.am  150  THP150     -0.1794
     18  C2        16.7040   10.6420   -2.4650 C.1   150  THP150      0.2844
     19  O2        17.5590   10.9770   -3.3390 O.2   150  THP150     -0.1918
     20  N3        15.5620   10.1000   -2.9260 N.2   150  THP150     -0.2455
     21  C4        14.5790    9.7830   -1.9890 C.1   150  THP150      0.2134
     22  O4        13.5110    9.3240   -2.4180 O.2   150  THP150     -0.2088
     23  C5        14.8190   10.0590   -0.6240 C.2   150  THP150      0.0891
     24  C5M       13.7470    9.6680    0.4200 C.3   150  THP150      0.0462
     25  C6        15.9840   10.5650   -0.1810 C.2   150  THP150      0.0877
@<TRIPOS>BOND
     1    19    18    2
     2    20    18    2
     3    20    21    2
     4    18    17   am
     5    22    21    2
     6    21    23    1
     7    17    16    1
     8    17    25    1
     9    16    15    1
    10    16    12    1
    11    15    13    1
    12    23    25    2
    13    23    24    1
    14     8     5    2
    15    14    13    1
    16    14     5    1
    17    12    11    1
    18    13    11    1
    19     5     7    1
    20     5     6    1
    21    11    10    1
    22    10     9    1
    23     9     1    1
    24     1     3    2
    25     1     4    1
    26     1     2    1
