@<TRIPOS>MOLECULE
3mhc_ARZ_A_1.pdb
 22 25 0 0 0
SMALL
GASTEIGER

@<TRIPOS>ATOM
      1  NAA       -5.3240   -0.3420   16.1320 N.3   263  ARZ263      0.0413
      2  OAB       -6.4720    5.7780   13.4580 O.2   263  ARZ263     -0.2730
      3  OAC       -5.2590    1.1530   17.9920 O.2   263  ARZ263     -0.1483
      4  OAD       -7.1990    1.1260   16.5130 O.2   263  ARZ263     -0.1483
      5  CAE       -3.9290    8.1600    9.7660 C.3   263  ARZ263      0.0000
      6  CAF       -6.2900    7.9740    9.2340 C.3   263  ARZ263      0.0000
      7  CAG       -5.4640    9.3840   10.8290 C.3   263  ARZ263      0.0000
      8  CAH       -4.8280    6.4280   10.5470 C.3   263  ARZ263      0.0087
      9  CAI       -3.9970    7.6910   12.0380 C.3   263  ARZ263      0.0087
     10  CAJ       -6.5030    7.6170   11.7280 C.3   263  ARZ263      0.0087
     11  NAK       -3.5310    3.5300   14.8100 N.ar  263  ARZ263     -0.1222
     12  NAL       -3.7320    2.3670   15.6680 N.ar  263  ARZ263     -0.1189
     13  NAM       -4.1090    5.2460   13.6150 N.am  263  ARZ263     -0.1528
     14  SAN       -5.8590    3.4430   14.9650 S.2   263  ARZ263     -0.0087
     15  CAO       -5.3300    5.9360   13.1980 C.2   263  ARZ263      0.2464
     16  CAP       -4.6410    4.2220   14.3480 C.ar  263  ARZ263      0.2093
     17  CAQ       -5.0800    2.2610   15.7990 C.ar  263  ARZ263      0.2590
     18  CAR       -4.9730    7.1910    9.3070 C.3   263  ARZ263      0.0005
     19  CAS       -4.1640    8.8230   11.0960 C.3   263  ARZ263      0.0005
     20  CAT       -6.6230    8.6120   10.6140 C.3   263  ARZ263      0.0005
     21  CAU       -5.2200    6.8700   11.8520 C.3   263  ARZ263      0.0709
     22  SAV       -5.8480    0.8850   16.6140 S.O2  263  ARZ263      0.1178
@<TRIPOS>BOND
     1     6    18    1
     2     6    20    1
     3    18     5    1
     4    18     8    1
     5     5    19    1
     6     8    21    1
     7    20     7    1
     8    20    10    1
     9     7    19    1
    10    19     9    1
    11    10    21    1
    12    21     9    1
    13    21    15    1
    14    15     2    2
    15    15    13   am
    16    13    16    1
    17    16    11   ar
    18    16    14   ar
    19    11    12   ar
    20    14    17   ar
    21    12    17   ar
    22    17    22    1
    23     1    22    1
    24     4    22    2
    25    22     3    2
