@<TRIPOS>MOLECULE
3mhi_J90_A_1.pdb
 22 23 0 0 0
SMALL
GASTEIGER

@<TRIPOS>ATOM
      1  N1        -0.4050    9.0720   14.6540 N.2   263  J90263     -0.1489
      2  C2        -1.5480    8.8020   15.2370 C.3   263  J90263      0.4012
      3  N3        -2.3080    7.8050   14.8250 N.2   263  J90263     -0.0335
      4  C4        -2.0290    7.0040   13.7830 C.2   263  J90263      0.3786
      5  C5        -0.8090    7.2000   13.1290 C.3   263  J90263      0.3767
      6  C6        -0.0310    8.2680   13.6220 C.1   263  J90263      0.1700
      7  N7        -2.8900    5.9360   13.4480 N.pl3 263  J90263     -0.0276
      8  C8        -4.6790    4.6850   14.5560 C.ar  263  J90263      0.0286
      9  C9        -3.7050    3.6680   14.8770 C.ar  263  J90263      0.0012
     10  C10       -4.1170    2.4950   15.6060 C.ar  263  J90263      0.0198
     11  C11       -5.4610    2.3750   15.9280 C.ar  263  J90263      0.1250
     12  C12       -6.3740    3.3590   15.5770 C.ar  263  J90263      0.0198
     13  C13       -6.0120    4.5490   14.8800 C.ar  263  J90263      0.0012
     14  S14       -6.0730    0.9080   16.7700 S.O2  263  J90263      0.0935
     15  O15       -5.4910    0.9830   18.1410 O.2   263  J90263     -0.1503
     16  O16       -7.5600    0.9250   16.6010 O.2   263  J90263     -0.1503
     17  N17       -5.2930   -0.3710   16.0350 N.3   263  J90263      0.0392
     18  N18       -0.3400    6.3410   11.9530 N.pl3 263  J90263      0.0610
     19  O19        0.7460    6.7010   11.6080 O.2   263  J90263     -0.1293
     20  O20       -1.1600    5.5490   11.6860 O.2   263  J90263     -0.1293
     21  O21        1.1570    8.5450   12.9780 O.2   263  J90263     -0.2242
     22  C22       -4.2670    5.9290   13.7680 C.3   263  J90263      0.2775
@<TRIPOS>BOND
     1    19    18    2
     2    20    18    2
     3    18     5    1
     4    21     6    2
     5     5     6    1
     6     5     4    1
     7     7    22    1
     8     7     4    1
     9     6     1    2
    10    22     8    1
    11     4     3    2
    12     8     9   ar
    13     8    13   ar
    14     1     2    1
    15     3     2    1
    16     9    10   ar
    17    13    12   ar
    18    12    11   ar
    19    10    11   ar
    20    11    14    1
    21    17    14    1
    22    16    14    2
    23    14    15    2
