@<TRIPOS>MOLECULE
3mhj_M3F_A_1.pdb
 20 22 0 0 0
SMALL
GASTEIGER

@<TRIPOS>ATOM
      1  CAA       11.3530   45.3340   17.9420 C.3     2  M3F2        0.0279
      2  OAB        7.9940   40.9070   14.3210 O.2     2  M3F2       -0.2086
      3  FAC        7.3650   42.3670   21.0090 F       2  M3F2       -0.1635
      4  FAD        9.0980   41.1160   21.1800 F       2  M3F2       -0.1635
      5  FAE        9.2100   43.1820   21.8900 F       2  M3F2       -0.1635
      6  CAF       10.5610   43.9160   12.7860 C.ar    2  M3F2        0.0007
      7  CAG       11.2450   44.7040   13.7150 C.ar    2  M3F2       -0.0002
      8  CAH        9.6980   42.9430   13.2670 C.ar    2  M3F2        0.0124
      9  CAI       11.0260   44.5480   15.0820 C.ar    2  M3F2       -0.0021
     10  CAJ        9.9790   43.7960   19.3250 C.2     2  M3F2        0.0299
     11  NAK        8.5980   42.0490   18.5650 N.2     2  M3F2       -0.3382
     12  NAL        8.3470   41.5590   16.3860 N.2     2  M3F2       -0.2701
     13  CAM       10.3550   44.1310   18.0380 C.2     2  M3F2       -0.0218
     14  CAN        9.1080   42.7450   19.5740 C.2     2  M3F2        0.2142
     15  CAO        8.6080   41.7040   15.0580 C.1     2  M3F2        0.2137
     16  CAP        9.4790   42.7470   14.6330 C.ar    2  M3F2        0.0928
     17  CAQ        8.9450   42.3500   17.3180 C.1     2  M3F2        0.1327
     18  CAR       10.1290   43.5710   15.5860 C.ar    2  M3F2        0.0091
     19  CAS        9.8520   43.3720   16.9600 C.3     2  M3F2        0.1512
     20  CAT        8.6750   42.3540   20.9730 C.3     2  M3F2        0.4471
@<TRIPOS>BOND
     1     6     8   ar
     2     6     7   ar
     3     8    16   ar
     4     7     9   ar
     5     2    15    2
     6    16    15    1
     7    16    18   ar
     8    15    12    2
     9     9    18   ar
    10    18    19    1
    11    12    17    2
    12    19    17    1
    13    19    13    1
    14    17    11    2
    15     1    13    1
    16    13    10    2
    17    11    14    2
    18    10    14    1
    19    14    20    1
    20    20     3    1
    21    20     4    1
    22    20     5    1
