@<TRIPOS>MOLECULE
3mhk_P4L_A_1.pdb
 17 19 0 0 0
SMALL
GASTEIGER

@<TRIPOS>ATOM
      1  N1       -30.0700   13.1630   -2.6930 N.2     2  P4L2       -0.2685
      2  C2       -30.9290   12.1920   -2.4030 C.1     2  P4L2        0.1672
      3  N3       -32.2210   12.4770   -2.3160 N.2     2  P4L2       -0.3458
      4  C4       -32.7150   13.7150   -2.5180 C.2     2  P4L2        0.1171
      5  C5       -31.8330   14.7490   -2.8470 C.3     2  P4L2        0.1783
      6  C6       -30.4890   14.4050   -2.9010 C.1     2  P4L2        0.1968
      7  O6       -29.5640   15.3310   -3.1550 O.2     2  P4L2       -0.2130
      8  CAB      -29.4220    8.3470   -1.9350 C.ar    2  P4L2        0.0207
      9  CAC      -30.7330    8.6000   -1.5630 C.ar    2  P4L2        0.0039
     10  CAD      -28.6870    9.4060   -2.4640 C.ar    2  P4L2        0.0997
     11  CAE      -31.2540    9.8790   -1.7120 C.ar    2  P4L2        0.0315
     12  CAF      -34.7260   15.2510   -2.3490 C.3     2  P4L2        0.0647
     13  CAG      -34.2270   13.8210   -2.3940 C.3     2  P4L2        0.0682
     14  CAH      -32.2630   16.1740   -3.0930 C.3     2  P4L2        0.0821
     15  NAI      -29.2100   10.6200   -2.5960 N.ar    2  P4L2       -0.2317
     16  SAL      -33.9770   16.2400   -3.6690 S.3     2  P4L2       -0.1382
     17  CAN      -30.4590   10.8970   -2.2140 C.ar    2  P4L2        0.1670
@<TRIPOS>BOND
     1    16    14    1
     2    16    12    1
     3     7     6    2
     4    14     5    1
     5     6     5    1
     6     6     1    2
     7     5     4    1
     8     1     2    2
     9    15    10   ar
    10    15    17   ar
    11     4    13    1
    12     4     3    2
    13    10     8   ar
    14     2     3    2
    15     2    17    1
    16    13    12    1
    17    17    11   ar
    18     8     9   ar
    19    11     9   ar
