@<TRIPOS>MOLECULE
3mhl_J71_A_1.pdb
 23 24 0 0 0
SMALL
GASTEIGER

@<TRIPOS>ATOM
      1  N1        -3.3010    9.8570   11.0590 N.2   265  J71265     -0.1861
      2  C2        -2.4370    9.1480   11.8180 C.3   265  J71265      0.3940
      3  N3        -2.7590    7.9360   12.3130 N.2   265  J71265     -0.0347
      4  C4        -3.9750    7.3920   12.0330 C.2   265  J71265      0.3713
      5  C5        -4.9080    8.1060   11.2010 C.3   265  J71265      0.3476
      6  C6        -4.5270    9.4110   10.6980 C.2   265  J71265      0.2403
      7  N7        -4.2880    6.1130   12.5700 N.pl3 265  J71265     -0.0282
      8  C8        -4.0820    4.3290   14.2150 C.ar  265  J71265      0.0286
      9  C9        -5.4450    4.3270   14.5960 C.ar  265  J71265      0.0012
     10  C10       -5.8950    3.2150   15.3960 C.ar  265  J71265      0.0198
     11  C11       -5.0130    2.1350   15.6740 C.ar  265  J71265      0.1250
     12  C12       -3.6740    2.1640   15.3040 C.ar  265  J71265      0.0198
     13  C13       -3.2290    3.2510   14.5370 C.ar  265  J71265      0.0012
     14  S14       -5.6340    0.8510   16.6480 S.O2  265  J71265      0.0935
     15  O15       -5.1200    0.9100   17.9660 O.2   265  J71265     -0.1503
     16  O16       -7.0900    0.8590   16.4600 O.2   265  J71265     -0.1503
     17  N17       -4.9200   -0.4920   15.9450 N.3   265  J71265      0.0392
     18  N18       -6.2190    7.3910   10.9460 N.pl3 265  J71265      0.0539
     19  O19       -6.2740    6.3990   10.3250 O.2   265  J71265     -0.1300
     20  O20       -7.3770    7.8660   11.3830 O.2   265  J71265     -0.1300
     21  O21       -5.2760   10.3850    9.8140 O.2   265  J71265     -0.4575
     22  C22       -5.7040   11.6980   10.1900 C.3   265  J71265      0.2540
     23  C23       -3.3920    5.4040   13.3930 C.3   265  J71265      0.2775
@<TRIPOS>BOND
     1    21    22    1
     2    21     6    1
     3    19    18    2
     4     6     1    2
     5     6     5    1
     6    18     5    1
     7    18    20    2
     8     1     2    1
     9     5     4    1
    10     2     3    1
    11     4     3    2
    12     4     7    1
    13     7    23    1
    14    23     8    1
    15     8    13   ar
    16     8     9   ar
    17    13    12   ar
    18     9    10   ar
    19    12    11   ar
    20    10    11   ar
    21    11    14    1
    22    17    14    1
    23    16    14    2
    24    14    15    2
