@<TRIPOS>MOLECULE
3mhm_J75_A_1.pdb
 29 31 0 0 0
SMALL
GASTEIGER

@<TRIPOS>ATOM
      1  N1        -3.3430    9.9140   11.1210 N.2   264  J75264     -0.0054
      2  C2        -2.4220    9.2540   11.8640 C.3   264  J75264      0.5248
      3  N3        -2.7350    8.0690   12.4870 N.2   264  J75264     -0.0054
      4  C4        -3.9790    7.5080   12.3820 C.2   264  J75264      0.3769
      5  C5        -4.9710    8.1770   11.5950 C.3   264  J75264      0.3802
      6  C6        -4.6130    9.4050   10.9680 C.2   264  J75264      0.3769
      7  N7        -4.2960    6.2760   13.0470 N.pl3 264  J75264     -0.0280
      8  C8        -4.0140    4.4650   14.6110 C.ar  264  J75264      0.0286
      9  C9        -3.2500    3.3330   14.9720 C.ar  264  J75264      0.0012
     10  C10       -3.8010    2.2330   15.6740 C.ar  264  J75264      0.0198
     11  C11       -5.1670    2.2300   16.0110 C.ar  264  J75264      0.1250
     12  C12       -5.9770    3.3330   15.6380 C.ar  264  J75264      0.0198
     13  C13       -5.4020    4.4190   14.9140 C.ar  264  J75264      0.0012
     14  S14       -5.8090    0.7640   16.8990 S.O2  264  J75264      0.0935
     15  O15       -7.3370    0.8270   16.7110 O.2   264  J75264     -0.1503
     16  O16       -5.3660    0.8300   18.3050 O.2   264  J75264     -0.1503
     17  N17       -5.2500   -0.4930   16.0210 N.3   264  J75264      0.0392
     18  N18       -6.3330    7.6820   11.4330 N.pl3 264  J75264      0.0571
     19  O19       -7.0410    8.1600   10.5750 O.2   264  J75264     -0.1299
     20  O20       -6.8670    6.7860   12.2400 O.2   264  J75264     -0.1299
     21  N21       -5.6140   10.0430   10.1920 N.pl3 264  J75264     -0.0280
     22  C22       -5.4700   11.3370    9.6160 C.3   264  J75264      0.2775
     23  C23       -5.7580   12.6040   10.4040 C.ar  264  J75264      0.0285
     24  C24       -4.7090   13.2770   11.1040 C.ar  264  J75264     -0.0002
     25  C25       -4.9420   14.5060   11.7980 C.ar  264  J75264     -0.0002
     26  C26       -6.2240   15.0810   11.8120 C.ar  264  J75264     -0.0000
     27  C27       -7.2800   14.4430   11.0790 C.ar  264  J75264     -0.0002
     28  C28       -7.0350   13.2160   10.3780 C.ar  264  J75264     -0.0002
     29  C29       -3.3440    5.6090   13.8740 C.3   264  J75264      0.2775
@<TRIPOS>BOND
     1    22    21    1
     2    22    23    1
     3    21     6    1
     4    28    23   ar
     5    28    27   ar
     6    23    24   ar
     7    19    18    2
     8     6     1    2
     9     6     5    1
    10    27    26   ar
    11    24    25   ar
    12     1     2    1
    13    18     5    1
    14    18    20    2
    15     5     4    1
    16    25    26   ar
    17     2     3    1
    18     4     3    2
    19     4     7    1
    20     7    29    1
    21    29     8    1
    22     8    13   ar
    23     8     9   ar
    24    13    12   ar
    25     9    10   ar
    26    12    11   ar
    27    10    11   ar
    28    11    14    1
    29    17    14    1
    30    15    14    2
    31    14    16    2
