@<TRIPOS>MOLECULE
3mho_J43_A_1.pdb
 22 23 0 0 0
SMALL
GASTEIGER

@<TRIPOS>ATOM
      1  N1        -0.0490    5.6030   11.8170 N.2   265  J43265     -0.3268
      2  C2        -0.8590    4.5540   11.7850 C.1   265  J43265      0.1697
      3  N3        -1.9580    4.5440   12.5220 N.2   265  J43265     -0.3214
      4  C4        -2.2890    5.5420   13.3420 C.2   265  J43265      0.2078
      5  C5        -1.4870    6.6800   13.3820 C.3   265  J43265      0.1981
      6  C6        -0.3320    6.6510   12.5930 C.2   265  J43265      0.1940
      7  N7        -3.5400    5.3740   13.9960 N.pl3 265  J43265     -0.1858
      8  C8        -4.0360    4.2740   14.6180 C.ar  265  J43265      0.0729
      9  C9        -3.2940    3.1230   14.8740 C.ar  265  J43265      0.0180
     10  C10       -3.8800    2.0660   15.5590 C.ar  265  J43265      0.0213
     11  C11       -5.2120    2.1550   15.9760 C.ar  265  J43265      0.1251
     12  C12       -5.9480    3.3130   15.7130 C.ar  265  J43265      0.0213
     13  C13       -5.3540    4.3700   15.0350 C.ar  265  J43265      0.0180
     14  S14       -5.9210    0.8520   16.8210 S.O2  265  J43265      0.0935
     15  O15       -7.4080    0.9760   16.6690 O.2   265  J43265     -0.1503
     16  O16       -5.4040    0.9830   18.2170 O.2   265  J43265     -0.1503
     17  N17       -5.3630   -0.6140   16.1370 N.3   265  J43265      0.0392
     18  C18       -1.8110    7.8450   14.2460 C.2   265  J43265      0.2237
     19  O19       -2.6770    7.8410   15.1180 O.2   265  J43265     -0.2873
     20 CL20        0.7700    7.9760   12.5910 Cl    265  J43265     -0.0507
     21  S21       -0.5160    3.1410   10.7630 S.3   265  J43265     -0.0172
     22  C22       -1.4540    1.7120   11.3620 C.3   265  J43265      0.0872
@<TRIPOS>BOND
     1    21    22    1
     2    21     2    1
     3     2     1    2
     4     2     3    2
     5     1     6    2
     6     3     4    2
     7    20     6    1
     8     6     5    1
     9     4     5    1
    10     4     7    1
    11     5    18    1
    12     7     8    1
    13    18    19    2
    14     8     9   ar
    15     8    13   ar
    16     9    10   ar
    17    13    12   ar
    18    10    11   ar
    19    12    11   ar
    20    11    14    1
    21    17    14    1
    22    15    14    2
    23    14    16    2
