@<TRIPOS>MOLECULE
3mht_SAH_A_1.pdb
 26 28 0 0 0
SMALL
GASTEIGER

@<TRIPOS>ATOM
      1  N        -19.3310   31.1010   81.0950 N.3   328  SAH328     -0.1208
      2  CA       -19.7550   30.3600   82.2980 C.3   328  SAH328      0.1952
      3  CB       -19.5540   31.0450   83.6540 C.3   328  SAH328      0.0422
      4  CG       -18.1650   31.5980   83.9630 C.3   328  SAH328      0.0597
      5  SD       -18.0600   32.3120   85.6600 S.3   328  SAH328     -0.1375
      6  C        -21.2650   30.2770   82.0320 C.2   328  SAH328      0.3819
      7  O        -21.7950   30.4550   80.8800 O.co2 328  SAH328     -0.2441
      8  OXT      -22.1500   30.5680   82.9270 O.co2 328  SAH328     -0.2441
      9  C5'      -16.6700   31.4090   86.4110 C.3   328  SAH328      0.0899
     10  C4'      -16.8910   29.9620   86.8660 C.3   328  SAH328      0.1630
     11  O4'      -15.6600   29.4090   87.2630 O.3   328  SAH328     -0.3153
     12  C3'      -17.7620   29.7900   88.0990 C.3   328  SAH328      0.2168
     13  O3'      -18.8380   28.8400   87.8720 O.3   328  SAH328     -0.2175
     14  C2'      -16.7770   29.2110   89.1350 C.3   328  SAH328      0.2569
     15  O2'      -17.4050   28.2900   90.0600 O.3   328  SAH328     -0.2130
     16  C1'      -15.8950   28.4180   88.2490 C.3   328  SAH328      0.3185
     17  N9       -14.6380   28.2250   88.8890 N.pl3 328  SAH328     -0.1439
     18  C8       -13.9130   29.1990   89.5280 C.3   328  SAH328      0.3377
     19  N7       -12.7430   28.7930   89.8940 N.2   328  SAH328     -0.2095
     20  C5       -12.6740   27.4710   89.4700 C.2   328  SAH328      0.2526
     21  C6       -11.6420   26.5140   89.4890 C.2   328  SAH328      0.4393
     22  N6       -10.4740   26.6610   90.1030 N.pl3 328  SAH328      0.2180
     23  N1       -11.8950   25.3340   88.8990 N.2   328  SAH328      0.0021
     24  C2       -13.0790   25.0900   88.3500 C.3   328  SAH328      0.5254
     25  N3       -14.1200   25.8870   88.2780 N.2   328  SAH328     -0.0055
     26  C4       -13.8320   27.0920   88.8610 C.2   328  SAH328      0.3518
@<TRIPOS>BOND
     1     7     6   ar
     2     1     2    1
     3     6     2    1
     4     6     8   ar
     5     2     3    1
     6     3     4    1
     7     4     5    1
     8     5     9    1
     9     9    10    1
    10    10    11    1
    11    10    12    1
    12    11    16    1
    13    13    12    1
    14    12    14    1
    15    16    17    1
    16    16    14    1
    17    25    24    1
    18    25    26    2
    19    24    23    1
    20    26    17    1
    21    26    20    1
    22    17    18    1
    23    23    21    2
    24    14    15    1
    25    20    21    1
    26    20    19    2
    27    21    22    1
    28    18    19    1
