@<TRIPOS>MOLECULE
3mhu_FMN_A_1.pdb
 31 33 0 0 0
SMALL
GASTEIGER

@<TRIPOS>ATOM
      1  N1       -11.7500   55.0820   -0.7150 N.2   313  FMN313     -0.2887
      2  C2       -12.2930   56.0400   -1.5060 C.1   313  FMN313      0.3669
      3  O2       -13.2220   56.7180   -1.0810 O.2   313  FMN313     -0.1744
      4  N3       -11.8140   56.2460   -2.7840 N.2   313  FMN313     -0.2300
      5  C4       -10.8050   55.4670   -3.2810 C.1   313  FMN313      0.2513
      6  O4       -10.3950   55.6200   -4.4390 O.2   313  FMN313     -0.2057
      7  C4A      -10.2400   54.5030   -2.4800 C.2   313  FMN313      0.2706
      8  N5        -9.2200   53.7440   -2.9700 N.2   313  FMN313     -0.3841
      9  C5A       -8.6960   52.7250   -2.2120 C.2   313  FMN313      0.1452
     10  C6        -7.6750   51.9210   -2.7360 C.2   313  FMN313      0.0252
     11  C7        -7.1370   50.9050   -1.9490 C.2   313  FMN313     -0.0375
     12  C7M       -6.0460   50.0230   -2.4830 C.3   313  FMN313      0.0268
     13  C8        -7.6360   50.6970   -0.6600 C.3   313  FMN313      0.0417
     14  C8M       -7.0670   49.6090    0.1990 C.3   313  FMN313      0.0091
     15  C9        -8.6570   51.5150   -0.1460 C.2   313  FMN313     -0.0049
     16  C9A       -9.1820   52.5240   -0.9260 C.2   313  FMN313      0.0795
     17  N10      -10.1800   53.3540   -0.4090 N.pl3 313  FMN313     -0.2545
     18  C10      -10.7180   54.3130   -1.1910 C.2   313  FMN313      0.2449
     19  C1'      -10.7280   53.1290    0.9700 C.3   313  FMN313      0.1336
     20  C2'      -11.7520   52.0080    0.8470 C.3   313  FMN313      0.2048
     21  O2'      -12.7850   52.4850    0.0180 O.3   313  FMN313     -0.2185
     22  C3'      -12.3250   51.6890    2.2090 C.3   313  FMN313      0.2165
     23  O3'      -12.8740   52.8810    2.7050 O.3   313  FMN313     -0.2175
     24  C4'      -11.2600   51.2790    3.2410 C.3   313  FMN313      0.2147
     25  O4'      -10.2550   50.5230    2.6340 O.3   313  FMN313     -0.2176
     26  C5'      -11.9120   50.4940    4.4010 C.3   313  FMN313      0.1892
     27  O5'      -12.5060   49.3060    3.8680 O.3   313  FMN313     -0.2674
     28  P        -11.8130   47.8720    4.0790 P.3   313  FMN313      0.5327
     29  O1P      -11.5320   47.6660    5.5100 O.3   313  FMN313     -0.1145
     30  O2P      -10.4980   47.9010    3.3050 O.2   313  FMN313     -0.2224
     31  O3P      -12.8240   46.9270    3.5340 O.3   313  FMN313     -0.1145
@<TRIPOS>BOND
     1     6     5    2
     2     5     4    2
     3     5     7    1
     4     8     7    2
     5     8     9    2
     6     4     2    2
     7    10     9    1
     8    10    11    2
     9    12    11    1
    10     7    18    1
    11     9    16    1
    12    11    13    1
    13     2     3    2
    14     2     1    2
    15    18     1    2
    16    18    17    1
    17    16    17    1
    18    16    15    2
    19    13    15    1
    20    13    14    1
    21    17    19    1
    22    21    20    1
    23    20    19    1
    24    20    22    1
    25    22    23    1
    26    22    24    1
    27    25    24    1
    28    24    26    1
    29    30    28    2
    30    31    28    1
    31    27    28    1
    32    27    26    1
    33    28    29    1
