@<TRIPOS>MOLECULE
3mhu_EJZ_A_1.pdb
 14 14 0 0 0
SMALL
GASTEIGER

@<TRIPOS>ATOM
      1  O1        -6.3980   56.4040   -3.8040 O.co2 314  EJZ314     -0.2379
      2  C1        -5.9920   56.5420   -2.6380 C.2   314  EJZ314      0.4170
      3  O4        -4.8290   56.8710   -2.2870 O.co2 314  EJZ314     -0.2379
      4  C2        -6.9680   56.3850   -1.5520 C.2   314  EJZ314      0.2479
      5  C3        -8.1170   57.2750   -1.5320 C.3   314  EJZ314      0.3416
      6  N3        -8.3290   58.2430   -2.5310 N.pl3 314  EJZ314      0.0570
      7  O6        -9.4630   58.4160   -2.9470 O.2   314  EJZ314     -0.1295
      8  O5        -7.3960   58.8860   -2.9920 O.2   314  EJZ314     -0.1295
      9  N1        -6.7840   55.4740   -0.5900 N.2   314  EJZ314     -0.3022
     10  C4        -7.7000   55.3650    0.4160 C.1   314  EJZ314      0.3653
     11  O2        -7.4740   54.4390    1.3700 O.2   314  EJZ314     -0.1745
     12  N2        -8.8050   56.1690    0.5030 N.2   314  EJZ314     -0.2345
     13  C5        -9.0540   57.1260   -0.4220 C.1   314  EJZ314      0.2280
     14  O3       -10.1330   57.9480   -0.3610 O.2   314  EJZ314     -0.2108
@<TRIPOS>BOND
     1     1     2   ar
     2     8     6    2
     3     7     6    2
     4     2     3   ar
     5     2     4    1
     6     6     5    1
     7     4     5    1
     8     4     9    2
     9     5    13    1
    10     9    10    2
    11    13    14    2
    12    13    12    2
    13    10    12    2
    14    10    11    2
