@<TRIPOS>MOLECULE
3mhw_ABV_U_1.pdb
 10 11 0 0 0
SMALL
GASTEIGER

@<TRIPOS>ATOM
      1  C1       -29.5790  -17.6000    9.0430 C.2   245  ABV245      0.0085
      2  N1       -30.4030  -19.8040   11.6350 N.2   245  ABV245     -0.3810
      3  S1       -31.6130  -19.1420    9.4990 S.3   245  ABV245     -0.0348
      4  C2       -28.4240  -17.0880    9.4690 C.2   245  ABV245     -0.0036
      5  N2       -32.4300  -20.9140   11.2400 N.pl3 245  ABV245     -0.0864
      6  C3       -27.8510  -17.4600   10.6270 C.2   245  ABV245     -0.0186
      7  C4       -28.4280  -18.4020   11.4040 C.3   245  ABV245      0.0855
      8  C5       -29.5950  -18.9180   11.0100 C.2   245  ABV245      0.1217
      9  C6       -30.1590  -18.4920    9.8400 C.2   245  ABV245      0.0589
     10  C7       -31.4920  -20.0710   10.8950 C.2   245  ABV245      0.2498
@<TRIPOS>BOND
     1     1     4    1
     2     1     9    2
     3     4     6    2
     4     3     9    1
     5     3    10    1
     6     9     8    1
     7     6     7    1
     8    10     5    1
     9    10     2    2
    10     8     7    1
    11     8     2    2
