@<TRIPOS>MOLECULE
3mhy_AKG_A_1.pdb
 10 9 0 0 0
SMALL
GASTEIGER

@<TRIPOS>ATOM
      1  C1         0.2560   18.8740    0.3430 C.2   114  AKG114      0.4219
      2  O1        -0.6530   19.7250    0.2250 O.co2 114  AKG114     -0.2373
      3  O2         1.1160   18.9620    1.2370 O.co2 114  AKG114     -0.2373
      4  C2         0.3080   17.7390   -0.5770 C.2   114  AKG114      0.2526
      5  O5         1.0930   16.8270   -0.3670 O.2   114  AKG114     -0.2843
      6  C3        -0.6120   17.7260   -1.7780 C.3   114  AKG114      0.0881
      7  C4        -0.7350   16.3240   -2.3680 C.3   114  AKG114      0.1224
      8  C5        -1.7800   15.5210   -1.6260 C.2   114  AKG114      0.3653
      9  O3        -2.1860   15.9320   -0.5160 O.co2 114  AKG114     -0.2456
     10  O4        -2.2040   14.4700   -2.1500 O.co2 114  AKG114     -0.2456
@<TRIPOS>BOND
     1     7     6    1
     2     7     8    1
     3    10     8   ar
     4     6     4    1
     5     8     9   ar
     6     4     5    2
     7     4     1    1
     8     2     1   ar
     9     1     3   ar
