@<TRIPOS>MOLECULE
3mhy_ATP_A_1.pdb
 31 33 0 0 0
SMALL
GASTEIGER

@<TRIPOS>ATOM
      1  PG         4.7530   15.3260    2.0950 P.3   113  ATP113      0.5373
      2  O1G        5.9030   16.1720    1.6810 O.3   113  ATP113     -0.1143
      3  O2G        3.5140   15.6500    1.3340 O.2   113  ATP113     -0.2221
      4  O3G        5.0530   13.8680    2.1650 O.3   113  ATP113     -0.1143
      5  PB         3.6000   16.9720    4.1850 P.3   113  ATP113      0.2277
      6  O1B        3.2630   17.9020    3.0750 O.2   113  ATP113     -0.5168
      7  O2B        4.2750   17.5440    5.3790 O.3   113  ATP113     -0.4368
      8  O3B        4.4500   15.7290    3.6270 O.3   113  ATP113     -0.2258
      9  PA         1.1180   15.5370    3.7910 P.3   113  ATP113      0.2189
     10  O1A        0.9840   16.3130    2.5230 O.2   113  ATP113     -0.5170
     11  O2A        1.3840   14.0770    3.7270 O.3   113  ATP113     -0.4371
     12  O3A        2.2600   16.2350    4.6810 O.3   113  ATP113     -0.2700
     13  O5'       -0.1480   15.8330    4.7360 O.3   113  ATP113     -0.3112
     14  C5'       -1.3530   15.1100    4.4860 C.3   113  ATP113      0.1813
     15  C4'       -2.4990   15.6930    5.3000 C.3   113  ATP113      0.1821
     16  O4'       -2.1220   15.7280    6.6780 O.3   113  ATP113     -0.3135
     17  C3'       -2.7490   17.1650    4.9750 C.3   113  ATP113      0.2184
     18  O3'       -3.5490   17.3970    3.8150 O.3   113  ATP113     -0.2174
     19  C2'       -3.4310   17.6580    6.2350 C.3   113  ATP113      0.2570
     20  O2'       -4.7790   17.1780    6.2380 O.3   113  ATP113     -0.2130
     21  C1'       -2.6710   16.8890    7.2930 C.3   113  ATP113      0.3186
     22  N9        -1.5510   17.6560    7.8860 N.pl3 113  ATP113     -0.1439
     23  C8        -0.2670   17.6440    7.4520 C.3   113  ATP113      0.3377
     24  N7         0.5340   18.4150    8.2110 N.2   113  ATP113     -0.2095
     25  C5        -0.3270   18.9280    9.1790 C.2   113  ATP113      0.2526
     26  C6        -0.1200   19.8030   10.2730 C.2   113  ATP113      0.4393
     27  N6         1.0770   20.3430   10.6060 N.pl3 113  ATP113      0.2180
     28  N1        -1.2040   20.0960   11.0370 N.2   113  ATP113      0.0021
     29  C2        -2.4040   19.5670   10.7360 C.3   113  ATP113      0.5254
     30  N3        -2.7040   18.7380    9.7200 N.2   113  ATP113     -0.0055
     31  C4        -1.5920   18.4670    8.9970 C.2   113  ATP113      0.3518
@<TRIPOS>BOND
     1     3     1    2
     2     2     1    1
     3     1     4    1
     4     1     8    1
     5    10     9    2
     6     6     5    2
     7     8     5    1
     8    11     9    1
     9     9    12    1
    10     9    13    1
    11    18    17    1
    12     5    12    1
    13     5     7    1
    14    14    13    1
    15    14    15    1
    16    17    15    1
    17    17    19    1
    18    15    16    1
    19    19    20    1
    20    19    21    1
    21    16    21    1
    22    21    22    1
    23    23    22    1
    24    23    24    1
    25    22    31    1
    26    24    25    2
    27    31    25    1
    28    31    30    2
    29    25    26    1
    30    30    29    1
    31    26    27    1
    32    26    28    2
    33    29    28    1
