@<TRIPOS>MOLECULE
3mi0_SA6_2_1.pdb
 20 21 0 0 0
SMALL
GASTEIGER

@<TRIPOS>ATOM
      1  C1        12.2680  -15.2450   21.2180 C.3   300  SA6300      0.0012
      2  C2        11.9230  -14.2920   20.0860 C.3   300  SA6300      0.0191
      3  C3        12.5730  -14.5100   18.6640 C.3   300  SA6300      0.1364
      4  C4        12.3970  -15.8680   17.9320 C.3   300  SA6300      0.1694
      5  C5        11.0030  -15.8770   17.1790 C.3   300  SA6300      0.0366
      6  O6        12.3100  -17.0180   18.8340 O.3   300  SA6300     -0.2220
      7  C7        14.0880  -14.3440   18.5980 C.1   300  SA6300      0.1279
      8  O8        14.7180  -13.5390   19.2810 O.2   300  SA6300     -0.2270
      9  N9        14.6120  -15.1710   17.7120 N.2   300  SA6300     -0.1975
     10  C10       13.6890  -16.0230   17.0050 C.3   300  SA6300      0.2070
     11  C11       14.1050  -17.4670   17.0490 C.2   300  SA6300      0.2349
     12  O12       15.1170  -17.9430   17.5950 O.2   300  SA6300     -0.2860
     13  C13       13.6690  -15.4810   15.4920 C.3   300  SA6300      0.1865
     14  O14       12.9710  -14.2190   15.4850 O.3   300  SA6300     -0.2202
     15  C15       15.0670  -15.1590   14.7800 C.3   300  SA6300      0.0546
     16  C16       16.1060  -16.4160   14.6640 C.3   300  SA6300      0.0073
     17  C17       17.1290  -16.3350   13.5150 C.3   300  SA6300      0.0051
     18  C18       16.3830  -16.2360   12.1810 C.3   300  SA6300      0.0257
     19  C19       15.3680  -15.0990   12.2060 C.2   300  SA6300     -0.0306
     20  C20       14.8050  -14.6350   13.3630 C.2   300  SA6300     -0.0284
@<TRIPOS>BOND
     1    18    19    1
     2    18    17    1
     3    19    20    2
     4    20    15    1
     5    17    16    1
     6    16    15    1
     7    15    13    1
     8    14    13    1
     9    13    10    1
    10    10    11    1
    11    10     9    1
    12    10     4    1
    13    11    12    2
    14     5     4    1
    15     9     7    2
    16     4     3    1
    17     4     6    1
    18     7     3    1
    19     7     8    2
    20     3     2    1
    21     2     1    1
