@<TRIPOS>MOLECULE
3mi2_PFU_A_1.pdb
 22 23 0 0 0
SMALL
GASTEIGER

@<TRIPOS>ATOM
      1  P         26.4990  -13.1770   15.0510 P.3     1  PFU1        0.5327
      2  C1        22.6910   -8.2180   15.0150 C.2     1  PFU1        0.1238
      3  N1        21.4520   -8.8650   13.2090 N.2     1  PFU1       -0.1452
      4  O1        21.8640   -5.7940   14.9710 O.3     1  PFU1       -0.2101
      5  C2        21.8890   -7.1400   14.4910 C.3     1  PFU1        0.2377
      6  N2        22.3810   -9.2470   14.1920 N.2     1  PFU1       -0.1514
      7  O2        19.9870   -5.5370   12.8950 O.2     1  PFU1       -0.2652
      8  C3        21.1030   -7.5590   13.3590 C.2     1  PFU1        0.1725
      9  N3        19.8770   -7.2350   11.4180 N.am    1  PFU1       -0.0825
     10  C4        20.2500   -6.7090   12.5400 C.2     1  PFU1        0.3024
     11  C1'       23.6240   -8.1820   16.1410 C.3     1  PFU1        0.1883
     12  O1P       27.4940  -12.8010   14.0020 O.2     1  PFU1       -0.2224
     13  C2'       23.3730   -9.3100   17.1370 C.3     1  PFU1        0.2170
     14  O2'       22.7150   -8.8100   18.3180 O.3     1  PFU1       -0.2173
     15  O2P       25.2280  -13.7530   14.4940 O.3     1  PFU1       -0.1145
     16  C3'       24.7590   -9.8200   17.4740 C.3     1  PFU1        0.2143
     17  O3'       25.3440   -9.0400   18.5260 O.3     1  PFU1       -0.2176
     18  O3P       27.1290  -13.9320   16.1530 O.3     1  PFU1       -0.1145
     19  C4'       25.5310   -9.5620   16.1930 C.3     1  PFU1        0.1786
     20  O4'       24.9440   -8.4020   15.5990 O.3     1  PFU1       -0.3450
     21  C5'       25.4060  -10.7250   15.2110 C.3     1  PFU1        0.1858
     22  O5'       26.0860  -11.8140   15.8100 O.3     1  PFU1       -0.2675
@<TRIPOS>BOND
     1     9    10   am
     2    10     7    2
     3    10     8    1
     4     3     8    2
     5     3     6    1
     6     8     5    1
     7    12     1    2
     8     6     2    2
     9     5     4    1
    10     5     2    1
    11    15     1    1
    12     2    11    1
    13     1    22    1
    14     1    18    1
    15    21    22    1
    16    21    19    1
    17    20    11    1
    18    20    19    1
    19    11    13    1
    20    19    16    1
    21    13    16    1
    22    13    14    1
    23    16    17    1
