@<TRIPOS>MOLECULE
3mi3_LYS_A_1.pdb
 10 9 0 0 0
SMALL
GASTEIGER

@<TRIPOS>ATOM
      1  N        -43.4470    9.7920  -15.3680 N.3   1000  LYS1000    -0.1208
      2  CA       -44.7910   10.0750  -15.9450 C.3   1000  LYS1000     0.1943
      3  C        -45.6660   10.4960  -14.7860 C.2   1000  LYS1000     0.3819
      4  O        -45.3200   10.1900  -13.6320 O.co2 1000  LYS1000    -0.2441
      5  CB       -45.3570    8.8140  -16.6210 C.3   1000  LYS1000     0.0307
      6  CG       -46.7800    8.9130  -17.1660 C.3   1000  LYS1000     0.0036
      7  CD       -47.1510    7.6200  -17.8780 C.3   1000  LYS1000     0.0206
      8  CE       -48.4960    7.7090  -18.5930 C.3   1000  LYS1000     0.1093
      9  NZ       -48.7780    6.4600  -19.4070 N.3   1000  LYS1000    -0.1314
     10  OXT      -46.7060   11.1320  -14.9620 O.co2 1000  LYS1000    -0.2441
@<TRIPOS>BOND
     1     9     8    1
     2     8     7    1
     3     7     6    1
     4     6     5    1
     5     5     2    1
     6     2     1    1
     7     2     3    1
     8    10     3   ar
     9     3     4   ar
