@<TRIPOS>MOLECULE
3mia_ANP_A_1.pdb
 31 33 0 0 0
SMALL
GASTEIGER

@<TRIPOS>ATOM
      1  PG        58.9600   15.4530   33.3810 P.3   352  ANP352      0.4884
      2  O1G       60.2760   15.0970   34.0150 O.3   352  ANP352     -0.1240
      3  O2G       58.0860   14.2370   33.4270 O.3   352  ANP352     -0.1240
      4  O3G       59.1810   15.8640   31.9590 O.2   352  ANP352     -0.2331
      5  PB        57.0340   17.3540   33.4320 P.3   352  ANP352      0.4669
      6  O1B       56.5150   16.4940   32.4180 O.2   352  ANP352     -0.2351
      7  O2B       55.9520   17.6070   34.3690 O.3   352  ANP352     -0.1253
      8  N3B       58.2730   16.6720   34.2140 N.3   352  ANP352     -0.0163
      9  PA        58.7310   19.4950   33.3570 P.3   352  ANP352      0.2220
     10  O1A       58.6850   20.8920   32.9650 O.2   352  ANP352     -0.5170
     11  O2A       58.7070   19.4100   34.8400 O.3   352  ANP352     -0.4370
     12  O3A       57.4760   18.7280   32.7250 O.3   352  ANP352     -0.2360
     13  O5'       59.9660   18.8880   32.8180 O.3   352  ANP352     -0.3111
     14  C5'       60.9470   19.1840   33.5530 C.3   352  ANP352      0.1813
     15  C4'       62.2140   18.5540   33.1240 C.3   352  ANP352      0.1821
     16  O4'       62.4110   19.2420   31.8670 O.3   352  ANP352     -0.3135
     17  C3'       62.9390   19.1900   34.2280 C.3   352  ANP352      0.2184
     18  O3'       63.2230   18.4090   35.3680 O.3   352  ANP352     -0.2174
     19  C2'       64.1250   19.8210   33.4720 C.3   352  ANP352      0.2570
     20  O2'       65.2280   18.9350   33.5000 O.3   352  ANP352     -0.2130
     21  C1'       63.6060   20.1010   32.0030 C.3   352  ANP352      0.3186
     22  N9        63.1610   21.5160   31.8320 N.pl3 352  ANP352     -0.1439
     23  C8        61.8860   22.0910   31.9660 C.3   352  ANP352      0.3377
     24  N7        61.8320   23.3630   31.7600 N.2   352  ANP352     -0.2095
     25  C5        63.1460   23.6560   31.4720 C.2   352  ANP352      0.2526
     26  C6        63.8030   24.8840   31.1480 C.2   352  ANP352      0.4393
     27  N6        63.1420   26.0160   31.0860 N.pl3 352  ANP352      0.2180
     28  N1        65.1630   24.8590   30.9010 N.2   352  ANP352      0.0021
     29  C2        65.8490   23.7040   30.9640 C.3   352  ANP352      0.5254
     30  N3        65.3470   22.4800   31.2640 N.2   352  ANP352     -0.0055
     31  C4        63.9570   22.5400   31.5080 C.2   352  ANP352      0.3518
@<TRIPOS>BOND
     1    28    29    1
     2    28    26    2
     3    29    30    1
     4    27    26    1
     5    26    25    1
     6    30    31    2
     7    25    31    1
     8    25    24    2
     9    31    22    1
    10    24    23    1
    11    22    23    1
    12    22    21    1
    13    16    21    1
    14    16    15    1
    15     4     1    2
    16    21    19    1
    17     6     5    2
    18    12     9    1
    19    12     5    1
    20    13     9    1
    21    13    14    1
    22    10     9    2
    23    15    14    1
    24    15    17    1
    25     9    11    1
    26     1     3    1
    27     1     2    1
    28     1     8    1
    29     5     8    1
    30     5     7    1
    31    19    20    1
    32    19    17    1
    33    17    18    1
