@<TRIPOS>MOLECULE
3min_CLF_B_1.pdb
 15 35 0 0 0
SMALL
GASTEIGER

@<TRIPOS>ATOM
      1 FE1        -8.0030   -8.1390    2.8790 Fe    525  CLF525      0.0000
      2 FE2        -9.7860   -6.9480    1.7380 Fe    525  CLF525      0.0000
      3 FE3        -8.9000   -9.2780    0.5980 Fe    525  CLF525      0.0000
      4 FE4        -7.5370   -7.1380    0.5700 Fe    525  CLF525      0.0000
      5  S1        -7.7880   -5.9360    2.4260 S.3   525  CLF525      0.0000
      6  S2A       -9.9450   -9.0130    2.5540 S.3   525  CLF525      0.0000
      7  S4A       -9.4550   -7.3230   -0.3990 S.3   525  CLF525      0.0000
      8  S3A       -6.7000   -9.0760    1.2290 S.3   525  CLF525      0.0000
      9 FE5        -5.4400   -5.4490    2.0530 Fe    525  CLF525      0.0000
     10 FE6        -6.4220   -3.6470    3.6070 Fe    525  CLF525      0.0000
     11 FE7        -4.0560   -4.6000    4.1250 Fe    525  CLF525      0.0000
     12 FE8        -6.1990   -6.0810    4.2790 Fe    525  CLF525      0.0000
     13  S2B       -4.5430   -3.4620    2.3600 S.3   525  CLF525      0.0000
     14  S3B       -5.7450   -4.2870    5.6070 S.3   525  CLF525      0.0000
     15  S4B       -4.2910   -6.8020    3.2400 S.3   525  CLF525      0.0000
@<TRIPOS>BOND
     1     7     4    1
     2     7     3    1
     3     7     2    1
     4     4     3    1
     5     4     8    1
     6     4     2    1
     7     4     5    1
     8     4     1    1
     9     3     8    1
    10     3     2    1
    11     3     6    1
    12     3     1    1
    13     8     1    1
    14     2     5    1
    15     2     6    1
    16     2     1    1
    17     9    13    1
    18     9     5    1
    19     9    15    1
    20     9    10    1
    21     9    11    1
    22     9    12    1
    23    13    10    1
    24    13    11    1
    25     5     1    1
    26     5    12    1
    27     6     1    1
    28    15    11    1
    29    15    12    1
    30    10    11    1
    31    10    12    1
    32    10    14    1
    33    11    12    1
    34    11    14    1
    35    12    14    1
