@<TRIPOS>MOLECULE
3min_CFM_A_1.pdb
 17 34 0 0 0
SMALL
GASTEIGER

@<TRIPOS>ATOM
      1 FE1        -9.4630  -24.4970   -8.7870 Fe    496  CFM496      0.0000
      2 FE2        -8.8370  -22.7820   -6.8730 Fe    496  CFM496      0.0000
      3 FE3        -7.0330  -23.9060   -8.3360 Fe    496  CFM496      0.0000
      4 FE4        -8.3300  -25.3080   -6.6100 Fe    496  CFM496      0.0000
      5 FE5        -6.5400  -24.6050   -4.8540 Fe    496  CFM496      0.0000
      6 FE6        -7.0800  -22.1650   -5.2390 Fe    496  CFM496      0.0000
      7 FE7        -5.3020  -23.1650   -6.5900 Fe    496  CFM496      0.0000
      8 MO1        -4.7920  -22.7540   -4.0740 Mo    496  CFM496      0.0000
      9  S1A      -10.2620  -24.3190   -6.6400 S.3   496  CFM496      0.0000
     10  S4A       -7.7670  -25.9740   -8.6460 S.3   496  CFM496      0.0000
     11  S3A       -7.6760  -26.3980   -4.7760 S.3   496  CFM496      0.0000
     12  S2A       -8.5920  -22.5340   -9.1290 S.3   496  CFM496      0.0000
     13  S1B       -6.8410  -23.0690   -3.2820 S.3   496  CFM496      0.0000
     14  S2B       -8.8830  -20.9790   -5.6610 S.3   496  CFM496      0.0000
     15  S3B       -5.2150  -21.1530   -5.6710 S.3   496  CFM496      0.0000
     16  S4B       -4.3770  -24.5750   -5.2700 S.3   496  CFM496      0.0000
     17  S5        -5.0150  -23.5100   -8.7390 S.3   496  CFM496      0.0000
@<TRIPOS>BOND
     1    12     1    1
     2    12     3    1
     3    12     2    1
     4     1    10    1
     5     1     3    1
     6     1     9    1
     7     1     4    1
     8    17     3    1
     9    17     7    1
    10    10     3    1
    11    10     4    1
    12     3     4    1
    13     3     7    1
    14     2     9    1
    15     2     4    1
    16     2    14    1
    17     2     6    1
    18     9     4    1
    19     4    11    1
    20     7    15    1
    21     7    16    1
    22     7     6    1
    23     7     5    1
    24    15     6    1
    25    15     8    1
    26    14     6    1
    27    16     5    1
    28    16     8    1
    29     6     5    1
    30     6    13    1
    31     5    11    1
    32     5     8    1
    33     5    13    1
    34     8    13    1
