@<TRIPOS>MOLECULE
3mit_MAN_A_1.pdb
 12 12 0 0 0
SMALL
GASTEIGER

@<TRIPOS>ATOM
      1  C1        48.5720    9.0400   68.3720 C.3   801  MAN801      0.3024
      2  C2        48.7560    9.5690   69.7940 C.3   801  MAN801      0.2434
      3  C3        47.6650    9.0760   70.7530 C.3   801  MAN801      0.2199
      4  C4        46.2640    9.1670   70.1530 C.3   801  MAN801      0.2144
      5  C5        46.2140    8.6380   68.7080 C.3   801  MAN801      0.1836
      6  C6        44.8600    8.9100   68.0470 C.3   801  MAN801      0.2142
      7  O1        48.9470    7.6750   68.3050 O.3   801  MAN801     -0.1869
      8  O2        48.7760   10.9770   69.7600 O.3   801  MAN801     -0.2148
      9  O3        47.7130    9.8120   71.9550 O.3   801  MAN801     -0.2174
     10  O4        45.3830    8.4250   70.9630 O.3   801  MAN801     -0.2176
     11  O5        47.2350    9.2250   67.9170 O.3   801  MAN801     -0.3236
     12  O6        44.6570   10.3000   67.8870 O.3   801  MAN801     -0.2176
@<TRIPOS>BOND
     1    12     6    1
     2    11     1    1
     3    11     5    1
     4     6     5    1
     5     7     1    1
     6     1     2    1
     7     5     4    1
     8     8     2    1
     9     2     3    1
    10     4     3    1
    11     4    10    1
    12     3     9    1
