@<TRIPOS>MOLECULE
3miu_MAN_A_1.pdb
 12 12 0 0 0
SMALL
GASTEIGER

@<TRIPOS>ATOM
      1  C1        48.7070    9.2320   68.2480 C.3   801  MAN801      0.3024
      2  C2        48.8430    9.7190   69.6990 C.3   801  MAN801      0.2434
      3  C3        47.7430    9.1940   70.6340 C.3   801  MAN801      0.2199
      4  C4        46.3570    9.2020   70.0040 C.3   801  MAN801      0.2144
      5  C5        46.3850    8.6360   68.5780 C.3   801  MAN801      0.1836
      6  C6        45.0120    8.7410   67.8970 C.3   801  MAN801      0.2142
      7  O1        49.2140    7.9130   68.0840 O.3   801  MAN801     -0.1869
      8  O2        48.8600   11.1300   69.7240 O.3   801  MAN801     -0.2148
      9  O3        47.6810    9.9570   71.8210 O.3   801  MAN801     -0.2174
     10  O4        45.4940    8.4510   70.8320 O.3   801  MAN801     -0.2176
     11  O5        47.3610    9.3200   67.7960 O.3   801  MAN801     -0.3236
     12  O6        44.6840   10.0940   67.6160 O.3   801  MAN801     -0.2176
@<TRIPOS>BOND
     1    12     6    1
     2    11     1    1
     3    11     5    1
     4     6     5    1
     5     7     1    1
     6     1     2    1
     7     5     4    1
     8     2     8    1
     9     2     3    1
    10     4     3    1
    11     4    10    1
    12     3     9    1
