@<TRIPOS>MOLECULE
3miy_B49_A_1.pdb
 29 31 0 0 0
SMALL
GASTEIGER

@<TRIPOS>ATOM
      1  C4        10.5610  -11.6350   -2.8360 C.3     1  B491        0.0665
      2  C5         0.8180  -11.2260   -3.0830 C.2     1  B491        0.0317
      3  C6         1.7270  -11.3090   -4.1250 C.2     1  B491        0.0315
      4  C7         2.6100  -11.2980   -1.4790 C.2     1  B491        0.0154
      5  C13        7.9420  -11.5120   -0.1900 C.2     1  B491        0.0143
      6  C15        1.2570  -11.2200   -1.7640 C.2     1  B491        0.1367
      7  C17        3.5300  -11.3890   -2.5250 C.3     1  B491        0.1118
      8  C20        5.0050  -11.4700   -2.5610 C.2     1  B491        0.0855
      9  C21        5.3460  -11.5420   -3.9980 C.1     1  B491        0.2010
     10  C22       10.4690  -11.5920    0.3730 C.2     1  B491        0.2668
     11  C3         7.3610  -11.4770    1.2050 C.3     1  B491        0.0339
     12  C12        5.7950  -11.4620   -1.4240 C.2     1  B491        0.0407
     13  C14        9.3450  -11.5880   -1.9490 C.2     1  B491        0.1135
     14  C16        3.0930  -11.3830   -3.8580 C.2     1  B491        0.1306
     15  C18        7.2060  -11.5120   -1.3630 C.2     1  B491        0.1277
     16  C19        9.3100  -11.5650   -0.5570 C.2     1  B491        0.0789
     17  N23        8.0870  -11.5540   -2.4190 N.2     1  B491       -0.4064
     18  N24        4.1970  -11.4790   -4.6940 N.2     1  B491       -0.3369
     19  N25       11.6280  -12.1850    0.0040 N.am    1  B491       -0.2001
     20  O27        6.4540  -11.6450   -4.4990 O.2     1  B491       -0.2096
     21  O28       10.3710  -11.0870    1.4770 O.2     1  B491       -0.2683
     22  F29        0.3610  -11.1370   -0.7560 F       1  B491       -0.2045
     23  C37       12.7940  -12.2330    0.8970 C.3     1  B491        0.1327
     24  C38       13.6290  -10.9610    0.7200 C.3     1  B491        0.0958
     25  N4        14.5910  -11.1470   -0.3810 N.3     1  B491       -0.2712
     26  C39       14.2440  -10.4840   -1.6560 C.3     1  B491        0.0722
     27  C40       15.9710  -10.8690    0.0440 C.3     1  B491        0.0722
     28  C41       16.7780  -12.1710    0.0370 C.3     1  B491        0.0188
     29  C42       13.4420   -9.1880   -1.4780 C.3     1  B491        0.0188
@<TRIPOS>BOND
     1    18     9    2
     2    18    14    2
     3    20     9    2
     4     3    14    1
     5     3     2    2
     6     9     8    1
     7    14     7    1
     8     2     6    1
     9     1    13    1
    10     8     7    1
    11     8    12    2
    12     7     4    1
    13    17    13    2
    14    17    15    2
    15    13    16    1
    16     6     4    2
    17     6    22    1
    18    26    29    1
    19    26    25    1
    20    12    15    1
    21    15     5    1
    22    16     5    2
    23    16    10    1
    24    25    27    1
    25    25    24    1
    26     5    11    1
    27    19    10   am
    28    19    23    1
    29    28    27    1
    30    10    21    2
    31    24    23    1
