@<TRIPOS>MOLECULE
3mj1_614_A_1.pdb
 32 36 0 0 0
SMALL
GASTEIGER

@<TRIPOS>ATOM
      1  N1        15.3460    5.9070   -2.9650 N.ar    1  6141       -0.1228
      2  N2        16.6570    6.3470   -2.7560 N.ar    1  6141       -0.2152
      3  C3        14.3520    6.7050   -3.2340 C.ar    1  6141        0.2824
      4  C4        16.9760    7.6630   -2.8110 C.ar    1  6141        0.2765
      5  C5        15.9190    8.6410   -3.1260 C.ar    1  6141        0.0623
      6  C6        14.6010    8.1540   -3.3450 C.ar    1  6141        0.0660
      7  C7        12.6870    4.8570   -3.3740 C.2     1  6141        0.3761
      8  N8        13.0590    6.2110   -3.4280 N.pl3   1  6141        0.0143
      9  N9        11.4460    4.4500   -3.3600 N.2     1  6141        0.0793
     10  C10       13.5080    3.7150   -3.3290 C.3     1  6141        0.1690
     11  N11       11.4290    3.0570   -3.3020 N.2     1  6141       -0.0426
     12  C12       12.7040    2.6250   -3.2850 C.2     1  6141        0.0959
     13  N13       15.8800   12.9570   -2.4090 N.3     1  6141       -0.2665
     14  N14       14.8690   15.4610   -1.4210 N.3     1  6141       -0.2691
     15  C15       13.5790    9.0530   -3.6640 C.ar    1  6141        0.0051
     16  C16       17.7070    5.3590   -2.4650 C.3     1  6141        0.1135
     17  C17       16.1760   10.0180   -3.2380 C.ar    1  6141        0.0020
     18  O18       18.1270    8.0310   -2.6260 O.2     1  6141       -0.2655
     19  C19       15.1430   10.8840   -3.5470 C.ar    1  6141       -0.0060
     20  C20       15.3860   12.3720   -3.6700 C.3     1  6141        0.0992
     21  O21       18.7810    2.7280   -2.7890 O.3     1  6141       -0.3536
     22  C22       14.8780   12.9950   -1.3210 C.3     1  6141        0.0899
     23  C23       16.6390   14.2140   -2.6000 C.3     1  6141        0.0899
     24  C24       15.7160   15.4430   -2.6240 C.3     1  6141        0.0897
     25  C25       14.0120   14.2640   -1.3540 C.3     1  6141        0.0897
     26  C26       13.8570   10.4000   -3.7570 C.ar    1  6141       -0.0027
     27  C27       17.1590    4.1630   -1.6660 C.3     1  6141        0.0566
     28  C28       18.3070    4.8780   -3.8010 C.3     1  6141        0.0566
     29  C29       14.0380   16.6750   -1.3920 C.3     1  6141        0.0897
     30  C30       18.2500    3.0920   -1.5070 C.3     1  6141        0.1442
     31  C31       19.3680    3.8030   -3.5340 C.3     1  6141        0.1442
     32  C32       13.1250    1.1780   -3.2260 C.3     1  6141        0.0520
@<TRIPOS>BOND
     1    28    31    1
     2    28    16    1
     3    26    15   ar
     4    26    19   ar
     5    20    19    1
     6    20    13    1
     7    15     6   ar
     8    19    17   ar
     9    31    21    1
    10     8     7    1
    11     8     3    1
    12     7     9    2
    13     7    10    1
    14     9    11    1
    15     6     3   ar
    16     6     5   ar
    17    10    12    1
    18    11    12    2
    19    12    32    1
    20    17     5   ar
    21     3     1   ar
    22     5     4   ar
    23     1     2   ar
    24     4     2   ar
    25     4    18    2
    26    21    30    1
    27     2    16    1
    28    24    23    1
    29    24    14    1
    30    23    13    1
    31    16    27    1
    32    13    22    1
    33    27    30    1
    34    14    29    1
    35    14    25    1
    36    25    22    1
