@<TRIPOS>MOLECULE
3mj2_MJG_A_1.pdb
 43 46 0 0 0
SMALL
GASTEIGER

@<TRIPOS>ATOM
      1  C1        17.0640    1.1020   -1.2970 C.ar    1  MJG1        0.1427
      2  C2        17.2080    1.8670   -2.4670 C.ar    1  MJG1        0.0879
      3  C3        16.1130    1.9900   -3.3420 C.ar    1  MJG1        0.0137
      4  C4        14.9010    1.3740   -3.0430 C.ar    1  MJG1        0.0264
      5  C5        14.7730    0.6220   -1.8720 C.ar    1  MJG1       -0.0128
      6  C6        15.8490    0.4840   -1.0160 C.ar    1  MJG1        0.0333
      7  O7        18.1130    0.9620   -0.4400 O.3     1  MJG1       -0.4713
      8  C8        17.8270    0.9430    0.9610 C.3     1  MJG1        0.2525
      9  C9        18.5100    2.5080   -2.7770 C.2     1  MJG1        0.2521
     10  N10       18.7650    3.8140   -2.5380 N.am    1  MJG1       -0.2725
     11  O11       19.3820    1.8210   -3.2740 O.2     1  MJG1       -0.2698
     12  C12       20.0900    4.3730   -2.8630 C.3     1  MJG1        0.1152
     13  C13       19.9070    5.6190   -3.7370 C.3     1  MJG1        0.1149
     14  N14       18.9850    6.5620   -3.0720 N.am    1  MJG1       -0.2760
     15  C15       17.6760    6.0660   -2.5940 C.3     1  MJG1        0.1149
     16  C16       17.7500    4.6910   -1.9260 C.3     1  MJG1        0.1152
     17  C17       19.3040    7.8770   -2.9280 C.2     1  MJG1        0.2262
     18  C18       20.6220    8.4330   -3.4160 C.3     1  MJG1        0.0948
     19  O19       18.5260    8.6390   -2.3890 O.2     1  MJG1       -0.2749
     20  S20       13.5260    1.5490   -4.1400 S.3     1  MJG1       -0.0790
     21  C21       11.8230    3.6540   -3.4980 C.ar    1  MJG1        0.1139
     22  C22       13.0470    3.2040   -3.8180 C.ar    1  MJG1        0.0805
     23  S23       14.1430    4.5720   -3.8870 S.2     1  MJG1       -0.0431
     24  C24       12.8250    5.6490   -3.4480 C.ar    1  MJG1        0.1866
     25  N25       11.7330    4.9610   -3.3180 N.ar    1  MJG1       -0.2204
     26  N26       12.9280    7.0280   -3.3380 N.am    1  MJG1       -0.1505
     27  C27       14.1040    7.6860   -3.4790 C.2     1  MJG1        0.2707
     28  C28       14.1370    9.1650   -3.4220 C.ar    1  MJG1        0.0554
     29  C29       15.3560    9.8500   -3.3230 C.ar    1  MJG1        0.0043
     30  C30       15.3720   11.2330   -3.2990 C.ar    1  MJG1       -0.0027
     31  C31       14.1850   11.9460   -3.3920 C.ar    1  MJG1       -0.0048
     32  C32       12.9750   11.2760   -3.5060 C.ar    1  MJG1       -0.0027
     33  C33       12.9480    9.8930   -3.5310 C.ar    1  MJG1        0.0043
     34  O34       15.1400    7.0770   -3.6930 O.2     1  MJG1       -0.2679
     35  C35       14.1970   13.4560   -3.3780 C.3     1  MJG1        0.1149
     36  N36       14.6390   14.0460   -4.6670 N.3     1  MJG1       -0.2147
     37  C37       14.1220   13.3900   -5.8930 C.3     1  MJG1        0.0731
     38  C38       15.1790   13.3410   -7.0270 C.3     1  MJG1        0.0148
     39  C39       16.2900   12.3700   -6.6240 C.3     1  MJG1        0.0014
     40  C40       14.5530   12.8360   -8.3320 C.3     1  MJG1        0.0014
     41  C41       15.8390   14.6950   -7.3090 C.3     1  MJG1        0.0014
     42  C42       13.4780   -0.0620   -1.5280 C.3     1  MJG1        0.0317
     43  C43       12.7880   14.0250   -6.3270 C.3     1  MJG1        0.0188
@<TRIPOS>BOND
     1    40    38    1
     2    41    38    1
     3    38    39    1
     4    38    37    1
     5    43    37    1
     6    37    36    1
     7    36    35    1
     8    20    22    1
     9    20     4    1
    10    23    22   ar
    11    23    24   ar
    12    22    21   ar
    13    13    14    1
    14    13    12    1
    15    34    27    2
    16    33    32   ar
    17    33    28   ar
    18    32    31   ar
    19    21    25   ar
    20    27    28    1
    21    27    26   am
    22    24    26    1
    23    24    25   ar
    24    28    29   ar
    25    18    17    1
    26    31    35    1
    27    31    30   ar
    28     3     4   ar
    29     3     2   ar
    30    29    30   ar
    31    11     9    2
    32    14    17   am
    33    14    15    1
    34     4     5   ar
    35    17    19    2
    36    12    10    1
    37     9    10   am
    38     9     2    1
    39    15    16    1
    40    10    16    1
    41     2     1   ar
    42     5    42    1
    43     5     6   ar
    44     1     6   ar
    45     1     7    1
    46     7     8    1
