@<TRIPOS>MOLECULE
3mj4_URM_D_1.pdb
 36 38 0 0 0
SMALL
GASTEIGER

@<TRIPOS>ATOM
      1  C1        79.3880  -69.6760   35.7150 C.3   600  URM600      0.2401
      2  C2        79.4900  -68.4960   36.7100 C.3   600  URM600      0.2319
      3  C3        79.5880  -69.1560   38.0740 C.3   600  URM600      0.2158
      4  C4        80.3510  -70.4350   37.7400 C.3   600  URM600      0.1799
      5  C5        80.3870  -71.5420   38.8080 C.3   600  URM600      0.1813
      6  O6        80.0490  -70.7750   36.3830 O.3   600  URM600     -0.3320
      7  O7        80.3770  -68.3400   38.9170 O.3   600  URM600     -0.2175
      8  O8        79.2670  -72.4040   38.5980 O.3   600  URM600     -0.3111
      9  P9        78.3390  -72.8360   39.8130 P.3   600  URM600      0.2208
     10  O10       79.0200  -72.4850   41.0980 O.3   600  URM600     -0.4371
     11  O11       78.2230  -74.3220   39.7630 O.2   600  URM600     -0.5170
     12  O12       76.9670  -72.0440   39.6640 O.3   600  URM600     -0.2485
     13  N13       78.0480  -69.9720   35.2650 N.am  600  URM600     -0.1766
     14  N15       76.2590  -69.4230   33.8440 N.2   600  URM600     -0.2452
     15  C17       76.0370  -71.1050   35.5780 C.2   600  URM600      0.1242
     16  C18       77.3070  -70.8890   35.9450 C.2   600  URM600      0.0929
     17  C19       77.4260  -69.3720   34.3350 C.1   600  URM600      0.2845
     18  O19       78.2320  -68.4030   33.6460 O.2   600  URM600     -0.1918
     19  C20       75.4690  -70.3270   34.4630 C.1   600  URM600      0.2182
     20  O20       74.2960  -70.4960   34.1480 O.2   600  URM600     -0.2085
     21  O21       80.5550  -67.5810   36.4270 O.3   600  URM600     -0.2157
     22  P22       76.4810  -70.8310   40.5910 P.3   600  URM600      0.3768
     23  O23       77.4930  -69.8030   40.9900 O.3   600  URM600     -0.1395
     24  O24       75.4970  -70.1060   39.7330 O.2   600  URM600     -0.2551
     25  O36       75.3720  -73.6130   42.0570 O.3   600  URM600     -0.3500
     26  C37       76.0820  -73.9790   43.2780 C.3   600  URM600      0.1809
     27  C38       75.1090  -73.9580   44.5000 C.3   600  URM600      0.2142
     28  C39       74.5130  -72.5170   44.6230 C.3   600  URM600      0.2172
     29  C40       73.7550  -72.1430   43.3220 C.3   600  URM600      0.2122
     30  C41       74.6750  -72.3280   42.0740 C.3   600  URM600      0.1604
     31  O42       74.0430  -74.9480   44.4240 O.3   600  URM600     -0.2176
     32  O43       73.5770  -72.4280   45.7200 O.3   600  URM600     -0.2175
     33  O44       73.1290  -70.8320   43.3790 O.3   600  URM600     -0.2177
     34  C45       75.7010  -71.3210   41.9110 C.3   600  URM600      0.1505
     35  C46       76.7870  -75.3550   43.0600 C.3   600  URM600      0.2141
     36  O47       77.4540  -75.8070   44.2620 O.3   600  URM600     -0.2176
@<TRIPOS>BOND
     1    18    17    2
     2    14    17    2
     3    14    19    2
     4    20    19    2
     5    17    13   am
     6    19    15    1
     7    13     1    1
     8    13    16    1
     9    15    16    2
    10     1     6    1
    11     1     2    1
    12     6     4    1
    13    21     2    1
    14     2     3    1
    15     4     3    1
    16     4     5    1
    17     3     7    1
    18     8     5    1
    19     8     9    1
    20    12     9    1
    21    12    22    1
    22    24    22    2
    23    11     9    2
    24     9    10    1
    25    22    23    1
    26    22    34    1
    27    34    30    1
    28    25    30    1
    29    25    26    1
    30    30    29    1
    31    35    26    1
    32    35    36    1
    33    26    27    1
    34    29    33    1
    35    29    28    1
    36    31    27    1
    37    27    28    1
    38    28    32    1
