@<TRIPOS>MOLECULE
3mj4_XYL_I_1.pdb
 10 9 0 0 0
SMALL
GASTEIGER

@<TRIPOS>ATOM
      1  C1        43.6400 -103.5500   32.8830 C.3   401  XYL401      0.2175
      2  C2        44.3930 -103.0090   34.1250 C.3   401  XYL401      0.2175
      3  C3        43.8530 -103.4950   35.4800 C.3   401  XYL401      0.2175
      4  C4        43.3890 -102.4240   36.4820 C.3   401  XYL401      0.2175
      5  C5        42.7900 -103.0060   37.7650 C.3   401  XYL401      0.2175
      6  O1        43.3190 -104.9290   32.7240 O.3   401  XYL401     -0.2175
      7  O2        45.7470 -103.2500   34.0750 O.3   401  XYL401     -0.2175
      8  O3        44.4970 -104.6080   36.0370 O.3   401  XYL401     -0.2175
      9  O4        44.3860 -101.5270   36.8270 O.3   401  XYL401     -0.2175
     10  O5        42.9400 -102.3090   38.9520 O.3   401  XYL401     -0.2175
@<TRIPOS>BOND
     1     6     1    1
     2     1     2    1
     3     7     2    1
     4     2     3    1
     5     3     8    1
     6     3     4    1
     7     4     9    1
     8     4     5    1
     9     5    10    1
