@<TRIPOS>MOLECULE
3mj4_UDP_A_1.pdb
 25 26 0 0 0
SMALL
GASTEIGER

@<TRIPOS>ATOM
      1  N1        19.5290 -104.8270   75.7360 N.am  500  UDP500     -0.1996
      2  C2        18.2870 -104.4790   75.2820 C.1   500  UDP500      0.2802
      3  N3        18.1540 -103.5260   74.2970 N.2   500  UDP500     -0.2497
      4  C4        19.2800 -102.9300   73.7870 C.1   500  UDP500      0.1941
      5  C5        20.5260 -103.3050   74.2730 C.3   500  UDP500      0.1579
      6  C6        20.5960 -104.0470   75.4410 C.3   500  UDP500      0.1249
      7  O2        17.3150 -105.0430   75.7730 O.2   500  UDP500     -0.1922
      8  O4        19.1780 -102.0750   72.9120 O.2   500  UDP500     -0.2133
      9  C1'       19.5860 -105.8540   76.7650 C.3   500  UDP500      0.2361
     10  C2'       19.6730 -107.1630   76.0130 C.3   500  UDP500      0.2316
     11  O2'       18.9970 -108.1600   76.7360 O.3   500  UDP500     -0.2157
     12  C3'       21.1690 -107.4010   75.9980 C.3   500  UDP500      0.2158
     13  C4'       21.5680 -106.8610   77.3500 C.3   500  UDP500      0.1799
     14  O4'       20.7830 -105.6960   77.4830 O.3   500  UDP500     -0.3322
     15  O3'       21.5410 -108.7400   75.8530 O.3   500  UDP500     -0.2175
     16  C5'       23.0400 -106.5320   77.4300 C.3   500  UDP500      0.1813
     17  O5'       23.4420 -105.9630   76.2140 O.3   500  UDP500     -0.3111
     18  PA        24.9550 -105.4690   76.0540 P.3   500  UDP500      0.2231
     19  O1A       25.4400 -104.8580   77.3200 O.3   500  UDP500     -0.4370
     20  O2A       25.0990 -104.5580   74.8810 O.2   500  UDP500     -0.5169
     21  O3A       25.7610 -106.8610   75.8640 O.3   500  UDP500     -0.2261
     22  PB        26.1670 -107.3800   74.3810 P.3   500  UDP500      0.5373
     23  O1B       24.9200 -107.9460   73.7990 O.3   500  UDP500     -0.1143
     24  O2B       27.2680 -108.3910   74.4220 O.3   500  UDP500     -0.1143
     25  O3B       26.6090 -106.2300   73.5350 O.2   500  UDP500     -0.2221
@<TRIPOS>BOND
     1     8     4    2
     2    25    22    2
     3     4     5    1
     4     4     3    2
     5    23    22    1
     6     5     6    1
     7     3     2    2
     8    22    24    1
     9    22    21    1
    10    20    18    2
    11     2     1   am
    12     2     7    2
    13     6     1    1
    14     1     9    1
    15    15    12    1
    16    21    18    1
    17    12    10    1
    18    12    13    1
    19    10    11    1
    20    10     9    1
    21    18    17    1
    22    18    19    1
    23    17    16    1
    24     9    14    1
    25    13    16    1
    26    13    14    1
