@<TRIPOS>MOLECULE
3mj5_GRM_A_1.pdb
 31 35 0 0 0
SMALL
GASTEIGER

@<TRIPOS>ATOM
      1  C1       -18.6210   46.2440  -39.0660 C.3   801  GRM801      0.0801
      2  C2       -19.6270   46.3800  -37.8630 C.3   801  GRM801      0.0222
      3  C3       -18.7120   44.8990  -39.9200 C.ar  801  GRM801     -0.0078
      4  N4       -17.1030   46.6510  -38.7930 N.3   801  GRM801     -0.2703
      5  C5       -16.0200   45.7380  -39.3450 C.3   801  GRM801      0.0728
      6  C6       -14.5370   46.0460  -38.9090 C.3   801  GRM801      0.0265
      7  C7       -14.3630   47.5270  -38.5190 C.3   801  GRM801      0.0810
      8  C8       -15.3610   47.9260  -37.3880 C.3   801  GRM801      0.0265
      9  C9       -16.7080   47.1220  -37.3970 C.3   801  GRM801      0.0728
     10  C10      -12.9130   47.7370  -38.0830 C.2   801  GRM801      0.2413
     11  O11      -12.6270   47.7180  -36.8950 O.2   801  GRM801     -0.2733
     12  N12      -11.9620   47.9310  -39.0380 N.am  801  GRM801     -0.2006
     13  C13      -10.5530   48.1280  -38.6590 C.3   801  GRM801      0.1416
     14  C14       -9.6790   48.2140  -39.9130 C.ar  801  GRM801      0.0027
     15  C15       -9.8320   47.2170  -40.9310 C.ar  801  GRM801      0.0376
     16  C16       -9.0180   47.3230  -42.0720 C.ar  801  GRM801      0.1762
     17  C17       -8.0800   48.3570  -42.2330 C.ar  801  GRM801      0.1764
     18  C18       -7.9000   49.3780  -41.2350 C.ar  801  GRM801      0.0399
     19  C19       -8.7280   49.2830  -40.0640 C.ar  801  GRM801      0.0008
     20  O20       -9.0430   46.4560  -43.1300 O.3   801  GRM801     -0.4346
     21  C21       -8.2290   47.2260  -44.0850 C.3   801  GRM801      0.4294
     22  O22       -7.3980   48.2470  -43.4430 O.3   801  GRM801     -0.4346
     23  C23      -18.6430   44.8190  -41.3750 C.ar  801  GRM801     -0.0027
     24  C24      -18.7370   43.5070  -42.0220 C.ar  801  GRM801     -0.0003
     25  C25      -18.8860   42.3430  -41.2370 C.ar  801  GRM801     -0.0000
     26  C26      -18.9390   42.4160  -39.8220 C.ar  801  GRM801     -0.0003
     27  C27      -18.8600   43.6620  -39.1730 C.ar  801  GRM801     -0.0030
     28  C28      -18.5040   45.9530  -42.2370 C.ar  801  GRM801     -0.0003
     29  C29      -18.4640   45.8050  -43.6490 C.ar  801  GRM801     -0.0000
     30  C30      -18.5500   44.5130  -44.2410 C.ar  801  GRM801     -0.0000
     31  C31      -18.6920   43.3640  -43.4320 C.ar  801  GRM801     -0.0000
@<TRIPOS>BOND
     1    30    29   ar
     2    30    31   ar
     3    21    22    1
     4    21    20    1
     5    29    28   ar
     6    22    17    1
     7    31    24   ar
     8    20    16    1
     9    28    23   ar
    10    17    16   ar
    11    17    18   ar
    12    16    15   ar
    13    24    23   ar
    14    24    25   ar
    15    23     3   ar
    16    25    26   ar
    17    18    19   ar
    18    15    14   ar
    19    19    14   ar
    20     3    27   ar
    21     3     1    1
    22    14    13    1
    23    26    27   ar
    24     5     6    1
    25     5     4    1
    26     1     4    1
    27     1     2    1
    28    12    13    1
    29    12    10   am
    30     6     7    1
    31     4     9    1
    32     7    10    1
    33     7     8    1
    34    10    11    2
    35     9     8    1
