@<TRIPOS>MOLECULE
3mj9_FUC_A_1.pdb
 10 10 0 0 0
SMALL
GASTEIGER

@<TRIPOS>ATOM
      1  C1        -3.4000  -55.8550  -32.5640 C.3   506  FUC506      0.1776
      2  C2        -2.8350  -55.0640  -33.7330 C.3   506  FUC506      0.2141
      3  C3        -3.9490  -54.3880  -34.5190 C.3   506  FUC506      0.2172
      4  C4        -4.8580  -53.6000  -33.5860 C.3   506  FUC506      0.2116
      5  C5        -5.3310  -54.4790  -32.4340 C.3   506  FUC506      0.1483
      6  C6        -6.1800  -53.6790  -31.4530 C.3   506  FUC506      0.0349
      7  O2        -2.1580  -55.9610  -34.5810 O.3   506  FUC506     -0.2176
      8  O3        -3.3910  -53.5250  -35.4850 O.3   506  FUC506     -0.2175
      9  O4        -4.1640  -52.4830  -33.0770 O.3   506  FUC506     -0.2177
     10  O5        -4.2130  -55.0200  -31.7610 O.3   506  FUC506     -0.3508
@<TRIPOS>BOND
     1     8     3    1
     2     7     2    1
     3     3     2    1
     4     3     4    1
     5     2     1    1
     6     4     9    1
     7     4     5    1
     8     1    10    1
     9     5    10    1
    10     5     6    1
