@<TRIPOS>MOLECULE
3mje_NDP_A_1.pdb
 48 52 0 0 0
SMALL
GASTEIGER

@<TRIPOS>ATOM
      1  PA       -19.3860   17.6600  -18.0600 P.3   476  NDP476      0.2189
      2  O1A      -20.2530   18.5300  -17.1840 O.3   476  NDP476     -0.4371
      3  O2A      -19.7860   17.4600  -19.5260 O.2   476  NDP476     -0.5170
      4  O5B      -17.8440   18.1260  -17.9060 O.3   476  NDP476     -0.3112
      5  C5B      -16.7620   17.5950  -18.6700 C.3   476  NDP476      0.1813
      6  C4B      -15.9520   18.7470  -19.1540 C.3   476  NDP476      0.1820
      7  O4B      -14.8100   18.3720  -19.8760 O.3   476  NDP476     -0.3136
      8  C3B      -16.5440   19.9960  -19.6580 C.3   476  NDP476      0.2157
      9  O3B      -15.9430   21.1580  -19.0300 O.3   476  NDP476     -0.2175
     10  C2B      -15.9650   19.9010  -21.0580 C.3   476  NDP476      0.2314
     11  O2B      -15.9110   21.2070  -21.6580 O.3   476  NDP476     -0.2630
     12  C1B      -14.5320   19.4090  -20.8400 C.3   476  NDP476      0.3158
     13  N9A      -13.9320   18.6660  -21.9620 N.pl3 476  NDP476     -0.1439
     14  C8A      -14.4250   17.7270  -22.7920 C.3   476  NDP476      0.3377
     15  N7A      -13.4700   17.3940  -23.7060 N.2   476  NDP476     -0.2095
     16  C5A      -12.3840   18.1470  -23.4690 C.2   476  NDP476      0.2526
     17  C6A      -11.1140   18.2970  -24.0290 C.2   476  NDP476      0.4393
     18  N6A      -10.6950   17.5660  -25.1440 N.pl3 476  NDP476      0.2180
     19  N1A      -10.2760   19.2330  -23.4670 N.2   476  NDP476      0.0021
     20  C2A      -10.6190   20.0330  -22.3750 C.3   476  NDP476      0.5254
     21  N3A      -11.8440   19.9110  -21.7980 N.2   476  NDP476     -0.0055
     22  C4A      -12.7050   18.9770  -22.3860 C.2   476  NDP476      0.3518
     23  O3       -19.2220   16.1870  -17.3120 O.3   476  NDP476     -0.2703
     24  PN       -18.9870   15.9020  -15.7260 P.3   476  NDP476      0.2189
     25  O1N      -20.1400   15.0430  -15.2000 O.2   476  NDP476     -0.5170
     26  O2N      -18.6110   17.1330  -15.0660 O.3   476  NDP476     -0.4371
     27  O5D      -17.8000   14.8130  -15.9410 O.3   476  NDP476     -0.3112
     28  C5D      -16.5060   15.1760  -15.4620 C.3   476  NDP476      0.1813
     29  C4D      -15.5710   13.9790  -15.4930 C.3   476  NDP476      0.1799
     30  O4D      -16.0650   12.9650  -14.6110 O.3   476  NDP476     -0.3327
     31  C3D      -15.5450   13.3580  -16.9020 C.3   476  NDP476      0.2158
     32  O3D      -14.1690   13.0960  -17.2330 O.3   476  NDP476     -0.2175
     33  C2D      -16.3300   12.0520  -16.8730 C.3   476  NDP476      0.2309
     34  O2D      -15.7650   11.0390  -17.7660 O.3   476  NDP476     -0.2158
     35  C1D      -16.3130   11.7200  -15.3350 C.3   476  NDP476      0.2263
     36  N1N      -17.5620   11.0300  -14.8160 N.pl3 476  NDP476     -0.2787
     37  C2N      -18.7300   11.6930  -14.5740 C.3   476  NDP476      0.1244
     38  C3N      -19.8620   11.0170  -14.0420 C.2   476  NDP476      0.0544
     39  C7N      -21.2200   11.6700  -13.7840 C.2   476  NDP476      0.2818
     40  O7N      -22.1470   11.0020  -13.3000 O.2   476  NDP476     -0.2670
     41  N7N      -21.4220   12.9740  -14.1250 N.am  476  NDP476     -0.0839
     42  C4N      -19.6980    9.6500  -13.7860 C.2   476  NDP476      0.0033
     43  C5N      -18.4540    9.0370  -14.0130 C.2   476  NDP476      0.0157
     44  C6N      -17.3910    9.7410  -14.5510 C.2   476  NDP476      0.0633
     45  P2B      -15.7100   21.5480  -23.2690 P.3   476  NDP476      0.5328
     46  O1X      -15.9760   23.0830  -23.2930 O.3   476  NDP476     -0.1145
     47  O2X      -14.3360   21.0140  -23.5460 O.3   476  NDP476     -0.1145
     48  O3X      -16.8190   20.7780  -24.0270 O.2   476  NDP476     -0.2224
@<TRIPOS>BOND
     1    18    17    1
     2    17    16    1
     3    17    19    2
     4    48    45    2
     5    15    16    2
     6    15    14    1
     7    47    45    1
     8    16    22    1
     9    19    20    1
    10    46    45    1
    11    45    11    1
    12    14    13    1
    13    22    13    1
    14    22    21    2
    15    20    21    1
    16    13    12    1
    17    11    10    1
    18    10    12    1
    19    10     8    1
    20    12     7    1
    21     7     6    1
    22     8     6    1
    23     8     9    1
    24     3     1    2
    25     6     5    1
    26     5     4    1
    27     1     4    1
    28     1    23    1
    29     1     2    1
    30    34    33    1
    31    23    24    1
    32    32    31    1
    33    31    33    1
    34    31    29    1
    35    33    35    1
    36    27    24    1
    37    27    28    1
    38    24    25    2
    39    24    26    1
    40    29    28    1
    41    29    30    1
    42    35    36    1
    43    35    30    1
    44    36    37    1
    45    36    44    1
    46    37    38    1
    47    44    43    2
    48    41    39   am
    49    38    42    2
    50    38    39    1
    51    43    42    1
    52    39    40    2
