@<TRIPOS>MOLECULE
3mjh_GTP_A_1.pdb
 32 34 0 0 0
SMALL
GASTEIGER

@<TRIPOS>ATOM
      1  PG        19.9780   34.9080    0.8600 P.3   200  GTP200      0.5373
      2  O1G       20.0230   33.4500    0.4820 O.2   200  GTP200     -0.2221
      3  O2G       21.3320   35.3830    1.3240 O.3   200  GTP200     -0.1143
      4  O3G       18.9650   35.0670    1.9730 O.3   200  GTP200     -0.1143
      5  O3B       19.5150   35.7160   -0.4840 O.3   200  GTP200     -0.2258
      6  PB        19.4740   37.3250   -0.6810 P.3   200  GTP200      0.2277
      7  O1B       18.1340   37.8750   -0.2670 O.2   200  GTP200     -0.5168
      8  O2B       20.6240   38.0300   -0.0210 O.3   200  GTP200     -0.4368
      9  O3A       19.5270   37.4940   -2.2890 O.3   200  GTP200     -0.2700
     10  PA        20.8130   37.9430   -3.1760 P.3   200  GTP200      0.2189
     11  O1A       21.2370   39.3650   -2.8960 O.3   200  GTP200     -0.4371
     12  O2A       21.9870   37.0010   -3.0350 O.2   200  GTP200     -0.5170
     13  O5'       20.2020   37.8250   -4.6530 O.3   200  GTP200     -0.3112
     14  C5'       19.7980   36.5810   -5.2030 C.3   200  GTP200      0.1813
     15  C4'       19.8460   36.6830   -6.7270 C.3   200  GTP200      0.1799
     16  O4'       18.9650   37.7150   -7.1630 O.3   200  GTP200     -0.3326
     17  C3'       21.2260   37.0650   -7.2350 C.3   200  GTP200      0.2158
     18  O3'       21.4210   36.4610   -8.4990 O.3   200  GTP200     -0.2175
     19  C2'       21.1290   38.5600   -7.4320 C.3   200  GTP200      0.2310
     20  O2'       22.0510   39.0150   -8.3930 O.3   200  GTP200     -0.2158
     21  C1'       19.6790   38.6990   -7.8860 C.3   200  GTP200      0.2293
     22  N9        19.1070   40.0340   -7.6300 N.pl3 200  GTP200     -0.2354
     23  C8        19.1650   40.7410   -6.4610 C.3   200  GTP200      0.2246
     24  N7        18.5230   41.9140   -6.6410 N.2   200  GTP200     -0.2322
     25  C5        18.0520   41.9780   -7.9110 C.2   200  GTP200      0.2182
     26  C6        17.3340   42.9510   -8.6090 C.1   200  GTP200      0.2372
     27  O6        17.0170   44.0040   -8.0590 O.2   200  GTP200     -0.2069
     28  N1        16.9780   42.7280   -9.9280 N.2   200  GTP200     -0.2485
     29  C2        17.3530   41.5310  -10.5400 C.1   200  GTP200      0.2531
     30  N2        17.0260   41.2960  -11.8000 N.pl3 200  GTP200     -0.0226
     31  N3        18.0730   40.5750   -9.8480 N.2   200  GTP200     -0.3074
     32  C4        18.4160   40.7920   -8.5480 C.2   200  GTP200      0.2300
@<TRIPOS>BOND
     1    30    29    1
     2    29    28    2
     3    29    31    2
     4    28    26    2
     5    31    32    2
     6    26    27    2
     7    26    25    1
     8    32    25    1
     9    32    22    1
    10    18    17    1
    11    20    19    1
    12    25    24    2
    13    21    22    1
    14    21    19    1
    15    21    16    1
    16    22    23    1
    17    19    17    1
    18    17    15    1
    19    16    15    1
    20    15    14    1
    21    24    23    1
    22    14    13    1
    23    13    10    1
    24    10    12    2
    25    10    11    1
    26    10     9    1
    27     9     6    1
    28     6     5    1
    29     6     7    2
    30     6     8    1
    31     5     1    1
    32     2     1    2
    33     1     3    1
    34     1     4    1
