@<TRIPOS>MOLECULE
3mjm_DOR_A_1.pdb
 11 11 0 0 0
SMALL
GASTEIGER

@<TRIPOS>ATOM
      1  O2        24.8120   37.6160   72.6190 O.2   1410  DOR1410    -0.1881
      2  C2        25.6390   38.5400   72.6280 C.1   1410  DOR1410     0.3067
      3  N1        25.1820   39.8080   72.5830 N.2   1410  DOR1410    -0.1649
      4  N3        26.9710   38.3650   72.6120 N.2   1410  DOR1410    -0.2467
      5  C4        27.7870   39.2950   72.0020 C.1   1410  DOR1410     0.1951
      6  O4        28.9210   39.0980   71.5800 O.2   1410  DOR1410    -0.2133
      7  C5        27.2930   40.7420   71.8340 C.3   1410  DOR1410     0.1724
      8  C6        26.0620   40.9670   72.6920 C.3   1410  DOR1410     0.2370
      9  C7        25.3150   42.2250   72.2940 C.2   1410  DOR1410     0.3887
     10  O72       25.8810   43.3480   72.4300 O.co2 1410  DOR1410    -0.2434
     11  O71       24.1410   42.0960   71.8840 O.co2 1410  DOR1410    -0.2434
@<TRIPOS>BOND
     1     6     5    2
     2     7     5    1
     3     7     8    1
     4    11     9   ar
     5     5     4    2
     6     9    10   ar
     7     9     8    1
     8     3     2    2
     9     3     8    1
    10     4     2    2
    11     1     2    2
