@<TRIPOS>MOLECULE
3mjm_NCD_B_1.pdb
 12 11 0 0 0
SMALL
GASTEIGER

@<TRIPOS>ATOM
      1  C6         6.8980   18.7470   61.2010 C.3   2410  NCD2410     0.2106
      2  C61        5.5750   19.3710   61.5550 C.2   2410  NCD2410     0.3848
      3  O61        4.5570   18.6710   61.3570 O.co2 2410  NCD2410    -0.2437
      4  O62        5.4930   20.5270   62.0730 O.co2 2410  NCD2410    -0.2437
      5  N1         7.9500   19.6880   61.5850 N.am  2410  NCD2410    -0.1754
      6  C2         9.2620   19.4920   61.4510 C.2   2410  NCD2410     0.3594
      7  O2        10.0430   20.3300   61.8700 O.2   2410  NCD2410    -0.2474
      8  N3         9.7550   18.3950   60.8710 N.am  2410  NCD2410    -0.0679
      9  C5         6.9350   17.3840   61.9280 C.3   2410  NCD2410     0.1473
     10  C4         7.9660   16.3360   61.4980 C.2   2410  NCD2410     0.3672
     11  O4         8.2000   15.9950   60.3130 O.co2 2410  NCD2410    -0.2456
     12  O5         8.6030   15.8250   62.4240 O.co2 2410  NCD2410    -0.2456
@<TRIPOS>BOND
     1    11    10   ar
     2     8     6   am
     3     1     2    1
     4     1     5    1
     5     1     9    1
     6     3     2   ar
     7     6     5   am
     8     6     7    2
     9    10     9    1
    10    10    12   ar
    11     2     4   ar
