@<TRIPOS>MOLECULE
3mjn_RNP_A_1.pdb
 19 20 0 0 0
SMALL
GASTEIGER

@<TRIPOS>ATOM
      1  C1       -17.4280   14.7810   15.8470 C.ar  691  RNP691      0.1386
      2  C2       -16.7690   13.7690   15.1400 C.ar  691  RNP691      0.0369
      3  C3       -17.4540   12.9700   14.2320 C.ar  691  RNP691      0.0031
      4  C4       -18.8200   13.1840   14.0320 C.ar  691  RNP691      0.0002
      5  C5       -20.8790   14.3750   14.5400 C.ar  691  RNP691      0.0001
      6  C6       -21.5580   15.3760   15.2450 C.ar  691  RNP691      0.0000
      7  C7       -20.8700   16.1870   16.1520 C.ar  691  RNP691      0.0001
      8  C8       -19.5000   15.9980   16.3560 C.ar  691  RNP691      0.0030
      9  C9       -18.8070   14.9880   15.6620 C.ar  691  RNP691      0.0340
     10  C10      -19.5060   14.1770   14.7470 C.ar  691  RNP691      0.0029
     11  O1       -16.7070   15.5530   16.7280 O.3   691  RNP691     -0.4727
     12  C11      -15.8890   16.6660   16.3280 C.3   691  RNP691      0.2395
     13  C12      -15.5530   17.4500   17.6020 C.3   691  RNP691      0.2126
     14  O2       -16.7790   17.9390   18.1840 O.3   691  RNP691     -0.2176
     15  C13      -14.5380   18.5790   17.3520 C.3   691  RNP691      0.1253
     16  N1       -15.0590   19.9230   17.5940 N.3   691  RNP691     -0.2167
     17  C14      -15.7950   20.3070   18.8040 C.3   691  RNP691      0.0730
     18  C15      -14.9870   21.3260   19.5920 C.3   691  RNP691      0.0188
     19  C16      -17.2050   20.8370   18.4950 C.3   691  RNP691      0.0188
@<TRIPOS>BOND
     1     4     3   ar
     2     4    10   ar
     3     3     2   ar
     4     5    10   ar
     5     5     6   ar
     6    10     9   ar
     7     2     1   ar
     8     6     7   ar
     9     9     1   ar
    10     9     8   ar
    11     1    11    1
    12     7     8   ar
    13    12    11    1
    14    12    13    1
    15    15    16    1
    16    15    13    1
    17    16    17    1
    18    13    14    1
    19    19    17    1
    20    17    18    1
