@<TRIPOS>MOLECULE
3mjp_HEM_A_1.pdb
 43 50 0 0 0
SMALL
GASTEIGER

@<TRIPOS>ATOM
      1  CHA       -2.5070   38.0390   18.6630 C.2   150  HEM150      0.0000
      2  CHB       -5.4250   34.1950   18.4330 C.2   150  HEM150      0.0000
      3  CHC       -2.2770   31.3010   20.6070 C.2   150  HEM150      0.0000
      4  CHD        0.2850   35.3250   21.6480 C.2   150  HEM150      0.0000
      5  C1A       -3.5810   37.2390   18.3760 C.ar  150  HEM150      0.0000
      6  C2A       -4.7470   37.6520   17.6120 C.ar  150  HEM150      0.0000
      7  C3A       -5.5470   36.5690   17.5540 C.ar  150  HEM150      0.0000
      8  C4A       -4.9420   35.4660   18.2710 C.ar  150  HEM150      0.0000
      9  CMA       -6.8740   36.5410   16.8280 C.3   150  HEM150      0.0000
     10  CAA       -4.9720   39.0810   17.0030 C.3   150  HEM150      0.0000
     11  CBA       -4.2940   39.1450   15.6140 C.3   150  HEM150      0.0000
     12  CGA       -4.9420   40.0140   14.5330 C.2   150  HEM150      0.0000
     13  O1A       -4.2480   40.2230   13.4990 O.co2 150  HEM150      0.0000
     14  O2A       -6.1180   40.4840   14.6810 O.co2 150  HEM150      0.0000
     15  C1B       -4.8360   33.0450   18.9010 C.2   150  HEM150      0.0000
     16  C2B       -5.3440   31.7110   18.7550 C.2   150  HEM150      0.0000
     17  C3B       -4.4910   30.8930   19.3650 C.2   150  HEM150      0.0000
     18  C4B       -3.3950   31.6730   19.9010 C.2   150  HEM150      0.0000
     19  CMB       -6.6630   31.3190   18.0280 C.3   150  HEM150      0.0000
     20  CAB       -4.6660   29.3790   19.4450 C.2   150  HEM150      0.0000
     21  CBB       -5.8070   28.9010   19.9430 C.2   150  HEM150      0.0000
     22  C1C       -1.4260   32.1580   21.2760 C.ar  150  HEM150      0.0000
     23  C2C       -0.6140   31.9340   22.4730 C.ar  150  HEM150      0.0000
     24  C3C        0.0900   33.0360   22.7180 C.ar  150  HEM150      0.0000
     25  C4C       -0.2580   34.0280   21.7390 C.ar  150  HEM150      0.0000
     26  CMC       -0.5220   30.6140   23.3150 C.3   150  HEM150      0.0000
     27  CAC        1.0580   33.2800   23.8940 C.2   150  HEM150      0.0000
     28  CBC        2.1170   32.4990   24.1240 C.2   150  HEM150      0.0000
     29  C1D       -0.1510   36.4140   20.9500 C.2   150  HEM150      0.0000
     30  C2D        0.3550   37.7750   21.0050 C.2   150  HEM150      0.0000
     31  C3D       -0.5390   38.6620   20.0660 C.2   150  HEM150      0.0000
     32  C4D       -1.4950   37.7200   19.5410 C.2   150  HEM150      0.0000
     33  CMD        1.5570   38.2190   21.8680 C.3   150  HEM150      0.0000
     34  CAD       -0.4110   40.1750   19.7320 C.3   150  HEM150      0.0000
     35  CBD       -1.6300   41.1030   19.8740 C.3   150  HEM150      0.0000
     36  CGD       -1.4260   42.3490   20.7640 C.2   150  HEM150      0.0000
     37  O1D       -2.4600   42.7120   21.3980 O.co2 150  HEM150      0.0000
     38  O2D       -0.3230   43.0080   20.8300 O.co2 150  HEM150      0.0000
     39  NA        -3.7570   35.9030   18.7550 N.ar  150  HEM150      0.0000
     40  NB        -3.6560   32.9680   19.5840 N.2   150  HEM150      0.0000
     41  NC        -1.1850   33.4550   20.8730 N.ar  150  HEM150      0.0000
     42  ND        -1.2190   36.4150   20.0730 N.2   150  HEM150      0.0000
     43 FE         -2.4080   34.6150   19.8240 Fe    150  HEM150      0.0000
@<TRIPOS>BOND
     1    13    12   ar
     2    12    14   ar
     3    12    11    1
     4    11    10    1
     5     9     7    1
     6    10     6    1
     7     7     6   ar
     8     7     8   ar
     9     6     5   ar
    10    19    16    1
    11     8     2    2
    12     8    39   ar
    13     5     1    2
    14     5    39   ar
    15     2    15    1
    16     1    32    1
    17    16    15    1
    18    16    17    2
    19    39    43    1
    20    15    40    2
    21    17    20    1
    22    17    18    1
    23    20    21    2
    24    32    31    1
    25    32    42    2
    26    40    43    1
    27    40    18    1
    28    34    35    1
    29    34    31    1
    30    43    42    1
    31    43    41    1
    32    35    36    1
    33    18     3    2
    34    31    30    2
    35    42    29    1
    36     3    22    1
    37    36    38   ar
    38    36    37   ar
    39    41    22   ar
    40    41    25   ar
    41    29    30    1
    42    29     4    2
    43    30    33    1
    44    22    23   ar
    45     4    25    1
    46    25    24   ar
    47    23    24   ar
    48    23    26    1
    49    24    27    1
    50    27    28    2
