@<TRIPOS>MOLECULE
3mjr_UDP_A_1.pdb
 25 26 0 0 0
SMALL
GASTEIGER

@<TRIPOS>ATOM
      1  N1        -2.7880   10.2890   15.2520 N.am  261  UDP261     -0.1996
      2  C2        -3.5350    9.3830   16.0060 C.1   261  UDP261      0.2802
      3  N3        -4.3910    9.8470   16.9970 N.2   261  UDP261     -0.2497
      4  C4        -4.4930   11.2110   17.2320 C.1   261  UDP261      0.1941
      5  C5        -3.7350   12.1100   16.4810 C.3   261  UDP261      0.1579
      6  C6        -2.7460   11.6020   15.6440 C.3   261  UDP261      0.1249
      7  O2        -3.4560    8.1670   15.8120 O.2   261  UDP261     -0.1922
      8  O4        -5.2450   11.6320   18.1080 O.2   261  UDP261     -0.2133
      9  C1'       -1.8780    9.8180   14.1860 C.3   261  UDP261      0.2361
     10  C2'       -2.2830   10.2830   12.7880 C.3   261  UDP261      0.2316
     11  O2'       -3.2850    9.4870   12.1780 O.3   261  UDP261     -0.2157
     12  C3'       -0.9700   10.2040   12.0300 C.3   261  UDP261      0.2158
     13  C4'        0.0910   10.3940   13.1070 C.3   261  UDP261      0.1799
     14  O4'       -0.5710   10.3410   14.3540 O.3   261  UDP261     -0.3322
     15  O3'       -0.8280    8.9290   11.4240 O.3   261  UDP261     -0.2175
     16  C5'        0.8200   11.7280   12.9720 C.3   261  UDP261      0.1813
     17  O5'       -0.1260   12.7780   13.0420 O.3   261  UDP261     -0.3111
     18  PA        -0.0030   14.1090   12.1600 P.3   261  UDP261      0.2231
     19  O1A        0.6040   13.8560   10.8380 O.2   261  UDP261     -0.5169
     20  O2A       -1.3380   14.7600   12.0070 O.3   261  UDP261     -0.4370
     21  O3A        0.9830   14.9610   13.0760 O.3   261  UDP261     -0.2261
     22  PB         1.5440   16.3920   12.6210 P.3   261  UDP261      0.5373
     23  O1B        0.6100   16.9850   11.6490 O.2   261  UDP261     -0.2221
     24  O2B        2.8650   16.2560   11.9710 O.3   261  UDP261     -0.1143
     25  O3B        1.6450   17.1970   13.8500 O.3   261  UDP261     -0.1143
@<TRIPOS>BOND
     1    19    18    2
     2    15    12    1
     3    23    22    2
     4    24    22    1
     5    20    18    1
     6    12    10    1
     7    12    13    1
     8    18    17    1
     9    18    21    1
    10    11    10    1
    11    22    21    1
    12    22    25    1
    13    10     9    1
    14    16    17    1
    15    16    13    1
    16    13    14    1
    17     9    14    1
    18     9     1    1
    19     1     6    1
    20     1     2   am
    21     6     5    1
    22     7     2    2
    23     2     3    2
    24     5     4    1
    25     3     4    2
    26     4     8    2
