@<TRIPOS>MOLECULE
3mjr_AC2_A_1.pdb
 16 17 0 0 0
SMALL
GASTEIGER

@<TRIPOS>ATOM
      1  C3'       12.9480   18.3630   10.7720 C.3   301  AC2301      0.2141
      2  O3'       12.2730   18.5780   12.0160 O.3   301  AC2301     -0.2176
      3  C2'       12.1740   17.3590    9.9280 C.3   301  AC2301      0.1796
      4  O1'       10.9240   17.9340    9.5520 O.3   301  AC2301     -0.3314
      5  C1'       10.9180   18.3500    8.1880 C.3   301  AC2301      0.2438
      6  N9        11.2400   19.7740    8.1130 N.pl3 301  AC2301     -0.2341
      7  C8        12.4610   20.2860    7.9050 C.3   301  AC2301      0.2246
      8  N7        12.3760   21.6350    7.8960 N.2   301  AC2301     -0.2322
      9  C5        11.0880   21.9720    8.1010 C.2   301  AC2301      0.2182
     10  C6        10.4190   23.1930    8.1840 C.1   301  AC2301      0.2372
     11  O6        11.0810   24.3760    8.0590 O.2   301  AC2301     -0.2069
     12  N1         9.0870   23.1990    8.4000 N.2   301  AC2301     -0.2485
     13  C2         8.4080   22.0380    8.5330 C.1   301  AC2301      0.2531
     14  N2         7.0810   22.0870    8.7460 N.pl3 301  AC2301     -0.0226
     15  N3         9.0350   20.8390    8.4510 N.2   301  AC2301     -0.3074
     16  C4        10.3750   20.7880    8.2380 C.2   301  AC2301      0.2300
@<TRIPOS>BOND
     1     8     7    1
     2     8     9    2
     3     7     6    1
     4    11    10    2
     5     9    10    1
     6     9    16    1
     7     6     5    1
     8     6    16    1
     9    10    12    2
    10     5     4    1
    11    16    15    2
    12    12    13    2
    13    15    13    2
    14    13    14    1
    15     4     3    1
    16     3     1    1
    17     1     2    1
