@<TRIPOS>MOLECULE
3mjs_NDP_A_1.pdb
 48 52 0 0 0
SMALL
GASTEIGER

@<TRIPOS>ATOM
      1  PA       -19.5550   17.5630  -17.9910 P.3   476  NDP476      0.2189
      2  O1A      -20.3940   18.4370  -17.1190 O.3   476  NDP476     -0.4371
      3  O2A      -19.9740   17.3740  -19.3970 O.2   476  NDP476     -0.5170
      4  O5B      -18.0840   18.1530  -17.8790 O.3   476  NDP476     -0.3112
      5  C5B      -17.0840   17.5840  -18.7070 C.3   476  NDP476      0.1813
      6  C4B      -16.1720   18.7090  -19.1250 C.3   476  NDP476      0.1820
      7  O4B      -14.9790   18.2930  -19.8520 O.3   476  NDP476     -0.3136
      8  C3B      -16.6750   19.9440  -19.6390 C.3   476  NDP476      0.2157
      9  O3B      -16.0820   21.1020  -18.9390 O.3   476  NDP476     -0.2175
     10  C2B      -16.1810   19.8210  -21.0840 C.3   476  NDP476      0.2314
     11  O2B      -16.1250   21.1260  -21.6580 O.3   476  NDP476     -0.2630
     12  C1B      -14.8210   19.2630  -20.8690 C.3   476  NDP476      0.3158
     13  N9A      -14.1550   18.5910  -21.9580 N.pl3 476  NDP476     -0.1439
     14  C8A      -14.6710   17.6230  -22.7020 C.3   476  NDP476      0.3377
     15  N7A      -13.7020   17.2510  -23.6160 N.2   476  NDP476     -0.2095
     16  C5A      -12.5840   18.0020  -23.4330 C.2   476  NDP476      0.2526
     17  C6A      -11.3390   18.1090  -24.0100 C.2   476  NDP476      0.4393
     18  N6A      -10.9710   17.4510  -25.1230 N.pl3 476  NDP476      0.2180
     19  N1A      -10.5250   19.1180  -23.5470 N.2   476  NDP476      0.0021
     20  C2A      -10.8630   19.8470  -22.4730 C.3   476  NDP476      0.5254
     21  N3A      -12.0890   19.8350  -21.9090 N.2   476  NDP476     -0.0055
     22  C4A      -12.8940   18.8710  -22.4130 C.2   476  NDP476      0.3518
     23  O3       -19.3960   16.1430  -17.1760 O.3   476  NDP476     -0.2703
     24  PN       -19.1500   15.8370  -15.6890 P.3   476  NDP476      0.2189
     25  O1N      -20.3650   15.0590  -15.2370 O.2   476  NDP476     -0.5170
     26  O2N      -18.7380   17.0990  -14.9270 O.3   476  NDP476     -0.4371
     27  O5D      -17.9880   14.7250  -15.8100 O.3   476  NDP476     -0.3112
     28  C5D      -16.7220   15.1240  -15.3950 C.3   476  NDP476      0.1813
     29  C4D      -15.7680   13.9340  -15.3880 C.3   476  NDP476      0.1799
     30  O4D      -16.3290   12.9120  -14.5550 O.3   476  NDP476     -0.3327
     31  C3D      -15.7340   13.2770  -16.7880 C.3   476  NDP476      0.2158
     32  O3D      -14.3600   12.9290  -17.1310 O.3   476  NDP476     -0.2175
     33  C2D      -16.5720   12.0980  -16.7080 C.3   476  NDP476      0.2309
     34  O2D      -16.1860   11.0050  -17.5920 O.3   476  NDP476     -0.2158
     35  C1D      -16.4500   11.6300  -15.2530 C.3   476  NDP476      0.2263
     36  N1N      -17.6420   10.9320  -14.7780 N.pl3 476  NDP476     -0.2787
     37  C2N      -18.8210   11.6070  -14.5410 C.3   476  NDP476      0.1244
     38  C3N      -19.9390   10.9150  -14.0430 C.2   476  NDP476      0.0544
     39  C7N      -21.2440   11.5660  -13.7370 C.2   476  NDP476      0.2818
     40  O7N      -22.1310   10.8890  -13.2430 O.2   476  NDP476     -0.2670
     41  N7N      -21.4240   12.8740  -14.0900 N.am  476  NDP476     -0.0839
     42  C4N      -19.8500    9.5080  -13.7490 C.2   476  NDP476      0.0033
     43  C5N      -18.6270    8.8920  -13.9120 C.2   476  NDP476      0.0157
     44  C6N      -17.5230    9.6230  -14.4570 C.2   476  NDP476      0.0633
     45  P2B      -15.9700   21.4500  -23.2620 P.3   476  NDP476      0.5328
     46  O1X      -16.1860   22.9460  -23.1800 O.3   476  NDP476     -0.1145
     47  O2X      -14.6390   21.0200  -23.6180 O.3   476  NDP476     -0.1145
     48  O3X      -17.0670   20.7160  -24.0400 O.2   476  NDP476     -0.2224
@<TRIPOS>BOND
     1    18    17    1
     2    48    45    2
     3    17    19    2
     4    17    16    1
     5    47    45    1
     6    15    16    2
     7    15    14    1
     8    19    20    1
     9    16    22    1
    10    45    46    1
    11    45    11    1
    12    14    13    1
    13    20    21    1
    14    22    13    1
    15    22    21    2
    16    13    12    1
    17    11    10    1
    18    10    12    1
    19    10     8    1
    20    12     7    1
    21     7     6    1
    22     8     6    1
    23     8     9    1
    24     3     1    2
    25     6     5    1
    26     5     4    1
    27     1     4    1
    28     1    23    1
    29     1     2    1
    30    34    33    1
    31    23    24    1
    32    32    31    1
    33    31    33    1
    34    31    29    1
    35    33    35    1
    36    27    24    1
    37    27    28    1
    38    24    25    2
    39    24    26    1
    40    28    29    1
    41    29    30    1
    42    35    36    1
    43    35    30    1
    44    36    37    1
    45    36    44    1
    46    37    38    1
    47    44    43    2
    48    41    39   am
    49    38    42    2
    50    38    39    1
    51    43    42    1
    52    39    40    2
