@<TRIPOS>MOLECULE
3mjt_NDP_A_1.pdb
 48 52 0 0 0
SMALL
GASTEIGER

@<TRIPOS>ATOM
      1  PA       -19.4850   17.5740  -17.9490 P.3   476  NDP476      0.2189
      2  O1A      -20.3110   18.4820  -17.0520 O.3   476  NDP476     -0.4371
      3  O2A      -19.8490   17.4080  -19.4350 O.2   476  NDP476     -0.5170
      4  O5B      -18.0060   18.1310  -17.8540 O.3   476  NDP476     -0.3112
      5  C5B      -17.1130   17.5600  -18.7540 C.3   476  NDP476      0.1813
      6  C4B      -16.1880   18.6030  -19.3370 C.3   476  NDP476      0.1820
      7  O4B      -14.8620   18.2540  -19.6780 O.3   476  NDP476     -0.3136
      8  C3B      -16.6520   19.9750  -19.6890 C.3   476  NDP476      0.2157
      9  O3B      -16.0460   21.0920  -18.9410 O.3   476  NDP476     -0.2175
     10  C2B      -16.0190   19.8430  -21.0730 C.3   476  NDP476      0.2314
     11  O2B      -15.9820   21.1650  -21.6520 O.3   476  NDP476     -0.2630
     12  C1B      -14.6650   19.1940  -20.7460 C.3   476  NDP476      0.3158
     13  N9A      -14.0080   18.5420  -21.9000 N.pl3 476  NDP476     -0.1439
     14  C8A      -14.5310   17.5990  -22.7280 C.3   476  NDP476      0.3377
     15  N7A      -13.5380   17.2980  -23.6240 N.2   476  NDP476     -0.2095
     16  C5A      -12.4440   18.0470  -23.3320 C.2   476  NDP476      0.2526
     17  C6A      -11.1880   18.1540  -23.9100 C.2   476  NDP476      0.4393
     18  N6A      -10.8960   17.4450  -25.0180 N.pl3 476  NDP476      0.2180
     19  N1A      -10.3460   19.0520  -23.4110 N.2   476  NDP476      0.0021
     20  C2A      -10.6090   19.8140  -22.3100 C.3   476  NDP476      0.5254
     21  N3A      -11.8310   19.7450  -21.7780 N.2   476  NDP476     -0.0055
     22  C4A      -12.7450   18.8530  -22.3060 C.2   476  NDP476      0.3518
     23  O3       -19.2400   16.1760  -17.1260 O.3   476  NDP476     -0.2703
     24  PN       -19.0380   15.8600  -15.6380 P.3   476  NDP476      0.2189
     25  O1N      -20.2230   15.0960  -15.1150 O.2   476  NDP476     -0.5170
     26  O2N      -18.5900   17.0730  -14.9590 O.3   476  NDP476     -0.4371
     27  O5D      -17.8540   14.7830  -15.8210 O.3   476  NDP476     -0.3112
     28  C5D      -16.6210   15.1330  -15.1880 C.3   476  NDP476      0.1813
     29  C4D      -15.7140   13.9210  -15.2820 C.3   476  NDP476      0.1799
     30  O4D      -16.2490   12.8260  -14.5230 O.3   476  NDP476     -0.3327
     31  C3D      -15.6590   13.3550  -16.7220 C.3   476  NDP476      0.2158
     32  O3D      -14.3110   12.9940  -17.1280 O.3   476  NDP476     -0.2175
     33  C2D      -16.5120   12.1540  -16.7350 C.3   476  NDP476      0.2309
     34  O2D      -16.1590   11.0700  -17.5880 O.3   476  NDP476     -0.2158
     35  C1D      -16.4270   11.6100  -15.2890 C.3   476  NDP476      0.2263
     36  N1N      -17.6400   10.8880  -14.7810 N.pl3 476  NDP476     -0.2787
     37  C2N      -18.7740   11.5930  -14.5250 C.3   476  NDP476      0.1244
     38  C3N      -19.8630   10.9410  -13.9530 C.2   476  NDP476      0.0544
     39  C7N      -21.1720   11.6060  -13.6920 C.2   476  NDP476      0.2818
     40  O7N      -22.0030   10.9160  -13.1270 O.2   476  NDP476     -0.2670
     41  N7N      -21.3900   12.8540  -14.1050 N.am  476  NDP476     -0.0839
     42  C4N      -19.7840    9.5750  -13.6720 C.2   476  NDP476      0.0033
     43  C5N      -18.5790    8.9100  -13.9440 C.2   476  NDP476      0.0157
     44  C6N      -17.5010    9.6000  -14.4550 C.2   476  NDP476      0.0633
     45  P2B      -15.7490   21.3820  -23.2320 P.3   476  NDP476      0.5328
     46  O1X      -15.9420   22.8990  -23.2760 O.3   476  NDP476     -0.1145
     47  O2X      -14.3450   20.9270  -23.5110 O.3   476  NDP476     -0.1145
     48  O3X      -16.8550   20.6720  -24.0160 O.2   476  NDP476     -0.2224
@<TRIPOS>BOND
     1    18    17    1
     2    48    45    2
     3    17    19    2
     4    17    16    1
     5    15    16    2
     6    15    14    1
     7    47    45    1
     8    19    20    1
     9    16    22    1
    10    46    45    1
    11    45    11    1
    12    14    13    1
    13    20    21    1
    14    22    13    1
    15    22    21    2
    16    13    12    1
    17    11    10    1
    18    10    12    1
    19    10     8    1
    20    12     7    1
    21     8     6    1
    22     8     9    1
    23     7     6    1
    24     3     1    2
    25     6     5    1
    26     5     4    1
    27     1     4    1
    28     1    23    1
    29     1     2    1
    30    34    33    1
    31    32    31    1
    32    23    24    1
    33    33    31    1
    34    33    35    1
    35    31    29    1
    36    27    24    1
    37    27    28    1
    38    24    25    2
    39    24    26    1
    40    35    36    1
    41    35    30    1
    42    29    28    1
    43    29    30    1
    44    36    37    1
    45    36    44    1
    46    37    38    1
    47    44    43    2
    48    41    39   am
    49    38    39    1
    50    38    42    2
    51    43    42    1
    52    39    40    2
