@<TRIPOS>MOLECULE
3mju_HEM_A_1.pdb
 43 50 0 0 0
SMALL
GASTEIGER

@<TRIPOS>ATOM
      1  CHA       19.9270  -46.9000   11.5380 C.2   150  HEM150      0.0000
      2  CHB       18.1120  -42.6440   10.1870 C.2   150  HEM150      0.0000
      3  CHC       14.8760  -42.9260   13.7460 C.2   150  HEM150      0.0000
      4  CHD       17.6100  -46.3420   15.8140 C.2   150  HEM150      0.0000
      5  C1A       19.7440  -45.7320   10.8400 C.ar  150  HEM150      0.0000
      6  C2A       20.4920  -45.2600    9.6870 C.ar  150  HEM150      0.0000
      7  C3A       19.9860  -44.0750    9.3330 C.ar  150  HEM150      0.0000
      8  C4A       18.8970  -43.7710   10.2390 C.ar  150  HEM150      0.0000
      9  CMA       20.4560  -43.1770    8.1560 C.3   150  HEM150      0.0000
     10  CAA       21.6990  -45.9490    9.0070 C.3   150  HEM150      0.0000
     11  CBA       21.3550  -47.1350    8.1140 C.3   150  HEM150      0.0000
     12  CGA       22.6230  -47.9300    7.8420 C.2   150  HEM150      0.0000
     13  O1A       22.5690  -49.1760    8.0730 O.co2 150  HEM150      0.0000
     14  O2A       23.6670  -47.3400    7.4060 O.co2 150  HEM150      0.0000
     15  C1B       17.0420  -42.3650   11.0020 C.2   150  HEM150      0.0000
     16  C2B       16.1410  -41.2360   10.8560 C.2   150  HEM150      0.0000
     17  C3B       15.2440  -41.3150   11.8480 C.2   150  HEM150      0.0000
     18  C4B       15.5510  -42.4890   12.6400 C.2   150  HEM150      0.0000
     19  CMB       16.2290  -40.1590    9.7410 C.3   150  HEM150      0.0000
     20  CAB       14.0810  -40.3370   12.1150 C.2   150  HEM150      0.0000
     21  CBB       14.3260  -39.0220   12.1400 C.2   150  HEM150      0.0000
     22  C1C       15.3650  -43.8370   14.6510 C.ar  150  HEM150      0.0000
     23  C2C       14.8030  -44.0990   15.9530 C.ar  150  HEM150      0.0000
     24  C3C       15.5440  -45.0370   16.5530 C.ar  150  HEM150      0.0000
     25  C4C       16.6120  -45.4030   15.6260 C.ar  150  HEM150      0.0000
     26  CMC       13.5660  -43.3780   16.5040 C.3   150  HEM150      0.0000
     27  CAC       15.3190  -45.6440   17.9620 C.2   150  HEM150      0.0000
     28  CBC       15.4240  -44.9110   19.0760 C.2   150  HEM150      0.0000
     29  C1D       18.4420  -46.8760   14.8420 C.2   150  HEM150      0.0000
     30  C2D       19.2940  -48.0430   15.0040 C.2   150  HEM150      0.0000
     31  C3D       20.0170  -48.2130   13.6710 C.2   150  HEM150      0.0000
     32  C4D       19.5300  -47.1310   12.8390 C.2   150  HEM150      0.0000
     33  CMD       19.4680  -48.9560   16.2430 C.3   150  HEM150      0.0000
     34  CAD       21.0450  -49.3120   13.3190 C.3   150  HEM150      0.0000
     35  CBD       22.4210  -48.8580   13.7980 C.3   150  HEM150      0.0000
     36  CGD       23.4480  -49.9020   13.4450 C.2   150  HEM150      0.0000
     37  O1D       23.1190  -51.1030   13.5800 O.co2 150  HEM150      0.0000
     38  O2D       24.5880  -49.5560   13.0350 O.co2 150  HEM150      0.0000
     39  NA        18.7860  -44.7960   11.1560 N.ar  150  HEM150      0.0000
     40  NB        16.6600  -43.1060   12.1030 N.2   150  HEM150      0.0000
     41  NC        16.4760  -44.6440   14.4820 N.ar  150  HEM150      0.0000
     42  ND        18.6180  -46.3670   13.5610 N.2   150  HEM150      0.0000
     43 FE         17.6580  -44.7310   12.8440 Fe    150  HEM150      0.0000
@<TRIPOS>BOND
     1    14    12   ar
     2    12    13   ar
     3    12    11    1
     4    11    10    1
     5     9     7    1
     6    10     6    1
     7     7     6   ar
     8     7     8   ar
     9     6     5   ar
    10    19    16    1
    11     2     8    2
    12     2    15    1
    13     8    39   ar
    14     5    39   ar
    15     5     1    2
    16    16    15    1
    17    16    17    2
    18    15    40    2
    19    39    43    1
    20     1    32    1
    21    17    20    1
    22    17    18    1
    23    40    18    1
    24    40    43    1
    25    20    21    2
    26    18     3    2
    27    32    42    2
    28    32    31    1
    29    43    42    1
    30    43    41    1
    31    38    36   ar
    32    34    31    1
    33    34    35    1
    34    36    37   ar
    35    36    35    1
    36    42    29    1
    37    31    30    2
    38     3    22    1
    39    41    22   ar
    40    41    25   ar
    41    22    23   ar
    42    29    30    1
    43    29     4    2
    44    30    33    1
    45    25     4    1
    46    25    24   ar
    47    23    26    1
    48    23    24   ar
    49    24    27    1
    50    27    28    2
