@<TRIPOS>MOLECULE
3mjv_NDP_A_1.pdb
 48 52 0 0 0
SMALL
GASTEIGER

@<TRIPOS>ATOM
      1  PA       -19.4410   17.6280  -18.0370 P.3   476  NDP476      0.2189
      2  O1A      -20.2970   18.4900  -17.1480 O.3   476  NDP476     -0.4371
      3  O2A      -19.9530   17.3840  -19.4600 O.2   476  NDP476     -0.5170
      4  O5B      -17.9540   18.1990  -18.0230 O.3   476  NDP476     -0.3112
      5  C5B      -17.0200   17.5730  -18.8340 C.3   476  NDP476      0.1813
      6  C4B      -16.1920   18.6630  -19.4350 C.3   476  NDP476      0.1820
      7  O4B      -14.8750   18.3460  -19.8250 O.3   476  NDP476     -0.3136
      8  C3B      -16.6360   20.0820  -19.6900 C.3   476  NDP476      0.2157
      9  O3B      -16.0120   21.1810  -18.9650 O.3   476  NDP476     -0.2175
     10  C2B      -15.9900   19.9470  -21.0790 C.3   476  NDP476      0.2314
     11  O2B      -15.9070   21.2740  -21.6200 O.3   476  NDP476     -0.2630
     12  C1B      -14.5990   19.3310  -20.8040 C.3   476  NDP476      0.3158
     13  N9A      -13.9840   18.6460  -21.9400 N.pl3 476  NDP476     -0.1439
     14  C8A      -14.4620   17.7200  -22.8040 C.3   476  NDP476      0.3377
     15  N7A      -13.4910   17.3680  -23.7030 N.2   476  NDP476     -0.2095
     16  C5A      -12.4160   18.1120  -23.4200 C.2   476  NDP476      0.2526
     17  C6A      -11.1040   18.2170  -23.9340 C.2   476  NDP476      0.4393
     18  N6A      -10.7130   17.5230  -25.0390 N.pl3 476  NDP476      0.2180
     19  N1A      -10.2940   19.1380  -23.3650 N.2   476  NDP476      0.0021
     20  C2A      -10.6440   19.8780  -22.2930 C.3   476  NDP476      0.5254
     21  N3A      -11.8550   19.7970  -21.7720 N.2   476  NDP476     -0.0055
     22  C4A      -12.7250   18.8890  -22.3160 C.2   476  NDP476      0.3518
     23  O3       -19.2760   16.1830  -17.2690 O.3   476  NDP476     -0.2703
     24  PN       -19.0670   15.8840  -15.7130 P.3   476  NDP476      0.2189
     25  O1N      -20.3050   15.1130  -15.2790 O.2   476  NDP476     -0.5170
     26  O2N      -18.5970   17.0440  -14.9330 O.3   476  NDP476     -0.4371
     27  O5D      -17.8310   14.8380  -15.8310 O.3   476  NDP476     -0.3112
     28  C5D      -16.5240   15.2660  -15.4600 C.3   476  NDP476      0.1813
     29  C4D      -15.7060   13.9950  -15.4450 C.3   476  NDP476      0.1799
     30  O4D      -16.1920   12.9720  -14.5540 O.3   476  NDP476     -0.3327
     31  C3D      -15.7010   13.3730  -16.8600 C.3   476  NDP476      0.2158
     32  O3D      -14.3450   12.9970  -17.1680 O.3   476  NDP476     -0.2175
     33  C2D      -16.5100   12.1270  -16.7500 C.3   476  NDP476      0.2309
     34  O2D      -16.0940   11.0950  -17.6910 O.3   476  NDP476     -0.2158
     35  C1D      -16.3740   11.6950  -15.2640 C.3   476  NDP476      0.2263
     36  N1N      -17.6100   10.9660  -14.7710 N.pl3 476  NDP476     -0.2787
     37  C2N      -18.7710   11.6210  -14.4810 C.3   476  NDP476      0.1244
     38  C3N      -19.9270   11.0030  -14.0310 C.2   476  NDP476      0.0544
     39  C7N      -21.2220   11.7220  -13.7210 C.2   476  NDP476      0.2818
     40  O7N      -22.1570   11.0690  -13.2740 O.2   476  NDP476     -0.2670
     41  N7N      -21.3680   13.0250  -14.0530 N.am  476  NDP476     -0.0839
     42  C4N      -19.8700    9.6100  -13.8360 C.2   476  NDP476      0.0033
     43  C5N      -18.6600    8.9690  -14.1520 C.2   476  NDP476      0.0157
     44  C6N      -17.5430    9.6650  -14.6010 C.2   476  NDP476      0.0633
     45  P2B      -15.7090   21.4610  -23.2570 P.3   476  NDP476      0.5328
     46  O1X      -15.9370   22.9860  -23.3760 O.3   476  NDP476     -0.1145
     47  O2X      -14.3600   20.9780  -23.7410 O.3   476  NDP476     -0.1145
     48  O3X      -16.8560   20.6360  -23.9080 O.2   476  NDP476     -0.2224
@<TRIPOS>BOND
     1    18    17    1
     2    17    16    1
     3    17    19    2
     4    48    45    2
     5    47    45    1
     6    15    16    2
     7    15    14    1
     8    16    22    1
     9    46    45    1
    10    19    20    1
    11    45    11    1
    12    14    13    1
    13    22    13    1
    14    22    21    2
    15    20    21    1
    16    13    12    1
    17    11    10    1
    18    10    12    1
    19    10     8    1
    20    12     7    1
    21     7     6    1
    22     8     6    1
    23     8     9    1
    24     3     1    2
    25     6     5    1
    26     5     4    1
    27     1     4    1
    28     1    23    1
    29     1     2    1
    30    34    33    1
    31    23    24    1
    32    32    31    1
    33    31    33    1
    34    31    29    1
    35    33    35    1
    36    27    24    1
    37    27    28    1
    38    24    25    2
    39    24    26    1
    40    28    29    1
    41    29    30    1
    42    35    36    1
    43    35    30    1
    44    36    44    1
    45    36    37    1
    46    44    43    2
    47    37    38    1
    48    43    42    1
    49    41    39   am
    50    38    42    2
    51    38    39    1
    52    39    40    2
