@<TRIPOS>MOLECULE
3mjw_WYF_A_1.pdb
 28 32 0 0 0
SMALL
GASTEIGER

@<TRIPOS>ATOM
      1  C1        45.3880   11.9050   29.1070 C.3     1  WYF1        0.2525
      2  N1        47.6490   16.7800   32.0760 N.ar    1  WYF1       -0.3278
      3  O1        46.7750   12.1310   29.2790 O.3     1  WYF1       -0.4714
      4  C2        47.1320   13.2910   29.9040 C.ar    1  WYF1        0.1388
      5  N2        47.4470   18.9580   33.9470 N.3     1  WYF1       -0.2097
      6  O2        41.8450   15.3170   34.4690 O.2     1  WYF1       -0.2831
      7  C3        48.3420   13.9580   29.7030 C.ar    1  WYF1        0.0384
      8  O3        43.4080   13.8710   31.6590 O.3     1  WYF1       -0.4499
      9  C4        48.6140   15.1470   30.3950 C.ar    1  WYF1        0.0203
     10  O4        39.9650   10.8420   30.1340 O.3     1  WYF1       -0.2864
     11  C5        47.6480   15.6480   31.2900 C.ar    1  WYF1        0.0599
     12  O5        39.3810   13.6620   34.0090 O.3     1  WYF1       -0.2862
     13  C6        46.4350   14.9870   31.5320 C.ar    1  WYF1        0.0200
     14  C7        46.1820   13.7890   30.8180 C.ar    1  WYF1        0.0384
     15  C8        45.7250   15.7670   32.5040 C.ar    1  WYF1        0.0177
     16  C9        46.4880   16.8780   32.8000 C.ar    1  WYF1        0.0548
     17  C10       48.7320   17.7470   32.1980 C.3     1  WYF1        0.1245
     18  C11       48.7980   18.4140   33.5710 C.3     1  WYF1        0.1135
     19  C12       46.2790   18.0240   33.7330 C.3     1  WYF1        0.1322
     20  C13       44.4390   15.5670   33.0910 C.2     1  WYF1        0.0420
     21  C14       43.4360   14.7540   32.7270 C.2     1  WYF1        0.1842
     22  C15       42.1640   14.6900   33.4860 C.2     1  WYF1        0.2358
     23  C16       41.3830   13.6940   32.7560 C.ar    1  WYF1        0.1155
     24  C17       40.1140   13.1960   32.9600 C.ar    1  WYF1        0.2050
     25  C18       39.6320   12.2260   32.0690 C.ar    1  WYF1        0.0843
     26  C19       40.4510   11.7880   31.0030 C.ar    1  WYF1        0.2020
     27  C20       41.7330   12.3050   30.8070 C.ar    1  WYF1        0.0798
     28  C21       42.1770   13.2570   31.7010 C.ar    1  WYF1        0.1549
@<TRIPOS>BOND
     1     1     3    1
     2     3     4    1
     3     7     4   ar
     4     7     9   ar
     5     4    14   ar
     6    10    26    1
     7     9    11   ar
     8    27    26   ar
     9    27    28   ar
    10    14    13   ar
    11    26    25   ar
    12    11    13   ar
    13    11     2   ar
    14    13    15   ar
    15     8    28    1
    16     8    21    1
    17    28    23   ar
    18    25    24   ar
    19     2    17    1
    20     2    16   ar
    21    17    18    1
    22    15    16   ar
    23    15    20    1
    24    21    20    2
    25    21    22    1
    26    23    24   ar
    27    23    22    1
    28    16    19    1
    29    24    12    1
    30    22     6    2
    31    18     5    1
    32    19     5    1
