@<TRIPOS>MOLECULE
3mjx_BIT_A_1.pdb
 22 25 0 0 0
SMALL
GASTEIGER

@<TRIPOS>ATOM
      1  O2        23.5830   37.4160   41.1600 O.2   902  BIT902     -0.2882
      2  C4        23.8020   37.6180   39.9680 C.2   902  BIT902      0.2103
      3  C5        24.6150   36.7350   39.0990 C.2   902  BIT902      0.0632
      4  C6        25.7810   36.0790   39.5590 C.2   902  BIT902     -0.0166
      5  C7        26.5140   35.2770   38.6670 C.3   902  BIT902      0.0442
      6  C18       27.7520   34.5760   39.1440 C.3   902  BIT902      0.0094
      7  C8        26.1010   35.1300   37.3210 C.2   902  BIT902     -0.0195
      8  C10       24.1670   36.5800   37.7000 C.2   902  BIT902      0.1349
      9  C9        24.9450   35.7690   36.8410 C.2   902  BIT902      0.0279
     10  C3        23.3350   38.8120   39.1270 C.3   902  BIT902      0.2413
     11  C11       22.5100   38.2920   37.9000 C.2   902  BIT902      0.1986
     12  N2        22.9800   37.2300   37.2500 N.2   902  BIT902     -0.3881
     13  O1        23.5910   40.1720   39.4750 O.3   902  BIT902     -0.2090
     14  C2        21.9780   38.9680   39.9240 C.3   902  BIT902      0.0682
     15  C1        20.9720   39.6100   38.9480 C.3   902  BIT902      0.1012
     16  N1        21.3860   39.0790   37.6660 N.pl3 902  BIT902     -0.2637
     17  C12       20.7300   39.3370   36.4140 C.ar  902  BIT902      0.0533
     18  C13       21.1790   38.7410   35.2010 C.ar  902  BIT902      0.0149
     19  C14       20.5140   39.0030   33.9810 C.ar  902  BIT902      0.0013
     20  C15       19.4030   39.8650   33.9530 C.ar  902  BIT902      0.0001
     21  C16       18.9520   40.4620   35.1450 C.ar  902  BIT902      0.0013
     22  C17       19.5990   40.2010   36.3670 C.ar  902  BIT902      0.0149
@<TRIPOS>BOND
     1    20    19   ar
     2    20    21   ar
     3    19    18   ar
     4    21    22   ar
     5    18    17   ar
     6    22    17   ar
     7    17    16    1
     8     9     7    2
     9     9     8    1
    10    12     8    2
    11    12    11    2
    12     7     5    1
    13    16    11    1
    14    16    15    1
    15     8     3    1
    16    11    10    1
    17     5     6    1
    18     5     4    1
    19    15    14    1
    20     3     4    2
    21     3     2    1
    22    10    13    1
    23    10    14    1
    24    10     2    1
    25     2     1    2
