@<TRIPOS>MOLECULE
3mjx_AD9_A_1.pdb
 31 33 0 0 0
SMALL
GASTEIGER

@<TRIPOS>ATOM
      1  VG        18.9790   39.8670   48.5360 V     900  AD9900      0.0000
      2  O1G       19.0990   38.3650   48.0040 O.3   900  AD9900      0.0000
      3  O2G       20.0160   40.9180   47.6750 O.3   900  AD9900      0.0000
      4  O3G       17.3040   40.4270   48.5800 O.3   900  AD9900      0.0000
      5  PB        20.4060   39.3320   51.4330 P.3   900  AD9900      0.0000
      6  O1B       21.9140   40.0910   51.2930 O.2   900  AD9900     -0.5000
      7  O2B       20.4490   37.7830   51.6780 O.3   900  AD9900     -0.5000
      8  O3B       19.7590   39.8290   50.1140 O.3   900  AD9900      0.0000
      9  PA        20.5610   41.3190   53.6700 P.3   900  AD9900      0.0000
     10  O1A       22.0070   41.0130   54.1130 O.3   900  AD9900     -0.5000
     11  O2A       20.3480   42.7020   52.7010 O.2   900  AD9900     -0.5000
     12  O3A       19.8260   40.1380   52.7520 O.3   900  AD9900      0.0000
     13  O5'       19.4630   41.5720   54.8440 O.3   900  AD9900      0.0000
     14  C5'       18.2290   42.3570   54.7600 C.3   900  AD9900      0.0000
     15  C4'       18.0470   43.0980   56.0530 C.3   900  AD9900      0.0000
     16  O4'       18.0370   42.1140   57.1300 O.3   900  AD9900      0.0000
     17  C3'       19.2170   43.9940   56.4700 C.3   900  AD9900      0.0000
     18  O3'       19.2020   45.2610   55.7580 O.3   900  AD9900      0.0000
     19  C2'       18.9430   44.1640   57.9690 C.3   900  AD9900      0.0000
     20  O2'       17.7440   44.9600   58.2000 O.3   900  AD9900      0.0000
     21  C1'       18.6020   42.6910   58.3570 C.3   900  AD9900      0.0000
     22  N9        19.7650   41.8960   58.7950 N.pl3 900  AD9900      0.5000
     23  C8        20.3450   40.7700   58.1790 C.3   900  AD9900      0.0000
     24  N7        21.3790   40.2810   58.8390 N.2   900  AD9900      0.0000
     25  C5        21.5060   41.1070   59.9530 C.2   900  AD9900      0.0000
     26  C6        22.4080   41.1180   61.0560 C.2   900  AD9900      0.0000
     27  N6        23.4020   40.2080   61.2000 N.pl3 900  AD9900      0.5000
     28  N1        22.2640   42.0940   62.0220 N.2   900  AD9900      0.5000
     29  C2        21.2670   43.0200   61.9000 C.3   900  AD9900      0.0000
     30  C4        20.5190   42.1200   59.9460 C.2   900  AD9900      0.0000
     31  N3        20.3560   43.0960   60.8910 N.2   900  AD9900      0.5000
@<TRIPOS>BOND
     1     3     1    1
     2     2     1    1
     3     1     4    1
     4     1     8    1
     5     8     5    1
     6     6     5    2
     7     5     7    1
     8     5    12    1
     9    11     9    2
    10    12     9    1
    11     9    10    1
    12     9    13    1
    13    14    13    1
    14    14    15    1
    15    18    17    1
    16    15    17    1
    17    15    16    1
    18    17    19    1
    19    16    21    1
    20    19    20    1
    21    19    21    1
    22    23    22    1
    23    23    24    1
    24    21    22    1
    25    22    30    1
    26    24    25    2
    27    30    25    1
    28    30    31    2
    29    25    26    1
    30    31    29    1
    31    26    27    1
    32    26    28    2
    33    29    28    1
