@<TRIPOS>MOLECULE
3mjy_FMN_A_1.pdb
 31 33 0 0 0
SMALL
GASTEIGER

@<TRIPOS>ATOM
      1  N1       -53.5290   17.2550  -14.9200 N.2   313  FMN313     -0.2887
      2  C2       -54.6550   17.2540  -15.7160 C.1   313  FMN313      0.3669
      3  O2       -55.7210   16.7920  -15.2880 O.2   313  FMN313     -0.1744
      4  N3       -54.5890   17.7960  -16.9870 N.2   313  FMN313     -0.2300
      5  C4       -53.4110   18.3150  -17.4870 C.1   313  FMN313      0.2513
      6  O4       -53.3520   18.7710  -18.6320 O.2   313  FMN313     -0.2057
      7  C4A      -52.2750   18.3050  -16.6980 C.2   313  FMN313      0.2703
      8  N5       -51.0870   18.8100  -17.1880 N.2   313  FMN313     -0.3882
      9  C5A      -49.9490   18.7480  -16.4140 C.2   313  FMN313      0.1277
     10  C6       -48.7480   19.2480  -16.9110 C.3   313  FMN313      0.0820
     11  C7       -47.6040   19.1990  -16.1220 C.2   313  FMN313     -0.0408
     12  C7M      -46.3230   19.7370  -16.6840 C.3   313  FMN313      0.0265
     13  C8       -47.6720   18.6360  -14.8360 C.2   313  FMN313     -0.0280
     14  C8M      -46.4720   18.5870  -13.9430 C.3   313  FMN313      0.0304
     15  C9       -48.8770   18.1450  -14.3460 C.2   313  FMN313      0.0123
     16  C9A      -50.0180   18.2040  -15.1270 C.2   313  FMN313      0.0793
     17  N10      -51.2280   17.7360  -14.6370 N.pl3 313  FMN313     -0.2545
     18  C10      -52.3450   17.7650  -15.4180 C.2   313  FMN313      0.2449
     19  C1'      -51.3500   17.1400  -13.2740 C.3   313  FMN313      0.1336
     20  C2'      -50.8850   15.6960  -13.3670 C.3   313  FMN313      0.2048
     21  O2'      -51.7370   15.0120  -14.2590 O.3   313  FMN313     -0.2185
     22  C3'      -50.9460   15.0550  -11.9950 C.3   313  FMN313      0.2165
     23  O3'      -52.2710   15.1940  -11.5400 O.3   313  FMN313     -0.2175
     24  C4'      -50.0250   15.7600  -11.0000 C.3   313  FMN313      0.2147
     25  O4'      -48.8540   16.2080  -11.6500 O.3   313  FMN313     -0.2176
     26  C5'      -49.6500   14.8230   -9.8520 C.3   313  FMN313      0.1892
     27  O5'      -48.9610   13.7030  -10.3760 O.3   313  FMN313     -0.2674
     28  P        -47.3570   13.5890  -10.2390 P.3   313  FMN313      0.5327
     29  O1P      -47.0010   13.7300   -8.7970 O.3   313  FMN313     -0.1145
     30  O2P      -46.6600   14.7130  -10.9770 O.2   313  FMN313     -0.2224
     31  O3P      -46.9640   12.2560  -10.7910 O.3   313  FMN313     -0.1145
@<TRIPOS>BOND
     1     6     5    2
     2     5     4    2
     3     5     7    1
     4     8     7    2
     5     8     9    2
     6     4     2    2
     7    10     9    1
     8    10    11    1
     9     7    18    1
    10    12    11    1
    11     9    16    1
    12    11    13    2
    13     2     3    2
    14     2     1    2
    15    18     1    2
    16    18    17    1
    17    16    17    1
    18    16    15    2
    19    13    15    1
    20    13    14    1
    21    17    19    1
    22    21    20    1
    23    20    19    1
    24    20    22    1
    25    22    23    1
    26    22    24    1
    27    25    24    1
    28    24    26    1
    29    30    28    2
    30    31    28    1
    31    27    28    1
    32    27    26    1
    33    28    29    1
