@<TRIPOS>MOLECULE
3mjy_IJZ_A_1.pdb
 12 12 0 0 0
SMALL
GASTEIGER

@<TRIPOS>ATOM
      1  O10      -51.0920   23.7140  -16.5700 O.co2 314  IJZ314     -0.2379
      2  C9       -51.9040   22.8200  -16.8800 C.2   314  IJZ314      0.4163
      3  O11      -52.4220   22.6980  -18.0170 O.co2 314  IJZ314     -0.2379
      4  C5       -52.3160   21.9190  -15.7740 C.2   314  IJZ314      0.2377
      5  C4       -53.6620   21.3270  -15.7940 C.3   314  IJZ314      0.2687
      6  N12      -54.5400   21.5360  -16.8130 N.3   314  IJZ314     -0.1057
      7  C3       -54.0250   20.4940  -14.6360 C.1   314  IJZ314      0.2177
      8  O8       -55.1600   19.9610  -14.6170 O.2   314  IJZ314     -0.2114
      9  N2       -53.1020   20.3020  -13.6600 N.2   314  IJZ314     -0.2352
     10  C1       -51.8730   20.8850  -13.6980 C.1   314  IJZ314      0.3652
     11  N6       -51.4860   21.6860  -14.7290 N.2   314  IJZ314     -0.3029
     12  O7       -51.0810   20.6990  -12.7440 O.2   314  IJZ314     -0.1745
@<TRIPOS>BOND
     1     3     2   ar
     2     2     1   ar
     3     2     4    1
     4     6     5    1
     5     5     4    1
     6     5     7    1
     7     4    11    2
     8    11    10    2
     9     7     8    2
    10     7     9    2
    11    10     9    2
    12    10    12    2
