@<TRIPOS>MOLECULE
3mk0_NPO_A_1.pdb
 10 10 0 0 0
SMALL
GASTEIGER

@<TRIPOS>ATOM
      1  C1        56.5480   28.5680   -3.9020 C.ar  912  NPO912      0.1431
      2  C2        57.0130   29.4080   -2.8860 C.ar  912  NPO912      0.0274
      3  C3        58.1210   29.0240   -2.1340 C.ar  912  NPO912      0.0437
      4  C4        58.7520   27.8120   -2.4100 C.ar  912  NPO912      0.1958
      5  C5        58.2800   26.9720   -3.4280 C.ar  912  NPO912      0.0437
      6  C6        57.1720   27.3540   -4.1780 C.ar  912  NPO912      0.0274
      7  OH        59.8310   27.4600   -1.6620 O.3   912  NPO912     -0.2866
      8  N1        55.4500   28.9190   -4.6810 N.pl3 912  NPO912      0.0577
      9  O2        55.0220   30.2420   -4.7850 O.2   912  NPO912     -0.1261
     10  O3        54.8060   27.9050   -5.3790 O.2   912  NPO912     -0.1261
@<TRIPOS>BOND
     1    10     8    2
     2     9     8    2
     3     8     1    1
     4     6     1   ar
     5     6     5   ar
     6     1     2   ar
     7     5     4   ar
     8     2     3   ar
     9     4     3   ar
    10     4     7    1
