@<TRIPOS>MOLECULE
3mk1_NPO_A_1.pdb
 10 10 0 0 0
SMALL
GASTEIGER

@<TRIPOS>ATOM
      1  C1        32.5530   11.5310   12.1240 C.ar  911  NPO911      0.1431
      2  C2        32.7610   10.8780   13.3380 C.ar  911  NPO911      0.0274
      3  C3        32.1250    9.6650   13.5960 C.ar  911  NPO911      0.0437
      4  C4        31.2800    9.1030   12.6370 C.ar  911  NPO911      0.1958
      5  C5        31.0700    9.7540   11.4190 C.ar  911  NPO911      0.0437
      6  C6        31.7070   10.9680   11.1660 C.ar  911  NPO911      0.0274
      7  OH        30.6600    7.9130   12.8900 O.3   911  NPO911     -0.2866
      8  N1        33.1900   12.7530   11.8650 N.pl3 911  NPO911      0.0577
      9  O2        32.6410   13.6460   10.9510 O.2   911  NPO911     -0.1261
     10  O3        34.3720   13.0890   12.5160 O.2   911  NPO911     -0.1261
@<TRIPOS>BOND
     1     9     8    2
     2     6     5   ar
     3     6     1   ar
     4     5     4   ar
     5     8     1    1
     6     8    10    2
     7     1     2   ar
     8     4     7    1
     9     4     3   ar
    10     2     3   ar
