@<TRIPOS>MOLECULE
3mk2_PHE_A_1.pdb
 12 12 0 0 0
SMALL
GASTEIGER

@<TRIPOS>ATOM
      1  N         36.9620   13.7370   10.9720 N.3   912  PHE912     -0.1205
      2  CA        37.2980   12.3860   10.4530 C.3   912  PHE912      0.1986
      3  C         37.6180   12.4350    8.9730 C.2   912  PHE912      0.3822
      4  O         38.7440   12.1260    8.5860 O.co2 912  PHE912     -0.2440
      5  CB        36.2550   11.2850   10.7940 C.3   912  PHE912      0.0569
      6  CG        34.9320   11.7800   11.3460 C.ar  912  PHE912     -0.0202
      7  CD1       34.7810   13.0500   11.8740 C.ar  912  PHE912     -0.0042
      8  CD2       33.8410   10.9170   11.3930 C.ar  912  PHE912     -0.0042
      9  CE1       33.5710   13.4700   12.3900 C.ar  912  PHE912     -0.0003
     10  CE2       32.6210   11.3330   11.9130 C.ar  912  PHE912     -0.0003
     11  CZ        32.4900   12.6130   12.4100 C.ar  912  PHE912     -0.0000
     12  OXT       36.7860   12.8120    8.1520 O.co2 912  PHE912     -0.2440
@<TRIPOS>BOND
     1    12     3   ar
     2     4     3   ar
     3     3     2    1
     4     2     5    1
     5     2     1    1
     6     5     6    1
     7     6     8   ar
     8     6     7   ar
     9     8    10   ar
    10     7     9   ar
    11    10    11   ar
    12     9    11   ar
