@<TRIPOS>MOLECULE
3mk7_HEM_A_1.pdb
 43 50 0 0 0
SMALL
GASTEIGER

@<TRIPOS>ATOM
      1  CHA       99.3840  110.6650  176.8970 C.2   501  HEM501      0.0000
      2  CHB      100.0750  108.3360  181.0240 C.2   501  HEM501      0.0000
      3  CHC      101.2410  112.3920  183.2520 C.2   501  HEM501      0.0000
      4  CHD      101.2930  114.5980  179.0240 C.2   501  HEM501      0.0000
      5  C1A       99.3290  109.6810  177.8450 C.2   501  HEM501      0.0000
      6  C2A       98.7450  108.3720  177.7180 C.2   501  HEM501      0.0000
      7  C3A       98.9330  107.7390  178.8710 C.2   501  HEM501      0.0000
      8  C4A       99.6630  108.6250  179.7500 C.2   501  HEM501      0.0000
      9  CMA       98.4800  106.3000  179.2290 C.3   501  HEM501      0.0000
     10  CAA       98.0140  107.8160  176.4910 C.3   501  HEM501      0.0000
     11  CBA       98.9640  107.1650  175.5020 C.3   501  HEM501      0.0000
     12  CGA       98.1510  106.8550  174.2640 C.2   501  HEM501      0.0000
     13  O1A       97.0750  106.2190  174.4960 O.co2 501  HEM501      0.0000
     14  O2A       98.5310  107.2330  173.0920 O.co2 501  HEM501      0.0000
     15  C1B      100.5610  109.2090  181.9770 C.ar  501  HEM501      0.0000
     16  C2B      101.1580  108.8320  183.2510 C.ar  501  HEM501      0.0000
     17  C3B      101.4860  109.9580  183.8700 C.ar  501  HEM501      0.0000
     18  C4B      101.1030  111.0570  183.0050 C.ar  501  HEM501      0.0000
     19  CMB      101.3630  107.3720  183.7190 C.3   501  HEM501      0.0000
     20  CAB      102.1560  110.1370  185.2430 C.2   501  HEM501      0.0000
     21  CBB      101.6600  109.5300  186.3260 C.2   501  HEM501      0.0000
     22  C1C      101.2410  113.3670  182.3070 C.2   501  HEM501      0.0000
     23  C2C      101.2600  114.7930  182.5730 C.2   501  HEM501      0.0000
     24  C3C      101.2770  115.4080  181.3940 C.2   501  HEM501      0.0000
     25  C4C      101.2560  114.3920  180.3630 C.2   501  HEM501      0.0000
     26  CMC      101.2580  115.4910  183.9570 C.3   501  HEM501      0.0000
     27  CAC      101.2920  116.9310  181.2260 C.2   501  HEM501      0.0000
     28  CBC      102.3330  117.5140  180.6460 C.2   501  HEM501      0.0000
     29  C1D      100.9090  113.7280  178.0360 C.ar  501  HEM501      0.0000
     30  C2D      101.0340  113.9510  176.6130 C.ar  501  HEM501      0.0000
     31  C3D      100.4410  112.7140  175.9590 C.ar  501  HEM501      0.0000
     32  C4D      100.0080  111.8840  177.0490 C.ar  501  HEM501      0.0000
     33  CMD      101.6490  115.1630  175.9250 C.3   501  HEM501      0.0000
     34  CAD      100.2840  112.4120  174.4620 C.3   501  HEM501      0.0000
     35  CBD      101.5280  111.9640  173.7100 C.3   501  HEM501      0.0000
     36  CGD      101.0040  111.5150  172.3570 C.2   501  HEM501      0.0000
     37  O1D      100.8630  112.3760  171.4550 O.co2 501  HEM501      0.0000
     38  O2D      100.7180  110.2810  172.1710 O.co2 501  HEM501      0.0000
     39  NA        99.8610  109.8140  179.1020 N.2   501  HEM501      0.0000
     40  NB       100.5540  110.5820  181.8580 N.ar  501  HEM501      0.0000
     41  NC       101.2140  113.1570  180.9510 N.2   501  HEM501      0.0000
     42  ND       100.3250  112.5030  178.2600 N.ar  501  HEM501      0.0000
     43 FE        100.5020  111.5680  180.0580 Fe    501  HEM501      0.0000
@<TRIPOS>BOND
     1    37    36   ar
     2    38    36   ar
     3    36    35    1
     4    14    12   ar
     5    35    34    1
     6    12    13   ar
     7    12    11    1
     8    34    31    1
     9    11    10    1
    10    33    30    1
    11    31    30   ar
    12    31    32   ar
    13    10     6    1
    14    30    29   ar
    15     1    32    2
    16     1     5    1
    17    32    42   ar
    18     6     5    1
    19     6     7    2
    20     5    39    2
    21    29    42   ar
    22    29     4    2
    23    42    43    1
    24     7     9    1
    25     7     8    1
    26     4    25    1
    27    39     8    1
    28    39    43    1
    29     8     2    2
    30    43    41    1
    31    43    40    1
    32    25    41    2
    33    25    24    1
    34    28    27    2
    35    41    22    1
    36     2    15    1
    37    27    24    1
    38    24    23    2
    39    40    15   ar
    40    40    18   ar
    41    15    16   ar
    42    22    23    1
    43    22     3    2
    44    23    26    1
    45    18     3    1
    46    18    17   ar
    47    16    19    1
    48    16    17   ar
    49    17    20    1
    50    20    21    2
