@<TRIPOS>MOLECULE
3mk7_HEC_B_1.pdb
 43 50 0 0 0
SMALL
GASTEIGER

@<TRIPOS>ATOM
      1 FE         93.3050  112.2880  156.0810 Fe    211  HEC211      0.0000
      2  CHA       90.5890  110.4820  155.5630 C.2   211  HEC211      0.0000
      3  CHB       94.9860  110.4270  153.6870 C.2   211  HEC211      0.0000
      4  CHC       95.9860  114.1610  156.3860 C.2   211  HEC211      0.0000
      5  CHD       91.8090  114.0050  158.6500 C.2   211  HEC211      0.0000
      6  NA        92.8870  110.7990  154.8400 N.ar  211  HEC211      0.0000
      7  C1A       91.7010  110.1100  154.8640 C.ar  211  HEC211      0.0000
      8  C2A       91.8030  108.9520  153.9920 C.ar  211  HEC211      0.0000
      9  C3A       93.0200  108.9340  153.4780 C.ar  211  HEC211      0.0000
     10  C4A       93.7110  110.0970  154.0000 C.ar  211  HEC211      0.0000
     11  CMA       93.5950  107.8840  152.4930 C.3   211  HEC211      0.0000
     12  CAA       90.7190  107.9190  153.7040 C.3   211  HEC211      0.0000
     13  CBA       90.8720  106.8620  154.7750 C.3   211  HEC211      0.0000
     14  CGA       89.7930  105.8220  154.6580 C.2   211  HEC211      0.0000
     15  O1A       90.1970  104.6070  154.6840 O.co2 211  HEC211      0.0000
     16  O2A       88.5730  106.2160  154.5320 O.co2 211  HEC211      0.0000
     17  NB        95.1050  112.2750  155.1850 N.2   211  HEC211      0.0000
     18  C1B       95.6290  111.4970  154.1980 C.2   211  HEC211      0.0000
     19  C2B       96.8960  112.0290  153.7350 C.2   211  HEC211      0.0000
     20  C3B       97.1720  113.0510  154.5360 C.2   211  HEC211      0.0000
     21  C4B       96.0460  113.2300  155.4140 C.2   211  HEC211      0.0000
     22  CMB       97.8090  111.3910  152.6570 C.3   211  HEC211      0.0000
     23  CAB       98.4150  113.9610  154.5160 C.3   211  HEC211      0.0000
     24  CBB       98.3190  114.7380  153.1860 C.3   211  HEC211      0.0000
     25  NC        93.7510  113.7730  157.2820 N.ar  211  HEC211      0.0000
     26  C1C       94.9740  114.3830  157.2750 C.ar  211  HEC211      0.0000
     27  C2C       94.9370  115.5430  158.1290 C.ar  211  HEC211      0.0000
     28  C3C       93.9190  115.3550  158.9320 C.ar  211  HEC211      0.0000
     29  C4C       93.0710  114.3510  158.3140 C.ar  211  HEC211      0.0000
     30  CMC       96.2020  116.2450  158.6550 C.3   211  HEC211      0.0000
     31  CAC       93.7290  116.2410  160.1980 C.3   211  HEC211      0.0000
     32  CBC       92.4890  117.1260  160.1240 C.3   211  HEC211      0.0000
     33  ND        91.5180  112.2570  156.9360 N.2   211  HEC211      0.0000
     34  C1D       91.0770  113.0670  157.9720 C.2   211  HEC211      0.0000
     35  C2D       89.6910  112.7650  158.2720 C.2   211  HEC211      0.0000
     36  C3D       89.2980  111.6740  157.3150 C.2   211  HEC211      0.0000
     37  C4D       90.4960  111.4160  156.5420 C.2   211  HEC211      0.0000
     38  CMD       88.7690  113.3950  159.3160 C.3   211  HEC211      0.0000
     39  CAD       87.8950  111.0530  157.2580 C.3   211  HEC211      0.0000
     40  CBD       87.0260  111.7840  156.2280 C.3   211  HEC211      0.0000
     41  CGD       87.5200  111.4970  154.8200 C.2   211  HEC211      0.0000
     42  O1D       87.8620  112.4740  154.1030 O.co2 211  HEC211      0.0000
     43  O2D       87.6080  110.2860  154.4150 O.co2 211  HEC211      0.0000
@<TRIPOS>BOND
     1    11     9    1
     2    22    19    1
     3    24    23    1
     4     9     8   ar
     5     9    10   ar
     6     3    10    2
     7     3    18    1
     8    12     8    1
     9    12    13    1
    10    19    18    1
    11    19    20    2
    12     8     7   ar
    13    10     6   ar
    14    42    41   ar
    15    18    17    2
    16    43    41   ar
    17    23    20    1
    18    16    14   ar
    19    20    21    1
    20    14    15   ar
    21    14    13    1
    22    41    40    1
    23     6     7   ar
    24     6     1    1
    25     7     2    2
    26    17    21    1
    27    17     1    1
    28    21     4    2
    29     2    37    1
    30     1    33    1
    31     1    25    1
    32    40    39    1
    33     4    26    1
    34    37    33    2
    35    37    36    1
    36    33    34    1
    37    39    36    1
    38    26    25   ar
    39    26    27   ar
    40    25    29   ar
    41    36    35    2
    42    34    35    1
    43    34     5    2
    44    27    30    1
    45    27    28   ar
    46    35    38    1
    47    29     5    1
    48    29    28   ar
    49    28    31    1
    50    32    31    1
