@<TRIPOS>MOLECULE
3mk7_FC6_C_1.pdb
 13 12 0 0 0
SMALL
GASTEIGER

@<TRIPOS>ATOM
      1  N24       87.4660  119.0090  131.6250 N.1   323  FC6323      0.0000
      2  C24       86.6490  119.0050  132.4520 C.1   323  FC6323      0.0000
      3 FE2        85.3100  118.9590  133.7950 Fe    323  FC6323      0.0000
      4  C21       85.5090  120.8110  134.2050 C.1   323  FC6323      0.0000
      5  N25       85.6230  121.9420  134.4450 N.1   323  FC6323      0.0000
      6  C22       84.1550  119.5280  132.3910 C.1   323  FC6323      0.0000
      7  N22       83.4590  119.8600  131.5270 N.1   323  FC6323      0.0000
      8  C26       86.4310  118.4490  135.1800 C.1   323  FC6323      0.0000
      9  N21       87.1170  118.1190  136.0230 N.1   323  FC6323      0.0000
     10  C23       85.0920  117.1400  133.3860 C.1   323  FC6323      0.0000
     11  N23       84.9410  116.0260  133.1130 N.1   323  FC6323      0.0000
     12  C11       83.9490  118.9620  135.0900 C.1   323  FC6323      0.0000
     13  N11       83.0990  118.9700  135.8600 N.1   323  FC6323      0.0000
@<TRIPOS>BOND
     1     7     6    3
     2     1     2    3
     3     6     3    1
     4     2     3    1
     5    11    10    3
     6    10     3    1
     7     3     4    1
     8     3    12    1
     9     3     8    1
    10     4     5    3
    11    12    13    3
    12     8     9    3
