@<TRIPOS>MOLECULE
3mkb_HEM_A_1.pdb
 43 50 0 0 0
SMALL
GASTEIGER

@<TRIPOS>ATOM
      1  CHA       -7.2070    5.4770  -38.0640 C.2   141  HEM141      0.0000
      2  CHB       -4.9130    7.3450  -34.2580 C.2   141  HEM141      0.0000
      3  CHC       -6.3870    3.6480  -31.4100 C.2   141  HEM141      0.0000
      4  CHD       -9.0270    1.9910  -35.0760 C.2   141  HEM141      0.0000
      5  C1A       -6.4710    6.3470  -37.2910 C.2   141  HEM141      0.0000
      6  C2A       -5.8520    7.5800  -37.7100 C.2   141  HEM141      0.0000
      7  C3A       -5.2240    8.1400  -36.6540 C.2   141  HEM141      0.0000
      8  C4A       -5.3990    7.2150  -35.5380 C.2   141  HEM141      0.0000
      9  CMA       -4.4220    9.4930  -36.5730 C.3   141  HEM141      0.0000
     10  CAA       -6.0930    8.1380  -39.1240 C.3   141  HEM141      0.0000
     11  CBA       -7.3450    9.0150  -38.7870 C.3   141  HEM141      0.0000
     12  CGA       -7.6420   10.0180  -39.8590 C.2   141  HEM141      0.0000
     13  O1A       -7.2340    9.7440  -41.0350 O.co2 141  HEM141      0.0000
     14  O2A       -8.2810   11.0740  -39.5630 O.co2 141  HEM141      0.0000
     15  C1B       -5.1370    6.5180  -33.1710 C.ar  141  HEM141      0.0000
     16  C2B       -4.6900    6.7780  -31.8210 C.ar  141  HEM141      0.0000
     17  C3B       -5.0680    5.7480  -31.0470 C.ar  141  HEM141      0.0000
     18  C4B       -5.8040    4.8150  -31.8620 C.ar  141  HEM141      0.0000
     19  CMB       -3.8760    8.0020  -31.3150 C.3   141  HEM141      0.0000
     20  CAB       -4.8540    5.5680  -29.5220 C.2   141  HEM141      0.0000
     21  CBB       -3.8990    6.1520  -28.7770 C.2   141  HEM141      0.0000
     22  C1C       -7.2400    2.8310  -32.1290 C.2   141  HEM141      0.0000
     23  C2C       -7.8740    1.5990  -31.6530 C.2   141  HEM141      0.0000
     24  C3C       -8.6050    1.0960  -32.6790 C.2   141  HEM141      0.0000
     25  C4C       -8.4500    2.0140  -33.8230 C.2   141  HEM141      0.0000
     26  CMC       -7.6200    1.0440  -30.2210 C.3   141  HEM141      0.0000
     27  CAC       -9.4390   -0.2120  -32.6130 C.2   141  HEM141      0.0000
     28  CBC       -9.0310   -1.2550  -31.8320 C.2   141  HEM141      0.0000
     29  C1D       -8.7040    2.7530  -36.1990 C.ar  141  HEM141      0.0000
     30  C2D       -9.1210    2.3870  -37.5260 C.ar  141  HEM141      0.0000
     31  C3D       -8.5400    3.3750  -38.4950 C.ar  141  HEM141      0.0000
     32  C4D       -7.8760    4.3400  -37.6290 C.ar  141  HEM141      0.0000
     33  CMD       -9.9470    1.1350  -37.9370 C.3   141  HEM141      0.0000
     34  CAD       -8.7520    3.3170  -40.0520 C.3   141  HEM141      0.0000
     35  CBD       -7.5640    2.7200  -40.8690 C.3   141  HEM141      0.0000
     36  CGD       -7.3740    1.1850  -40.8470 C.2   141  HEM141      0.0000
     37  O1D       -8.3470    0.3800  -41.0610 O.co2 141  HEM141      0.0000
     38  O2D       -6.2250    0.7080  -40.6210 O.co2 141  HEM141      0.0000
     39  NA        -6.1620    6.1680  -35.9850 N.2   141  HEM141      0.0000
     40  NB        -5.8360    5.2860  -33.1680 N.ar  141  HEM141      0.0000
     41  NC        -7.6430    3.0190  -33.4180 N.2   141  HEM141      0.0000
     42  ND        -7.9530    3.9310  -36.2810 N.ar  141  HEM141      0.0000
     43 FE         -6.8720    4.6190  -34.6980 Fe    141  HEM141      0.0000
@<TRIPOS>BOND
     1    37    36   ar
     2    13    12   ar
     3    35    36    1
     4    35    34    1
     5    36    38   ar
     6    34    31    1
     7    12    14   ar
     8    12    11    1
     9    10    11    1
    10    10     6    1
    11    31    32   ar
    12    31    30   ar
    13     1    32    2
    14     1     5    1
    15    33    30    1
    16     6     5    1
    17     6     7    2
    18    32    42   ar
    19    30    29   ar
    20     5    39    2
    21     7     9    1
    22     7     8    1
    23    42    29   ar
    24    42    43    1
    25    29     4    2
    26    39     8    1
    27    39    43    1
    28     8     2    2
    29     4    25    1
    30    43    41    1
    31    43    40    1
    32     2    15    1
    33    25    41    2
    34    25    24    1
    35    41    22    1
    36    15    40   ar
    37    15    16   ar
    38    40    18   ar
    39    24    27    1
    40    24    23    2
    41    27    28    2
    42    22    23    1
    43    22     3    2
    44    18     3    1
    45    18    17   ar
    46    16    19    1
    47    16    17   ar
    48    23    26    1
    49    17    20    1
    50    20    21    2
