@<TRIPOS>MOLECULE
3mkd_ADP_A_1.pdb
 27 29 0 0 0
SMALL
GASTEIGER

@<TRIPOS>ATOM
      1  PB        65.2360   40.0370  -25.6190 P.3   999  ADP999      0.5373
      2  O1B       66.3660   40.3270  -25.8970 O.3   999  ADP999     -0.1143
      3  O2B       65.2520   38.4190  -25.0570 O.3   999  ADP999     -0.1143
      4  O3B       64.2390   39.8630  -26.8340 O.2   999  ADP999     -0.2221
      5  PA        65.2720   41.5700  -23.3760 P.3   999  ADP999      0.2231
      6  O1A       66.5340   41.1790  -22.8900 O.3   999  ADP999     -0.4370
      7  O2A       65.2070   42.8640  -23.9210 O.2   999  ADP999     -0.5169
      8  O3A       64.5650   40.5090  -24.3820 O.3   999  ADP999     -0.2261
      9  O5'       64.4510   41.5640  -22.1000 O.3   999  ADP999     -0.3111
     10  C5'       63.1730   42.1720  -22.0060 C.3   999  ADP999      0.1813
     11  C4'       62.9770   42.9880  -20.7430 C.3   999  ADP999      0.1821
     12  O4'       62.9560   42.1930  -19.5670 O.3   999  ADP999     -0.3135
     13  C3'       64.0560   44.0180  -20.4670 C.3   999  ADP999      0.2184
     14  O3'       63.9250   45.1580  -21.2380 O.3   999  ADP999     -0.2174
     15  C2'       63.9450   44.2410  -18.9990 C.3   999  ADP999      0.2570
     16  O2'       62.8370   45.0050  -18.6270 O.3   999  ADP999     -0.2130
     17  C1'       63.5640   42.8830  -18.5070 C.3   999  ADP999      0.3186
     18  N9        64.6890   42.1180  -18.0510 N.pl3 999  ADP999     -0.1439
     19  C8        65.1380   41.0510  -18.6690 C.3   999  ADP999      0.3377
     20  N7        66.1330   40.4940  -18.0610 N.2   999  ADP999     -0.2095
     21  C5        66.3580   41.2080  -16.9910 C.2   999  ADP999      0.2526
     22  C6        67.2850   41.1660  -15.8730 C.2   999  ADP999      0.4393
     23  N6        68.2000   40.2270  -15.7800 N.pl3 999  ADP999      0.2180
     24  N1        67.1650   42.1220  -14.9600 N.2   999  ADP999      0.0021
     25  C2        66.2490   43.0640  -15.0040 C.3   999  ADP999      0.5254
     26  N3        65.3710   43.1700  -15.9500 N.2   999  ADP999     -0.0055
     27  C4        65.3800   42.3010  -16.9680 C.2   999  ADP999      0.3518
@<TRIPOS>BOND
     1     4     1    2
     2     2     1    1
     3     1     3    1
     4     1     8    1
     5     8     5    1
     6     7     5    2
     7     5     6    1
     8     5     9    1
     9     9    10    1
    10    10    11    1
    11    14    13    1
    12    11    13    1
    13    11    12    1
    14    13    15    1
    15    12    17    1
    16    15    16    1
    17    15    17    1
    18    19    20    1
    19    19    18    1
    20    17    18    1
    21    20    21    2
    22    18    27    1
    23    21    27    1
    24    21    22    1
    25    27    26    2
    26    26    25    1
    27    22    23    1
    28    22    24    2
    29    25    24    1
