@<TRIPOS>MOLECULE
3mke_CZ6_A_1.pdb
 28 29 0 0 0
SMALL
GASTEIGER

@<TRIPOS>ATOM
      1  CAA       18.6310   50.6660   18.0440 C.3   293  CZ6293      0.0000
      2  CAB       20.2890   49.6650   19.3910 C.3   293  CZ6293      0.0000
      3  CAC       22.0180   48.7480   15.5100 C.3   293  CZ6293      0.0000
      4  CAD       12.9020   44.4070   14.2240 C.3   293  CZ6293      0.0000
      5  CAE       11.7450   46.6190   14.5880 C.3   293  CZ6293      0.0000
      6  NAF       12.3750   50.1010   20.5880 N.pl3 293  CZ6293      0.0000
      7  OAG       10.7030   45.4390   16.7680 O.co2 293  CZ6293      0.0000
      8  OAH       16.3940   47.5630   15.7860 O.2   293  CZ6293      0.0000
      9  OAI       12.2190   43.8310   16.9480 O.co2 293  CZ6293      0.0000
     10  CAJ       15.6220   48.7840   19.1350 C.3   293  CZ6293      0.0000
     11  CAK       18.3460   46.0530   17.1120 C.3   293  CZ6293      0.0000
     12  CAL       20.4030   49.7590   17.1510 C.3   293  CZ6293      0.0000
     13  NAM       13.6160   46.9040   16.7640 N.2   293  CZ6293      0.0000
     14  NAN       13.3670   48.7130   18.9330 N.2   293  CZ6293      0.0000
     15  NAO       16.9580   46.3000   17.6050 N.am  293  CZ6293      0.0000
     16  OAP       13.8070   46.0430   15.7270 O.2   293  CZ6293      0.0000
     17  OAQ       18.7500   48.3530   18.1450 O.3   293  CZ6293      0.0000
     18  OAR       19.9330   47.7150   16.1400 O.3   293  CZ6293      0.0000
     19  SAS       15.0460   49.7940   20.3900 S.3   293  CZ6293      0.0000
     20  CAT       11.7570   44.8740   16.4090 C.2   293  CZ6293      0.0000
     21  CAU       16.0990   47.0210   16.8750 C.2   293  CZ6293      0.0000
     22  CAV       14.6960   47.3580   17.4020 C.2   293  CZ6293      0.0000
     23  CAW       13.4320   49.5550   19.9770 C.2   293  CZ6293      0.0000
     24  CAX       14.5710   48.2740   18.4620 C.2   293  CZ6293      0.0000
     25  BAY       19.2000   47.2770   17.2700 B     293  CZ6293      0.0000
     26  CAY       19.4490   49.5820   18.2570 C.3   293  CZ6293      0.0000
     27  CBA       21.0220   48.4690   16.6450 C.3   293  CZ6293      0.0000
     28  CBB       12.5630   45.4990   15.2390 C.3   293  CZ6293      0.0000
@<TRIPOS>BOND
     1     4    28    1
     2     5    28    1
     3    28    16    1
     4    28    20    1
     5     3    27    1
     6    16    13    1
     7     8    21    2
     8    18    27    1
     9    18    25    1
    10    20     7   ar
    11    20     9   ar
    12    27    12    1
    13    13    22    2
    14    21    22    1
    15    21    15   am
    16    11    25    1
    17    11    15    1
    18    12    26    1
    19    25    17    1
    20    22    24    1
    21     1    26    1
    22    17    26    1
    23    26     2    1
    24    24    14    2
    25    24    10    1
    26    14    23    2
    27    10    19    1
    28    23    19    1
    29    23     6    1
