@<TRIPOS>MOLECULE
3mke_MA4_A_1.pdb
 35 37 0 0 0
SMALL
GASTEIGER

@<TRIPOS>ATOM
      1  C1        59.9670   53.9960    2.3210 C.3   400  MA4400      0.2695
      2  C2        60.6950   53.4370    1.1000 C.3   400  MA4400      0.2406
      3  C3        60.4760   51.9260    0.9770 C.3   400  MA4400      0.2198
      4  C4        60.7940   51.1960    2.2960 C.3   400  MA4400      0.2144
      5  C5        60.2310   51.9160    3.5380 C.3   400  MA4400      0.1835
      6  C6        60.8630   51.3610    4.8140 C.3   400  MA4400      0.2142
      7  O2        60.1750   54.0670   -0.0740 O.3   400  MA4400     -0.2149
      8  O3        61.2490   51.4160   -0.1240 O.3   400  MA4400     -0.2174
      9  O5        60.4380   53.3430    3.5060 O.3   400  MA4400     -0.3256
     10  O6        62.2800   51.6220    4.8140 O.3   400  MA4400     -0.2176
     11  O1        58.5630   53.7420    2.1790 O.3   400  MA4400     -0.3257
     12  O4        60.2710   49.8530    2.2620 O.3   400  MA4400     -0.2176
     13  C10       55.0790   55.9170    2.3910 C.3   400  MA4400      0.2695
     14  C20       56.0480   56.3830    1.3100 C.3   400  MA4400      0.2404
     15  C30       57.0640   55.2700    1.0950 C.3   400  MA4400      0.2167
     16  C40       57.7680   54.9020    2.4070 C.3   400  MA4400      0.1804
     17  C50       56.7560   54.6450    3.5280 C.3   400  MA4400      0.1803
     18  C60       57.3980   54.5230    4.9160 C.3   400  MA4400      0.2141
     19  O10       54.0640   56.8990    2.6300 O.3   400  MA4400     -0.3286
     20  O20       55.4100   56.6970    0.0660 O.3   400  MA4400     -0.2149
     21  O30       58.0100   55.6990    0.1130 O.3   400  MA4400     -0.2175
     22  O50       55.8590   55.7500    3.5770 O.3   400  MA4400     -0.3257
     23  O60       58.2420   55.6570    5.1600 O.3   400  MA4400     -0.2176
     24  C11       53.0840   56.3890    3.5220 C.3   400  MA4400      0.1449
     25  C21       51.8030   56.1950    2.7420 C.3   400  MA4400      0.0322
     26  C31       50.8590   57.3420    3.0590 C.3   400  MA4400      0.0026
     27  C41       49.4470   56.7800    3.1050 C.3   400  MA4400      0.0001
     28  C51       48.6000   57.4730    4.1580 C.3   400  MA4400      0.0000
     29  C61       48.9010   56.8980    5.5290 C.3   400  MA4400      0.0000
     30  C12       47.7250   56.0890    6.0310 C.3   400  MA4400      0.0000
     31  C22       47.4100   56.5540    7.4530 C.3   400  MA4400      0.0000
     32  C32       47.9030   55.5570    8.5000 C.3   400  MA4400      0.0000
     33  C42       47.2530   54.1900    8.3100 C.3   400  MA4400      0.0000
     34  C52       47.2060   53.7610    6.8490 C.3   400  MA4400      0.0000
     35  C62       48.1140   54.6140    5.9750 C.3   400  MA4400      0.0000
@<TRIPOS>BOND
     1     8     3    1
     2     7     2    1
     3    20    14    1
     4    21    15    1
     5     3     2    1
     6     3     4    1
     7    15    14    1
     8    15    16    1
     9     2     1    1
    10    14    13    1
    11    11     1    1
    12    11    16    1
    13    12     4    1
    14     4     5    1
    15     1     9    1
    16    13    19    1
    17    13    22    1
    18    16    17    1
    19    19    24    1
    20    25    26    1
    21    25    24    1
    22    26    27    1
    23    27    28    1
    24     9     5    1
    25    17    22    1
    26    17    18    1
    27     5     6    1
    28    28    29    1
    29     6    10    1
    30    18    23    1
    31    29    30    1
    32    35    30    1
    33    35    34    1
    34    30    31    1
    35    34    33    1
    36    31    32    1
    37    33    32    1
