@<TRIPOS>MOLECULE
3mke_CB4_A_1.pdb
 22 22 0 0 0
SMALL
GASTEIGER

@<TRIPOS>ATOM
      1  B         32.2280   62.9740    6.1920 B       1  CB41        0.0000
      2  OB1       31.2240   62.9460    7.3580 O.3     1  CB41        0.0000
      3  OB2       33.6580   63.4660    6.4480 O.3     1  CB41        0.0000
      4  C7        31.5750   63.8770    5.0270 C.2     1  CB41        0.0000
      5  N10       32.3910   64.0220    3.8140 N.am    1  CB41        0.0000
      6  C11       32.0070   64.8370    2.8180 C.2     1  CB41        0.0000
      7  O12       30.9390   65.4520    2.8770 O.2     1  CB41        0.0000
      8  C13       32.8430   64.9910    1.6200 C.2     1  CB41        0.0000
      9  N16       33.9270   64.3010    1.3780 N.2     1  CB41        0.0000
     10  O17       34.4770   63.3540    2.1520 O.2     1  CB41        0.0000
     11  C18       35.7930   62.9460    1.7810 C.3     1  CB41        0.0000
     12  C14       32.5770   65.9660    0.5410 C.2     1  CB41        0.0000
     13  C15       31.4990   66.8540    0.5210 C.3     1  CB41        0.0000
     14  S16       31.5350   67.8230   -0.9230 S.3     1  CB41        0.0000
     15  C17       32.9680   66.9910   -1.3910 C.2     1  CB41        0.0000
     16  N18       33.6060   67.2880   -2.5620 N.pl3   1  CB41        0.0000
     17  N19       33.4100   66.0410   -0.5450 N.2     1  CB41        0.0000
     18  C19       35.7400   62.2980    0.4010 C.3     1  CB41        0.0000
     19  C20       36.8170   64.0930    1.7900 C.3     1  CB41        0.0000
     20  C21       36.1420   61.9450    2.8240 C.2     1  CB41        0.0000
     21  O2A       37.3350   61.7830    3.1180 O.co2   1  CB41        0.0000
     22  O2B       35.1870   61.3580    3.3590 O.co2   1  CB41        0.0000
@<TRIPOS>BOND
     1    16    15    1
     2    15    14    1
     3    15    17    2
     4    14    13    1
     5    17    12    2
     6    18    11    1
     7    13    12    1
     8    12     8    1
     9     9     8    2
    10     9    10    1
    11     8     6    1
    12    11    19    1
    13    11    10    1
    14    11    20    1
    15     6     7    2
    16     6     5    1
    17    20    21   ar
    18    20    22   ar
    19     5     4    2
    20     4     1    1
    21     1     3    1
    22     1     2    1
