@<TRIPOS>MOLECULE
3mkf_CZ7_A_1.pdb
 28 29 0 0 0
SMALL
GASTEIGER

@<TRIPOS>ATOM
      1  C         31.2850   65.6920    4.2740 C.2     1  CZ71        0.0000
      2  N         30.8820   68.0890    4.6100 N.am    1  CZ71        0.0000
      3  O         30.2050   65.5810    3.6980 O.2     1  CZ71        0.0000
      4  CA        31.9030   67.0430    4.5370 C.3     1  CZ71        0.0000
      5  CAA       25.2920   72.1220    6.4980 C.3     1  CZ71        0.0000
      6  OAC       31.8780   69.1720    6.2750 O.2     1  CZ71        0.0000
      7  OAD       27.3830   71.6590    3.9700 O.2     1  CZ71        0.0000
      8  OAE       28.7650   69.3120    3.7410 O.2     1  CZ71        0.0000
      9  OAF       35.7070   68.3620    0.5700 O.3     1  CZ71        0.0000
     10  OAG       31.2190   62.7020    7.1610 O.3     1  CZ71        0.0000
     11  OAH       33.5000   62.7500    6.1820 O.3     1  CZ71        0.0000
     12  CAI       35.1480   68.0580    2.8760 C.ar    1  CZ71        0.0000
     13  CAJ       33.4890   67.7070    1.1620 C.ar    1  CZ71        0.0000
     14  CAK       34.2210   67.7330    3.8630 C.ar    1  CZ71        0.0000
     15  CAL       32.5610   67.3820    2.1480 C.ar    1  CZ71        0.0000
     16  CAM       26.7170   72.5410    6.2800 C.3     1  CZ71        0.0000
     17  CAN       31.5750   63.2490    4.5680 C.3     1  CZ71        0.0000
     18  CAO       28.6220   71.4420    7.0800 C.ar    1  CZ71        0.0000
     19  CAP       29.8280   70.7750    6.7390 C.ar    1  CZ71        0.0000
     20  NAQ       31.9740   64.6460    4.7090 N.am    1  CZ71        0.0000
     21  CAT       30.9430   69.1030    5.4870 C.2     1  CZ71        0.0000
     22  CAU       27.9020   71.0960    4.9290 C.ar    1  CZ71        0.0000
     23  CAV       28.9220   70.0670    4.6850 C.ar    1  CZ71        0.0000
     24  CAW       34.7890   68.0420    1.5300 C.ar    1  CZ71        0.0000
     25  CAX       32.9150   67.3900    3.5000 C.ar    1  CZ71        0.0000
     26  BAY       32.0260   62.4760    5.8850 B       1  CZ71        0.0000
     27  NBA       27.5210   71.3750    6.1850 N.ar    1  CZ71        0.0000
     28  NBB       29.9720   70.0440    5.5260 N.ar    1  CZ71        0.0000
@<TRIPOS>BOND
     1     9    24    1
     2    13    24   ar
     3    13    15   ar
     4    24    12   ar
     5    15    25   ar
     6    12    14   ar
     7    25    14   ar
     8    25     4    1
     9     3     1    2
    10     8    23    2
    11     7    22    2
    12     1     4    1
    13     1    20   am
    14     4     2    1
    15    17    20    1
    16    17    26    1
    17     2    21   am
    18    23    22   ar
    19    23    28   ar
    20    22    27   ar
    21    21    28   am
    22    21     6    2
    23    28    19   ar
    24    26    11    1
    25    26    10    1
    26    27    16    1
    27    27    18   ar
    28    16     5    1
    29    19    18   ar
