@<TRIPOS>MOLECULE
3mkf_MA4_A_1.pdb
 35 37 0 0 0
SMALL
GASTEIGER

@<TRIPOS>ATOM
      1  C1        59.6350   53.6600    1.8610 C.3   600  MA4600      0.2695
      2  C2        60.1410   52.9880    0.5890 C.3   600  MA4600      0.2406
      3  C3        59.9300   51.4750    0.6260 C.3   600  MA4600      0.2198
      4  C4        60.3820   50.8470    1.9450 C.3   600  MA4600      0.2144
      5  C5        59.9230   51.6540    3.1640 C.3   600  MA4600      0.1835
      6  C6        60.5900   51.1590    4.4400 C.3   600  MA4600      0.2142
      7  O2        59.4400   53.5390   -0.5310 O.3   600  MA4600     -0.2149
      8  O3        60.6280   50.8810   -0.4730 O.3   600  MA4600     -0.2174
      9  O5        60.2360   53.0440    3.0040 O.3   600  MA4600     -0.3256
     10  O6        62.0100   51.3020    4.2890 O.3   600  MA4600     -0.2176
     11  O1        58.2120   53.5060    1.9130 O.3   600  MA4600     -0.3257
     12  O4        59.8340   49.5270    2.0310 O.3   600  MA4600     -0.2176
     13  C10       54.8570   55.8740    2.3460 C.3   600  MA4600      0.2695
     14  C20       55.7320   56.2260    1.1510 C.3   600  MA4600      0.2404
     15  C30       56.6780   55.0630    0.8750 C.3   600  MA4600      0.2167
     16  C40       57.5020   54.7280    2.1170 C.3   600  MA4600      0.1804
     17  C50       56.6170   54.5650    3.3570 C.3   600  MA4600      0.1803
     18  C60       57.4570   54.5140    4.6280 C.3   600  MA4600      0.2141
     19  O10       53.9710   56.9620    2.6100 O.3   600  MA4600     -0.3286
     20  O20       54.9180   56.4890    0.0050 O.3   600  MA4600     -0.2149
     21  O30       57.5460   55.4000   -0.2130 O.3   600  MA4600     -0.2175
     22  O50       55.6980   55.6570    3.4830 O.3   600  MA4600     -0.3257
     23  O60       58.3990   55.5960    4.5990 O.3   600  MA4600     -0.2176
     24  C11       52.9650   56.5980    3.5480 C.3   600  MA4600      0.1449
     25  C21       51.6070   56.9590    2.9680 C.3   600  MA4600      0.0322
     26  C31       50.5510   55.9870    3.4710 C.3   600  MA4600      0.0026
     27  C41       49.1520   56.5610    3.2820 C.3   600  MA4600      0.0001
     28  C51       48.5860   57.1500    4.5710 C.3   600  MA4600      0.0000
     29  C61       48.5860   56.1370    5.7110 C.3   600  MA4600      0.0000
     30  C12       47.1790   55.9600    6.2590 C.3   600  MA4600      0.0000
     31  C22       47.2010   56.2690    7.7560 C.3   600  MA4600      0.0000
     32  C32       46.5110   55.1910    8.5880 C.3   600  MA4600      0.0000
     33  C42       47.1200   53.8080    8.3660 C.3   600  MA4600      0.0000
     34  C52       47.3280   53.4860    6.8880 C.3   600  MA4600      0.0000
     35  C62       46.7000   54.5340    5.9680 C.3   600  MA4600      0.0000
@<TRIPOS>BOND
     1     7     2    1
     2     8     3    1
     3    21    15    1
     4    20    14    1
     5     2     3    1
     6     2     1    1
     7     3     4    1
     8    15    14    1
     9    15    16    1
    10    14    13    1
    11     1    11    1
    12     1     9    1
    13    11    16    1
    14     4    12    1
    15     4     5    1
    16    16    17    1
    17    13    19    1
    18    13    22    1
    19    19    24    1
    20    25    26    1
    21    25    24    1
    22     9     5    1
    23     5     6    1
    24    27    26    1
    25    27    28    1
    26    17    22    1
    27    17    18    1
    28    10     6    1
    29    28    29    1
    30    23    18    1
    31    29    30    1
    32    35    30    1
    33    35    34    1
    34    30    31    1
    35    34    33    1
    36    31    32    1
    37    33    32    1
