@<TRIPOS>MOLECULE
3mkj_PZP_A_1.pdb
 16 16 0 0 0
SMALL
GASTEIGER

@<TRIPOS>ATOM
      1  P          5.4490   18.0370    9.2540 P.3   399  PZP399      0.5329
      2  N1         4.6440   21.3150   14.5700 N.ar  399  PZP399     -0.2452
      3  C2         5.6360   20.8070   15.3730 C.ar  399  PZP399      0.0981
      4  C3         6.6570   20.0730   14.7390 C.ar  399  PZP399      0.2104
      5  O3         7.6350   19.5570   15.5390 O.3   399  PZP399     -0.2853
      6  C4         6.6560   19.8770   13.3430 C.ar  399  PZP399      0.0610
      7  C5         5.6350   20.4180   12.5690 C.ar  399  PZP399      0.0317
      8  C6         4.6140   21.1390   13.2200 C.ar  399  PZP399      0.0968
      9  O1P        4.4320   16.9250    9.2880 O.3   399  PZP399     -0.1145
     10  C2A        5.5580   21.0560   16.8490 C.3   399  PZP399      0.0555
     11  O2P        6.8510   17.6840    9.6970 O.3   399  PZP399     -0.1145
     12  O3P        5.3610   19.0710    8.1690 O.2   399  PZP399     -0.2224
     13  C4A        7.7260   19.0970   12.6550 C.2   399  PZP399      0.1251
     14  N4A        7.5290   17.8780   12.2790 N.2   399  PZP399     -0.1463
     15  O4P        4.9330   19.0510   10.7710 O.3   399  PZP399     -0.2653
     16  C5A        5.5390   20.1990   11.0050 C.3   399  PZP399      0.1819
@<TRIPOS>BOND
     1    12     1    2
     2     1     9    1
     3     1    11    1
     4     1    15    1
     5    15    16    1
     6    16     7    1
     7    14    13    2
     8     7     8   ar
     9     7     6   ar
    10    13     6    1
    11     8     2   ar
    12     6     4   ar
    13     2     3   ar
    14     4     3   ar
    15     4     5    1
    16     3    10    1
