@<TRIPOS>MOLECULE
3mkk_BGC_A_1.pdb
 12 12 0 0 0
SMALL
GASTEIGER

@<TRIPOS>ATOM
      1  C2         6.4010  -12.3370   26.7300 C.3   802  BGC802      0.2434
      2  C3         6.7910  -11.0720   25.9440 C.3   802  BGC802      0.2199
      3  C4         6.4540  -11.4180   24.4750 C.3   802  BGC802      0.2144
      4  C5         4.9390  -11.6890   24.4080 C.3   802  BGC802      0.1836
      5  C6         4.4240  -11.9940   23.0180 C.3   802  BGC802      0.2142
      6  C1         4.8740  -12.5430   26.5980 C.3   802  BGC802      0.3024
      7  O1         4.4890  -13.7050   27.2730 O.3   802  BGC802     -0.1869
      8  O2         6.8460  -12.4150   28.0670 O.3   802  BGC802     -0.2148
      9  O3         8.1530  -10.7790   26.1250 O.3   802  BGC802     -0.2174
     10  O4         6.9240  -10.5050   23.4870 O.3   802  BGC802     -0.2176
     11  O5         4.5550  -12.7680   25.2370 O.3   802  BGC802     -0.3236
     12  O6         3.7150  -10.8810   22.5420 O.3   802  BGC802     -0.2176
@<TRIPOS>BOND
     1    12     5    1
     2     5     4    1
     3    10     3    1
     4     4     3    1
     5     4    11    1
     6     3     2    1
     7    11     6    1
     8     2     9    1
     9     2     1    1
    10     6     1    1
    11     6     7    1
    12     1     8    1
