@<TRIPOS>MOLECULE
3mkk_GLC_A_1.pdb
 11 11 0 0 0
SMALL
GASTEIGER

@<TRIPOS>ATOM
      1  C1         3.7480  -10.8780   20.9490 C.3   801  GLC801      0.1777
      2  C2         2.7300   -9.8330   20.4930 C.3   801  GLC801      0.2141
      3  C3         1.3170  -10.2930   20.8730 C.3   801  GLC801      0.2173
      4  C4         1.1100  -11.6840   20.2800 C.3   801  GLC801      0.2142
      5  C5         2.1570  -12.6920   20.7870 C.3   801  GLC801      0.1810
      6  C6         2.0430  -14.0320   20.0760 C.3   801  GLC801      0.2141
      7  O2         3.0470   -8.5790   21.0740 O.3   801  GLC801     -0.2176
      8  O3         0.3860   -9.4120   20.2960 O.3   801  GLC801     -0.2175
      9  O4        -0.1670  -12.1470   20.6350 O.3   801  GLC801     -0.2176
     10  O5         3.4400  -12.1950   20.4970 O.3   801  GLC801     -0.3481
     11  O6         2.2000  -13.8130   18.6840 O.3   801  GLC801     -0.2176
@<TRIPOS>BOND
     1    11     6    1
     2     6     5    1
     3     4     9    1
     4     4     5    1
     5     4     3    1
     6     8     3    1
     7     2     3    1
     8     2     1    1
     9     2     7    1
    10    10     5    1
    11    10     1    1
