@<TRIPOS>MOLECULE
3mkn_DNB_A_1.pdb
 17 18 0 0 0
SMALL
GASTEIGER

@<TRIPOS>ATOM
      1  O2'       29.1690    3.7880   33.6030 O.3   502  DNB502     -0.2185
      2  C2'       27.7760    3.4440   33.7790 C.3   502  DNB502      0.2035
      3  C3'       27.5870    2.2670   34.7420 C.3   502  DNB502      0.2023
      4  O3'       28.7830    1.4840   34.8640 O.3   502  DNB502     -0.2188
      5  C1'       27.1530    3.0000   32.4520 C.3   502  DNB502      0.1280
      6  N4'       26.7350    1.6380   32.7260 N.3   502  DNB502     -0.2084
      7  C4'       26.5480    1.3480   34.1270 C.3   502  DNB502      0.1389
      8  C5'       25.1330    1.6520   34.6620 C.3   502  DNB502      0.2020
      9  O5'       24.1120    0.9050   33.9870 O.3   502  DNB502     -0.2188
     10  C1        25.8820    3.6570   32.0970 C.ar  502  DNB502     -0.0025
     11  C6        25.3120    3.3050   30.8700 C.ar  502  DNB502     -0.0014
     12  C5        24.0870    3.8480   30.4770 C.ar  502  DNB502      0.0192
     13  C4        23.4300    4.7450   31.3250 C.ar  502  DNB502      0.1057
     14  C3        23.9900    5.0910   32.5630 C.ar  502  DNB502      0.1055
     15  N3        23.3510    5.9700   33.3880 N.pl3 502  DNB502     -0.1267
     16  C2        25.2200    4.5450   32.9560 C.ar  502  DNB502      0.0166
     17  N4        22.2390    5.2630   30.9180 N.pl3 502  DNB502     -0.1266
@<TRIPOS>BOND
     1    12    11   ar
     2    12    13   ar
     3    11    10   ar
     4    17    13    1
     5    13    14   ar
     6    10     5    1
     7    10    16   ar
     8     5     6    1
     9     5     2    1
    10    14    16   ar
    11    14    15    1
    12     6     7    1
    13     1     2    1
    14     2     3    1
    15     9     8    1
    16     7     8    1
    17     7     3    1
    18     3     4    1
