@<TRIPOS>MOLECULE
3mkp_SGN_A_1.pdb
 19 19 0 0 0
SMALL
GASTEIGER

@<TRIPOS>ATOM
      1  C1        -8.3720    9.5570   28.4320 C.3     3  SGN3        0.1640
      2  C2        -9.5030   10.3220   27.7280 C.3     3  SGN3        0.1563
      3  C3       -10.6640    9.4460   27.2390 C.3     3  SGN3        0.2047
      4  C4       -10.1900    8.0750   26.7720 C.3     3  SGN3        0.2131
      5  C5        -9.4190    7.4080   27.9120 C.3     3  SGN3        0.1800
      6  C6        -8.9610    6.0120   27.5360 C.3     3  SGN3        0.2045
      7  N         -9.9830   11.3780   28.6200 N.3     3  SGN3       -0.1156
      8  O3       -11.3410   10.0920   26.1810 O.3     3  SGN3       -0.2187
      9  O4       -11.3020    7.3020   26.3580 O.3     3  SGN3       -0.2176
     10  O5        -8.2480    8.1590   28.1830 O.3     3  SGN3       -0.3493
     11  O6        -7.9620    6.1990   26.5600 O.3     3  SGN3       -0.2384
     12  S1        -9.2890   12.8330   28.7000 S.3     3  SGN3       -0.1289
     13  O1S       -8.5910   12.9550   27.4230 O.3     3  SGN3       -0.2919
     14  O2S      -10.3650   13.8260   28.8250 O.3     3  SGN3       -0.2919
     15  O3S       -8.3530   12.8510   29.8380 O.3     3  SGN3       -0.2919
     16  S2        -6.4950    5.6810   26.7680 S.3     3  SGN3       -0.0001
     17  O4S       -5.5880    6.7640   26.3630 O.2     3  SGN3       -0.3452
     18  O5S       -6.2850    5.3610   28.1900 O.3     3  SGN3       -0.2682
     19  O6S       -6.3700    4.4910   25.9050 O.2     3  SGN3       -0.3452
@<TRIPOS>BOND
     1    19    16    2
     2     8     3    1
     3     9     4    1
     4    17    16    2
     5    11    16    1
     6    11     6    1
     7    16    18    1
     8     4     3    1
     9     4     5    1
    10     3     2    1
    11    13    12    1
    12     6     5    1
    13     2     1    1
    14     2     7    1
    15     5    10    1
    16    10     1    1
    17     7    12    1
    18    12    14    1
    19    12    15    1
