@<TRIPOS>MOLECULE
3mkp_IDS_C_1.pdb
 16 16 0 0 0
SMALL
GASTEIGER

@<TRIPOS>ATOM
      1  C1        -8.3900    8.0290  -30.3920 C.3     5  IDS5        0.1774
      2  C2        -9.1400    6.7250  -30.6830 C.3     5  IDS5        0.2054
      3  C3       -10.4680    6.9500  -31.4200 C.3     5  IDS5        0.2169
      4  C4       -10.3630    7.9730  -32.5520 C.3     5  IDS5        0.2227
      5  C5        -9.6390    9.2290  -32.0460 C.3     5  IDS5        0.2512
      6  C6        -9.5740   10.2940  -33.1140 C.2     5  IDS5        0.3940
      7  O2        -8.3130    5.8390  -31.4370 O.3     5  IDS5       -0.2384
      8  O3       -11.4550    7.4020  -30.4880 O.3     5  IDS5       -0.2175
      9  O4        -9.6830    7.3950  -33.6800 O.3     5  IDS5       -0.2171
     10  O5        -8.3380    8.8610  -31.5550 O.3     5  IDS5       -0.3403
     11  O61       -8.4600   10.6710  -33.5380 O.co2   5  IDS5       -0.2429
     12  O62      -10.6440   10.7780  -33.5430 O.co2   5  IDS5       -0.2429
     13  S         -8.1930    4.2690  -31.0050 S.3     5  IDS5       -0.0001
     14  O1S       -9.5540    3.7010  -30.8740 O.2     5  IDS5       -0.3452
     15  O2S       -7.4510    3.5230  -32.0370 O.2     5  IDS5       -0.3452
     16  O3S       -7.4480    4.1450  -29.7320 O.3     5  IDS5       -0.2682
@<TRIPOS>BOND
     1     9     4    1
     2    12     6   ar
     3    11     6   ar
     4     6     5    1
     5     4     5    1
     6     4     3    1
     7     5    10    1
     8    15    13    2
     9    10     1    1
    10     7    13    1
    11     7     2    1
    12     3     2    1
    13     3     8    1
    14    13    14    2
    15    13    16    1
    16     2     1    1
