@<TRIPOS>MOLECULE
3mks_C1C_D_1.pdb
 26 29 0 0 0
SMALL
GASTEIGER

@<TRIPOS>ATOM
      1  C1       171.3980   34.3160  -52.1780 C.ar    1  C1C1        0.0000
      2  C2       170.7940   35.1430  -53.1080 C.ar    1  C1C1        0.0000
      3  C3       171.4000   35.3260  -54.3500 C.ar    1  C1C1        0.0000
      4  C4       172.6200   34.6450  -54.6670 C.ar    1  C1C1        0.0002
      5  C5       173.2050   33.7990  -53.7110 C.ar    1  C1C1        0.0000
      6  C6       172.5980   33.6510  -52.4740 C.ar    1  C1C1        0.0000
      7  C7       170.7700   36.1640  -55.2780 C.ar    1  C1C1        0.0002
      8  C8       171.3890   36.3120  -56.5240 C.ar    1  C1C1        0.0066
      9  C9       172.5930   35.6460  -56.8290 C.ar    1  C1C1        0.0798
     10  C10      173.2270   34.7880  -55.9250 C.ar    1  C1C1        0.0066
     11  C11      174.4300   34.0990  -56.1690 C.ar    1  C1C1        0.0066
     12  C12      175.6580   34.7700  -56.0510 C.ar    1  C1C1        0.0002
     13  C13      176.8530   34.1010  -56.2260 C.ar    1  C1C1        0.0000
     14  C14      176.8650   32.7470  -56.5150 C.ar    1  C1C1        0.0002
     15  C15      175.6670   32.0560  -56.6300 C.ar    1  C1C1        0.0066
     16  C16      174.4650   32.7260  -56.4590 C.ar    1  C1C1        0.0798
     17  C17      175.7020   36.1290  -55.7350 C.ar    1  C1C1        0.0000
     18  C18      176.9080   36.8010  -55.6360 C.ar    1  C1C1        0.0000
     19  C19      178.1200   36.1220  -55.8330 C.ar    1  C1C1        0.0000
     20  C20      178.0720   34.7690  -56.1140 C.ar    1  C1C1        0.0000
     21  C21      173.2310   31.8710  -56.5780 C.2     1  C1C1        0.3878
     22  O22      173.2510   30.7740  -55.9170 O.co2   1  C1C1       -0.2406
     23  O23      172.2770   32.3330  -57.2520 O.co2   1  C1C1       -0.2406
     24  C24      173.1690   35.8640  -58.1930 C.2     1  C1C1        0.3878
     25  O25      173.3060   34.8500  -58.8830 O.co2   1  C1C1       -0.2406
     26  O26      173.4250   37.0070  -58.5590 O.co2   1  C1C1       -0.2406
@<TRIPOS>BOND
     1    25    24   ar
     2    26    24   ar
     3    24     9    1
     4    23    21   ar
     5     9     8   ar
     6     9    10   ar
     7    15    14   ar
     8    15    16   ar
     9    21    16    1
    10    21    22   ar
    11     8     7   ar
    12    14    13   ar
    13    16    11   ar
    14    13    20   ar
    15    13    12   ar
    16    11    12   ar
    17    11    10    1
    18    20    19   ar
    19    12    17   ar
    20    10     4   ar
    21    19    18   ar
    22    17    18   ar
    23     7     3   ar
    24     4     3   ar
    25     4     5   ar
    26     3     2   ar
    27     5     6   ar
    28     2     1   ar
    29     6     1   ar
