@<TRIPOS>MOLECULE
3ml1_MGD_A_1.pdb
 47 52 0 0 0
SMALL
GASTEIGER

@<TRIPOS>ATOM
      1  PB        45.7560  -13.8340   18.0330 P.3   1803  MGD1803     0.2189
      2  O1B       46.1450  -13.1170   19.2770 O.3   1803  MGD1803    -0.4371
      3  O2B       45.8600  -15.3410   18.0370 O.2   1803  MGD1803    -0.5170
      4  O3B       44.1890  -13.5340   17.6900 O.3   1803  MGD1803    -0.2703
      5  O3A       42.1090  -12.1900   17.9540 O.3   1803  MGD1803    -0.3109
      6  PA        43.5750  -12.1040   17.2240 P.3   1803  MGD1803     0.2189
      7  O1A       43.2030  -12.2670   15.7390 O.2   1803  MGD1803    -0.5170
      8  O2A       44.4340  -10.9850   17.6450 O.3   1803  MGD1803    -0.4371
      9  O5'       46.5420  -13.2090   16.7370 O.3   1803  MGD1803    -0.3112
     10  C5'       47.8680  -12.7280   16.9050 C.3   1803  MGD1803     0.1813
     11  C4'       48.6790  -13.2430   15.7190 C.3   1803  MGD1803     0.1799
     12  O4'       49.9490  -12.5580   15.7800 O.3   1803  MGD1803    -0.3326
     13  C3'       48.8590  -14.7900   15.7390 C.3   1803  MGD1803     0.2158
     14  O3'       48.4580  -15.3250   14.4530 O.3   1803  MGD1803    -0.2175
     15  C2'       50.3670  -14.8390   15.9150 C.3   1803  MGD1803     0.2310
     16  O2'       51.0540  -16.0110   15.3350 O.3   1803  MGD1803    -0.2158
     17  C1'       50.8590  -13.5560   15.3150 C.3   1803  MGD1803     0.2293
     18  N9        52.2080  -13.1740   15.6740 N.pl3 1803  MGD1803    -0.2354
     19  C8        52.7460  -13.1610   17.0160 C.3   1803  MGD1803     0.2246
     20  N7        53.7150  -12.2360   17.1410 N.2   1803  MGD1803    -0.2322
     21  C5        53.7600  -11.5120   15.9540 C.2   1803  MGD1803     0.2182
     22  C6        54.4960  -10.3610   15.5310 C.1   1803  MGD1803     0.2372
     23  O6        55.2370   -9.7740   16.3350 O.2   1803  MGD1803    -0.2069
     24  N1        54.1610   -9.9570   14.2310 N.2   1803  MGD1803    -0.2485
     25  C2        53.2560  -10.6280   13.4370 C.1   1803  MGD1803     0.2531
     26  N2        53.0150  -10.0480   12.1690 N.pl3 1803  MGD1803    -0.0226
     27  N3        52.5070  -11.6640   13.8120 N.2   1803  MGD1803    -0.3074
     28  C4        52.8020  -12.1050   15.0830 C.2   1803  MGD1803     0.2300
     29  C10       41.9880  -11.5170   19.2430 C.3   1803  MGD1803     0.1837
     30  C11       40.5050  -10.9960   19.2140 C.3   1803  MGD1803     0.1762
     31  O11       39.6680  -12.1530   19.0540 O.3   1803  MGD1803    -0.3271
     32  C12       40.1190  -10.3360   20.5060 C.2   1803  MGD1803     0.0473
     33  S12       41.3700   -9.3970   21.3680 S.3   1803  MGD1803    -0.0526
     34  C13       38.9060  -10.4420   21.0370 C.2   1803  MGD1803     0.0449
     35  S13       38.5550   -9.6360   22.5850 S.3   1803  MGD1803    -0.0530
     36  C14       37.8440  -11.3240   20.4920 C.3   1803  MGD1803     0.1850
     37  N15       37.6200  -12.4210   21.3700 N.2   1803  MGD1803    -0.2411
     38  C16       36.7840  -13.4240   20.8660 C.2   1803  MGD1803     0.2467
     39  C17       35.8180  -14.1490   21.6240 C.1   1803  MGD1803     0.2441
     40  O17       35.8150  -14.0470   22.8920 O.2   1803  MGD1803    -0.2063
     41  N18       35.0630  -15.0930   21.0310 N.2   1803  MGD1803    -0.2474
     42  C19       35.1240  -15.3090   19.6540 C.1   1803  MGD1803     0.2608
     43  N19       34.2940  -16.2410   19.1270 N.pl3 1803  MGD1803    -0.0220
     44  N20       35.9490  -14.5810   18.8810 N.2   1803  MGD1803    -0.2682
     45  C21       36.7320  -13.6260   19.3870 C.1   1803  MGD1803     0.1293
     46  N22       37.5510  -12.9100   18.6090 N.2   1803  MGD1803    -0.1763
     47  C23       38.2890  -11.8050   19.0670 C.3   1803  MGD1803     0.2573
@<TRIPOS>BOND
     1    26    25    1
     2    25    27    2
     3    25    24    2
     4    27    28    2
     5    24    22    2
     6    14    13    1
     7    28    18    1
     8    28    21    1
     9    17    18    1
    10    17    12    1
    11    17    15    1
    12    16    15    1
    13    22    21    1
    14    22    23    2
    15    18    19    1
    16    11    13    1
    17    11    12    1
    18    11    10    1
    19     7     6    2
    20    13    15    1
    21    21    20    2
    22     9    10    1
    23     9     1    1
    24    19    20    1
    25     6     8    1
    26     6     4    1
    27     6     5    1
    28     4     1    1
    29     5    29    1
    30     1     3    2
    31     1     2    1
    32    46    47    1
    33    46    45    2
    34    44    45    2
    35    44    42    2
    36    31    47    1
    37    31    30    1
    38    47    36    1
    39    43    42    1
    40    30    29    1
    41    30    32    1
    42    45    38    1
    43    42    41    2
    44    36    34    1
    45    36    37    1
    46    32    34    2
    47    32    33    1
    48    38    37    2
    49    38    39    1
    50    41    39    2
    51    34    35    1
    52    39    40    2
