@<TRIPOS>MOLECULE
3ml1_HEC_B_1.pdb
 43 50 0 0 0
SMALL
GASTEIGER

@<TRIPOS>ATOM
      1 FE         54.0110  -24.5630   42.6000 Fe    1129  HEC1129     0.0000
      2  CHA       57.2510  -25.7410   42.2750 C.2   1129  HEC1129     0.0000
      3  CHB       53.0370  -27.5520   43.9380 C.2   1129  HEC1129     0.0000
      4  CHC       50.8880  -23.1800   43.2880 C.2   1129  HEC1129     0.0000
      5  CHD       54.7630  -21.8440   40.6220 C.2   1129  HEC1129     0.0000
      6  NA        54.9400  -26.3400   43.0460 N.2   1129  HEC1129     0.0000
      7  C1A       56.2950  -26.5890   42.8110 C.2   1129  HEC1129     0.0000
      8  C2A       56.5140  -27.9310   43.2950 C.2   1129  HEC1129     0.0000
      9  C3A       55.3620  -28.4580   43.7010 C.2   1129  HEC1129     0.0000
     10  C4A       54.3490  -27.4210   43.6080 C.2   1129  HEC1129     0.0000
     11  CMA       55.0860  -29.8610   44.2860 C.3   1129  HEC1129     0.0000
     12  CAA       57.9320  -28.6170   43.2130 C.3   1129  HEC1129     0.0000
     13  CBA       58.6190  -28.2010   44.5200 C.3   1129  HEC1129     0.0000
     14  CGA       60.0860  -28.7330   44.5180 C.2   1129  HEC1129     0.0000
     15  O1A       60.7260  -28.9610   43.5110 O.co2 1129  HEC1129     0.0000
     16  O2A       60.5660  -28.9860   45.5890 O.co2 1129  HEC1129     0.0000
     17  NB        52.3150  -25.2280   43.4790 N.ar  1129  HEC1129     0.0000
     18  C1B       52.1420  -26.4860   43.9740 C.ar  1129  HEC1129     0.0000
     19  C2B       50.8780  -26.4450   44.7040 C.ar  1129  HEC1129     0.0000
     20  C3B       50.2570  -25.2990   44.4790 C.ar  1129  HEC1129     0.0000
     21  C4B       51.2150  -24.4270   43.7960 C.ar  1129  HEC1129     0.0000
     22  CMB       50.3120  -27.8090   45.3140 C.3   1129  HEC1129     0.0000
     23  CAB       48.9400  -24.7700   45.0480 C.3   1129  HEC1129     0.0000
     24  CBB       48.8880  -24.9360   46.6170 C.3   1129  HEC1129     0.0000
     25  NC        53.0830  -22.8630   42.0900 N.2   1129  HEC1129     0.0000
     26  C1C       51.7410  -22.5120   42.4260 C.2   1129  HEC1129     0.0000
     27  C2C       51.4290  -21.2780   41.8260 C.2   1129  HEC1129     0.0000
     28  C3C       52.4850  -20.9410   41.0580 C.2   1129  HEC1129     0.0000
     29  C4C       53.5090  -21.9040   41.2020 C.2   1129  HEC1129     0.0000
     30  CMC       50.0160  -20.6830   41.9370 C.3   1129  HEC1129     0.0000
     31  CAC       52.7110  -19.7030   40.0990 C.3   1129  HEC1129     0.0000
     32  CBC       52.3380  -18.3060   40.6080 C.3   1129  HEC1129     0.0000
     33  ND        55.7550  -23.9390   41.6270 N.ar  1129  HEC1129     0.0000
     34  C1D       55.7080  -22.8050   40.8480 C.ar  1129  HEC1129     0.0000
     35  C2D       57.0540  -22.6420   40.3720 C.ar  1129  HEC1129     0.0000
     36  C3D       57.8260  -23.8190   40.8210 C.ar  1129  HEC1129     0.0000
     37  C4D       56.9570  -24.5960   41.6520 C.ar  1129  HEC1129     0.0000
     38  CMD       57.5920  -21.6030   39.4190 C.3   1129  HEC1129     0.0000
     39  CAD       59.2740  -24.2260   40.5420 C.3   1129  HEC1129     0.0000
     40  CBD       60.1410  -23.2840   41.4430 C.3   1129  HEC1129     0.0000
     41  CGD       59.9550  -23.6370   42.9060 C.2   1129  HEC1129     0.0000
     42  O1D       59.3980  -22.8410   43.5680 O.co2 1129  HEC1129     0.0000
     43  O2D       60.3760  -24.6730   43.4260 O.co2 1129  HEC1129     0.0000
@<TRIPOS>BOND
     1    38    35    1
     2    31    32    1
     3    31    28    1
     4    35    36   ar
     5    35    34   ar
     6    39    36    1
     7    39    40    1
     8     5    34    2
     9     5    29    1
    10    36    37   ar
    11    34    33   ar
    12    28    29    1
    13    28    27    2
    14    29    25    2
    15    40    41    1
    16    33    37   ar
    17    33     1    1
    18    37     2    2
    19    27    30    1
    20    27    26    1
    21    25    26    1
    22    25     1    1
    23     2     7    1
    24    26     4    2
    25     1     6    1
    26     1    17    1
    27     7     6    2
    28     7     8    1
    29    41    43   ar
    30    41    42   ar
    31     6    10    1
    32    12     8    1
    33    12    13    1
    34     4    21    1
    35     8     9    2
    36    17    21   ar
    37    17    18   ar
    38    15    14   ar
    39    10     9    1
    40    10     3    2
    41     9    11    1
    42    21    20   ar
    43     3    18    1
    44    18    19   ar
    45    20    19   ar
    46    20    23    1
    47    14    13    1
    48    14    16   ar
    49    19    22    1
    50    23    24    1
