@<TRIPOS>MOLECULE
3ml2_SU0_A_1.pdb
 42 44 0 0 0
SMALL
GASTEIGER

@<TRIPOS>ATOM
      1  C1        -5.0750    2.6800   15.6910 C.ar  263  SU0263      0.1067
      2  N1        -5.1060    0.0910   15.9930 N.3   263  SU0263     -0.1053
      3  O1        -7.2100    1.4060   16.5130 O.2   263  SU0263     -0.1519
      4  S1        -5.7980    1.3740   16.6360 S.O2  263  SU0263      0.0723
      5  C2        -3.6170    2.5500   15.4460 C.ar  263  SU0263     -0.0336
      6  O2        -5.3030    1.5770   17.9740 O.2   263  SU0263     -0.1519
      7  C3        -2.9840    3.5100   14.7140 C.ar  263  SU0263     -0.0386
      8  O3        -4.5980    6.9030   12.8100 O.2   263  SU0263     -0.2751
      9  C4        -3.7540    4.6400   14.1870 C.ar  263  SU0263      0.0335
     10  O4        -0.0880    9.6640   15.4990 O.2   263  SU0263     -0.2452
     11  C5        -5.1170    4.7650   14.3780 C.ar  263  SU0263     -0.0386
     12  C6        -5.8110    3.7190   15.1860 C.ar  263  SU0263     -0.0336
     13  C7        -3.4100    6.5970   12.6710 C.2   263  SU0263      0.2215
     14  N7        -2.8850    5.5470   13.4810 N.am  263  SU0263     -0.2852
     15  C8        -2.3820    7.3990   11.8870 C.3   263  SU0263      0.0503
     16  C9        -1.9770    8.6050   12.6850 C.ar  263  SU0263     -0.0212
     17  C10       -1.2240    8.5340   13.8610 C.ar  263  SU0263      0.0272
     18  C11       -0.7760    9.7090   14.4830 C.ar  263  SU0263      0.3375
     19  O12       -1.0070   11.0000   14.0250 O.2   263  SU0263     -0.4220
     20  C13       -1.8970   11.0920   12.9230 C.ar  263  SU0263      0.1428
     21  C14       -2.3480   12.4460   12.5520 C.ar  263  SU0263      0.0231
     22  C15       -3.2370   12.6170   11.5220 C.ar  263  SU0263      0.1236
     23  C16       -3.8100   11.4060   10.8330 C.ar  263  SU0263     -0.0192
     24  C17       -3.4090   10.1370   11.1830 C.ar  263  SU0263     -0.0474
     25  C18       -2.4270    9.9600   12.2890 C.ar  263  SU0263      0.0215
     26  O19       -3.6180   13.9110   11.1190 O.3   263  SU0263     -0.4950
     27  C20       -2.7720   15.0800   11.2160 C.3   263  SU0263      0.0788
     28  H10       -0.8830    7.7210   14.2640 H     263  SU0263      0.0692
     29  H20       -1.9640   14.9410   10.6890 H     263  SU0263      0.0660
     30 H20A       -3.2520   15.8580   10.8760 H     263  SU0263      0.0660
     31 H20B       -2.5300   15.2290   12.1490 H     263  SU0263      0.0660
     32  H2        -3.1190    1.8010   15.8120 H     263  SU0263      0.0638
     33  H3        -2.0310    3.4540   14.5560 H     263  SU0263      0.0637
     34  H14       -1.9720   13.2180   13.0000 H     263  SU0263      0.0691
     35  H5        -5.6030    5.5250   14.0210 H     263  SU0263      0.0637
     36  H6        -6.7660    3.7750   15.3520 H     263  SU0263      0.0638
     37  H16       -4.4410   11.5240   10.1070 H     263  SU0263      0.0654
     38  HN7       -2.0030    5.3470   13.4200 H     263  SU0263      0.1548
     39  H17       -3.7760    9.3660   10.7260 H     263  SU0263      0.0626
     40  H8        -2.7750    7.6810   11.0410 H     263  SU0263      0.0407
     41  H8A       -1.5970    6.8520   11.7140 H     263  SU0263      0.0407
     42 HN1A       -5.1690   -0.0580   15.1010 H     263  SU0263      0.1694
@<TRIPOS>BOND
     1    37    23    1
     2    29    27    1
     3    39    24    1
     4    23    24   ar
     5    23    22   ar
     6    30    27    1
     7    40    15    1
     8    26    27    1
     9    26    22    1
    10    24    25   ar
    11    27    31    1
    12    22    21   ar
    13    41    15    1
    14    15    13    1
    15    15    16    1
    16    25    16   ar
    17    25    20   ar
    18    21    20   ar
    19    21    34    1
    20    13     8    2
    21    13    14   am
    22    16    17   ar
    23    20    19   ar
    24    38    14    1
    25    14     9    1
    26    17    28    1
    27    17    18   ar
    28    35    11    1
    29    19    18   ar
    30     9    11   ar
    31     9     7   ar
    32    11    12   ar
    33    18    10    2
    34    33     7    1
    35     7     5   ar
    36    42     2    1
    37    12    36    1
    38    12     1   ar
    39     5     1   ar
    40     5    32    1
    41     1     4    1
    42     2     4    1
    43     3     4    2
    44     4     6    2
