@<TRIPOS>MOLECULE
3ml5_AZM_A_1.pdb
 13 13 0 0 0
SMALL
GASTEIGER

@<TRIPOS>ATOM
      1  C1        -2.5460   -2.7960   19.6090 C.ar  264  AZM264      0.2590
      2  C2        -4.5190   -2.4240   20.8150 C.ar  264  AZM264      0.2093
      3  C3        -6.6040   -1.1100   20.9090 C.2   264  AZM264      0.2478
      4  C4        -7.7590   -0.8200   21.8100 C.3   264  AZM264      0.0969
      5  N1         0.1220   -2.4650   19.3250 N.3   264  AZM264      0.0413
      6  N2        -3.7630   -3.3400   21.3670 N.ar  264  AZM264     -0.1222
      7  N3        -2.6110   -3.5520   20.6560 N.ar  264  AZM264     -0.1189
      8  N4        -5.7180   -2.0670   21.3910 N.am  264  AZM264     -0.1528
      9  O1        -1.0470   -4.2190   18.1030 O.2   264  AZM264     -0.1483
     10  O2        -1.4030   -1.8260   17.5280 O.2   264  AZM264     -0.1483
     11  O3        -6.4290   -0.5650   19.8370 O.2   264  AZM264     -0.2729
     12  S1        -1.1590   -2.8480   18.4960 S.O2  264  AZM264      0.1178
     13  S2        -3.8800   -1.7330   19.3570 S.2   264  AZM264     -0.0087
@<TRIPOS>BOND
     1    10    12    2
     2     9    12    2
     3    12     5    1
     4    12     1    1
     5    13     1   ar
     6    13     2   ar
     7     1     7   ar
     8    11     3    2
     9     7     6   ar
    10     2     6   ar
    11     2     8    1
    12     3     8   am
    13     3     4    1
