@<TRIPOS>MOLECULE
3ml8_ML8_A_1.pdb
 27 30 0 0 0
SMALL
GASTEIGER

@<TRIPOS>ATOM
      1  C24       40.2380   13.7910   32.4470 C.ar  9999  ML89999    -0.0002
      2  C25       41.5660   14.1840   32.1430 C.ar  9999  ML89999     0.0001
      3  C23       39.6270   12.7330   31.7470 C.ar  9999  ML89999    -0.0017
      4  C21       41.6660   12.4480   30.4330 C.ar  9999  ML89999    -0.0016
      5  C14       42.3300   13.5260   31.1230 C.ar  9999  ML89999     0.0039
      6  C1        45.8860   13.4610   29.5700 C.3   9999  ML89999     0.1392
      7  C22       40.3350   12.0580   30.7410 C.ar  9999  ML89999     0.0106
      8  C6        46.6520   12.6540   28.7130 C.2   9999  ML89999     0.1124
      9  C2        46.5250   14.6090   30.0580 C.2   9999  ML89999     0.1897
     10  C4        48.5040   14.0890   28.8870 C.1   9999  ML89999     0.2205
     11  C9        44.5090   13.1680   29.9570 C.2   9999  ML89999    -0.0067
     12  C10       43.7710   13.9470   30.7860 C.2   9999  ML89999     0.0505
     13  C11       44.4530   15.2230   31.3380 C.2   9999  ML89999     0.2540
     14  C16       45.6370   18.7060   32.5290 C.3   9999  ML89999     0.0018
     15  C17       46.7590   18.1170   33.3850 C.3   9999  ML89999     0.0018
     16  C15       45.8050   18.0450   31.1630 C.3   9999  ML89999     0.0203
     17  C18       46.8160   16.6580   32.9510 C.3   9999  ML89999     0.0203
     18  C8        46.5610   16.7130   31.4280 C.3   9999  ML89999     0.0821
     19  C13       46.1190   11.4020   28.0970 C.3   9999  ML89999     0.0634
     20  C19       50.6420   15.1800   29.4370 C.3   9999  ML89999     0.1504
     21  C26       39.6980   10.9430   29.9960 C.3   9999  ML89999     0.2086
     22  N5        47.9480   12.9570   28.3740 N.2   9999  ML89999    -0.3351
     23  N3        47.8090   14.9120   29.7190 N.2   9999  ML89999    -0.3152
     24  N7        45.8060   15.4890   30.9410 N.am  9999  ML89999    -0.2343
     25  N20       49.8400   14.3840   28.5160 N.pl3 9999  ML89999    -0.1498
     26  O12       43.8320   15.9730   32.0960 O.2   9999  ML89999    -0.2695
     27  O27       38.9470   11.4880   28.9150 O.3   9999  ML89999    -0.2152
@<TRIPOS>BOND
     1    19     8    1
     2    22     8    2
     3    22    10    2
     4    25    10    1
     5    25    20    1
     6     8     6    1
     7    10    23    2
     8    27    21    1
     9     6    11    1
    10     6     9    1
    11    23     9    2
    12    11    12    2
    13    21     7    1
    14     9    24    1
    15     4     7   ar
    16     4     5   ar
    17     7     3   ar
    18    12     5    1
    19    12    13    1
    20    24    13   am
    21    24    18    1
    22     5     2   ar
    23    16    18    1
    24    16    14    1
    25    13    26    2
    26    18    17    1
    27     3     1   ar
    28     2     1   ar
    29    14    15    1
    30    17    15    1
