@<TRIPOS>MOLECULE
3ml9_ML9_A_1.pdb
 31 34 0 0 0
SMALL
GASTEIGER

@<TRIPOS>ATOM
      1  C14       42.1360   14.0480   32.8230 C.ar  9999  ML99999     0.0065
      2  C15       40.8770   13.7520   33.3550 C.ar  9999  ML99999     0.0577
      3  C18       41.4270   13.2580   30.6630 C.ar  9999  ML99999     0.1021
      4  C13       42.4720   13.8180   31.4550 C.ar  9999  ML99999     0.0235
      5  C5        45.7950   13.5940   29.5250 C.3   9999  ML99999     0.1392
      6  C6        46.4430   12.7580   28.5980 C.2   9999  ML99999     0.1125
      7  C4        46.5200   14.7270   29.9320 C.2   9999  ML99999     0.1898
      8  C16       39.9240   13.2110   32.4990 C.ar  9999  ML99999     0.2250
      9  C2        48.3390   14.1230   28.5740 C.1   9999  ML99999     0.2418
     10  C10       44.4530   13.3450   30.0590 C.2   9999  ML99999    -0.0067
     11  C9        43.8490   14.1590   30.9400 C.2   9999  ML99999     0.0520
     12  C8        44.5950   15.4080   31.3970 C.2   9999  ML99999     0.2540
     13  C23       45.9250   18.1900   30.9820 C.3   9999  ML99999     0.0228
     14  C27       47.1110   16.7740   32.8060 C.3   9999  ML99999     0.0228
     15  C24       46.7130   19.4200   31.4470 C.3   9999  ML99999     0.0313
     16  C26       47.8960   18.0330   33.2240 C.3   9999  ML99999     0.0313
     17  C22       46.6960   16.8630   31.2990 C.3   9999  ML99999     0.0823
     18  C25       47.0620   19.3070   32.9540 C.3   9999  ML99999     0.1155
     19  C21       45.8150   11.5160   28.0440 C.3   9999  ML99999     0.0634
     20  C20       37.7090   12.3850   32.2490 C.3   9999  ML99999     0.2542
     21  C30       47.9050   22.5730   34.4790 C.3   9999  ML99999     0.2140
     22  C29       47.0370   21.3660   34.1800 C.3   9999  ML99999     0.1775
     23  N17       40.1740   12.9540   31.1540 N.ar  9999  ML99999    -0.2101
     24  N1        47.7000   13.0150   28.1300 N.2   9999  ML99999    -0.3339
     25  N3        47.7800   14.9770   29.4560 N.2   9999  ML99999    -0.3139
     26  N7        45.9050   15.6370   30.8730 N.am  9999  ML99999    -0.2343
     27  N12       49.6190   14.3930   28.1040 N.pl3 9999  ML99999    -0.0232
     28  O11       44.0460   16.1770   32.2070 O.2   9999  ML99999    -0.2695
     29  O31       48.0420   23.3480   33.2880 O.3   9999  ML99999    -0.2176
     30  O19       38.6950   12.9420   33.1040 O.3   9999  ML99999    -0.4561
     31  O28       47.7820   20.4910   33.3230 O.3   9999  ML99999    -0.3535
@<TRIPOS>BOND
     1    19     6    1
     2    27     9    1
     3    24     9    2
     4    24     6    2
     5     9    25    2
     6     6     5    1
     7    25     7    2
     8     5     7    1
     9     5    10    1
    10     7    26    1
    11    10    11    2
    12     3    23   ar
    13     3     4   ar
    14    26    17    1
    15    26    12   am
    16    11    12    1
    17    11     4    1
    18    13    17    1
    19    13    15    1
    20    23     8   ar
    21    17    14    1
    22    12    28    2
    23    15    18    1
    24     4     1   ar
    25    20    30    1
    26     8    30    1
    27     8     2   ar
    28    14    16    1
    29     1     2   ar
    30    18    16    1
    31    18    31    1
    32    29    21    1
    33    31    22    1
    34    22    21    1
