@<TRIPOS>MOLECULE
3mla_JJZ_A_1.pdb
 31 34 0 0 0
SMALL
GASTEIGER

@<TRIPOS>ATOM
      1  CAA        4.3100  -33.3920  -10.8660 C.ar  190  JJZ190      0.0115
      2  CAB        4.2440  -32.2900  -11.6960 C.ar  190  JJZ190      0.0022
      3  CAC        5.3710  -31.5020  -11.8700 C.ar  190  JJZ190      0.0167
      4  OAD        9.6090  -32.5390  -11.1240 O.2   190  JJZ190     -0.2730
      5  OAE       11.7020  -28.6140  -12.4240 O.2   190  JJZ190     -0.2719
      6 CLAF        5.5530  -35.0870   -9.1990 Cl    190  JJZ190     -0.0822
      7  CAG        5.4980  -33.7030  -10.2310 C.ar  190  JJZ190      0.0590
      8  CAH        6.6270  -32.9180  -10.4110 C.ar  190  JJZ190      0.0280
      9  CAI        6.5640  -31.8020  -11.2320 C.ar  190  JJZ190      0.0742
     10  NAJ        7.6940  -30.9600  -11.4940 N.am  190  JJZ190     -0.1792
     11  CAK        8.9560  -31.4180  -11.4680 C.2   190  JJZ190      0.2461
     12  CAL        9.9350  -30.3210  -11.8040 C.3   190  JJZ190      0.0968
     13  CAM       11.3270  -30.8570  -12.0050 C.3   190  JJZ190      0.0979
     14  CAN       12.3150  -29.8010  -12.4170 C.2   190  JJZ190      0.2580
     15  NAO       13.5450  -30.3100  -12.6730 N.am  190  JJZ190     -0.1112
     16  NAP       13.7460  -31.4480  -13.3670 N.3   190  JJZ190     -0.1036
     17  CAQ       14.8880  -31.6800  -13.9670 C.3   190  JJZ190      0.1398
     18  CAR       19.0920  -32.0770  -13.9800 C.ar  190  JJZ190     -0.0000
     19  CAS       17.7070  -31.9830  -13.9820 C.ar  190  JJZ190     -0.0003
     20  CAT       16.9230  -33.1280  -14.0040 C.ar  190  JJZ190     -0.0026
     21  CAU       15.5310  -33.0290  -14.0000 C.ar  190  JJZ190     -0.0029
     22  CAV       14.7590  -34.1910  -14.0320 C.ar  190  JJZ190     -0.0026
     23  CAW       13.3720  -34.1200  -14.0310 C.ar  190  JJZ190     -0.0003
     24  CAX       12.6160  -35.2820  -14.0560 C.ar  190  JJZ190     -0.0000
     25  CAY       19.7020  -33.3200  -14.0060 C.ar  190  JJZ190     -0.0000
     26  CAZ       18.9230  -34.4700  -14.0300 C.ar  190  JJZ190     -0.0000
     27  CBA       17.5390  -34.3720  -14.0260 C.ar  190  JJZ190     -0.0003
     28  CBB       16.7680  -35.5250  -14.0540 C.ar  190  JJZ190     -0.0000
     29  CBC       15.3810  -35.4360  -14.0550 C.ar  190  JJZ190     -0.0003
     30  CBD       14.6190  -36.6000  -14.0780 C.ar  190  JJZ190     -0.0000
     31  CBE       13.2340  -36.5240  -14.0790 C.ar  190  JJZ190     -0.0000
@<TRIPOS>BOND
     1    31    30   ar
     2    31    24   ar
     3    30    29   ar
     4    24    23   ar
     5    29    28   ar
     6    29    22   ar
     7    28    27   ar
     8    22    23   ar
     9    22    21   ar
    10    26    27   ar
    11    26    25   ar
    12    27    20   ar
    13    25    18   ar
    14    20    21   ar
    15    20    19   ar
    16    21    17    1
    17    19    18   ar
    18    17    16    1
    19    16    15    1
    20    15    14   am
    21     5    14    2
    22    14    13    1
    23    13    12    1
    24     3     2   ar
    25     3     9   ar
    26    12    11    1
    27     2     1   ar
    28    10    11   am
    29    10     9    1
    30    11     4    2
    31     9     8   ar
    32     1     7   ar
    33     8     7   ar
    34     7     6    1
