@<TRIPOS>MOLECULE
3mlb_LJZ_A_1.pdb
 40 42 0 0 0
SMALL
GASTEIGER

@<TRIPOS>ATOM
      1  OAA       11.7270  -28.7330  -12.2270 O.2   192  LJZ192     -0.2715
      2  OAB       20.9760  -39.4560  -16.1250 O.2   192  LJZ192     -0.2719
      3  OAC       10.0640  -33.0340  -11.0130 O.2   192  LJZ192     -0.2730
      4  OAD       16.3510  -40.3750  -17.0120 O.2   192  LJZ192     -0.2730
      5 CLAE        8.0930  -34.6060  -13.1910 Cl    192  LJZ192     -0.0809
      6 CLAF       14.7670  -42.1090  -15.0220 Cl    192  LJZ192     -0.0809
      7  CAG       15.3930  -30.9800  -13.9760 C.2   192  LJZ192      0.1196
      8  CAH       19.1470  -35.4090  -14.4940 C.3   192  LJZ192      0.1398
      9  CAI        5.3510  -34.9910  -10.2510 C.ar  192  LJZ192      0.0010
     10  CAJ       14.1480  -45.0660  -17.6660 C.ar  192  LJZ192      0.0010
     11  CAK        5.4030  -33.6970   -9.5940 C.ar  192  LJZ192      0.0014
     12  CAL       15.3830  -45.1910  -18.2900 C.ar  192  LJZ192      0.0014
     13  CAM        6.1910  -35.2520  -11.3750 C.ar  192  LJZ192      0.0127
     14  CAN       13.9640  -44.1030  -16.6440 C.ar  192  LJZ192      0.0127
     15  CAO        6.2970  -32.6610  -10.0660 C.ar  192  LJZ192      0.0175
     16  CAP       16.4680  -44.3610  -17.9040 C.ar  192  LJZ192      0.0175
     17  CAQ       17.6990  -31.8700  -14.2120 C.ar  192  LJZ192      0.0013
     18  CAR       18.5930  -32.9540  -14.3370 C.ar  192  LJZ192     -0.0028
     19  CAS       15.8760  -33.4830  -14.1370 C.ar  192  LJZ192      0.0013
     20  CAT       16.7750  -34.5790  -14.2710 C.ar  192  LJZ192     -0.0028
     21  CAU       11.5370  -31.0930  -12.2860 C.3   192  LJZ192      0.0983
     22  CAV       18.6160  -39.1500  -15.9700 C.3   192  LJZ192      0.0979
     23  CAW       10.1440  -30.7760  -11.7620 C.3   192  LJZ192      0.0968
     24  CAX       18.6810  -40.5490  -16.5800 C.3   192  LJZ192      0.0968
     25  NAY       14.3640  -31.0190  -13.1770 N.2   192  LJZ192     -0.1545
     26  NAZ       18.9300  -36.5640  -15.0800 N.3   192  LJZ192     -0.1036
     27  NBA       13.3780  -30.1280  -13.4340 N.am  192  LJZ192     -0.0793
     28  NBB       20.0550  -37.3360  -15.2370 N.am  192  LJZ192     -0.1112
     29  NBC        8.0020  -31.8220  -11.6040 N.am  192  LJZ192     -0.1783
     30  NBD       17.4370  -42.5790  -16.5190 N.am  192  LJZ192     -0.1783
     31  CBE       12.3600  -29.8490  -12.5990 C.2   192  LJZ192      0.2632
     32  CBF       20.0400  -38.5630  -15.8160 C.2   192  LJZ192      0.2580
     33  CBG        9.3210  -32.0490  -11.5240 C.2   192  LJZ192      0.2461
     34  CBH       17.3120  -41.2280  -16.6510 C.2   192  LJZ192      0.2461
     35  CBI       16.3500  -32.1340  -14.1030 C.ar  192  LJZ192      0.0207
     36  CBJ       18.1280  -34.3030  -14.3720 C.ar  192  LJZ192     -0.0029
     37  CBK        7.0770  -34.2380  -11.8390 C.ar  192  LJZ192      0.0729
     38  CBL       15.0330  -43.2800  -16.2620 C.ar  192  LJZ192      0.0729
     39  CBM        7.1190  -32.8990  -11.1590 C.ar  192  LJZ192      0.0839
     40  CBN       16.3030  -43.4150  -16.8960 C.ar  192  LJZ192      0.0839
@<TRIPOS>BOND
     1    12    16   ar
     2    12    10   ar
     3    16    40   ar
     4    10    14   ar
     5     4    34    2
     6    40    30    1
     7    40    38   ar
     8    34    24    1
     9    34    30   am
    10    14    38   ar
    11    24    22    1
    12    38     6    1
    13     2    32    2
    14    22    32    1
    15    32    28   am
    16    28    26    1
    17    26     8    1
    18     8    36    1
    19    36    18   ar
    20    36    20   ar
    21    18    17   ar
    22    20    19   ar
    23    17    35   ar
    24    19    35   ar
    25    35     7    1
    26     7    25    2
    27    27    25    1
    28    27    31   am
    29     5    37    1
    30    31    21    1
    31    31     1    2
    32    21    23    1
    33    37    13   ar
    34    37    39   ar
    35    23    33    1
    36    29    33   am
    37    29    39    1
    38    33     3    2
    39    13     9   ar
    40    39    15   ar
    41     9    11   ar
    42    15    11   ar
