@<TRIPOS>MOLECULE
3mle_8AC_A_1.pdb
 11 10 0 0 0
SMALL
GASTEIGER

@<TRIPOS>ATOM
      1  NAA       -0.8110   -4.4070  -42.5750 N.3   225  8AC225     -0.1314
      2  OAB       -9.0270   -0.1700  -39.1570 O.co2 225  8AC225     -0.2457
      3  OAC       -7.7470   -0.2670  -37.2510 O.co2 225  8AC225     -0.2457
      4  CAD       -1.4650   -3.4850  -41.6230 C.3   225  8AC225      0.1093
      5  CAE       -2.9780   -3.6910  -41.6890 C.3   225  8AC225      0.0205
      6  CAF       -3.4320   -4.3090  -40.3680 C.3   225  8AC225      0.0015
      7  CAG       -3.9640   -3.1800  -39.4620 C.3   225  8AC225      0.0001
      8  CAH       -5.3610   -2.7150  -39.8960 C.3   225  8AC225      0.0006
      9  CAI       -5.9990   -1.8960  -38.7700 C.3   225  8AC225      0.0118
     10  CAJ       -7.5200   -1.9760  -38.8460 C.3   225  8AC225      0.1141
     11  CAK       -8.1580   -0.6800  -38.3790 C.2   225  8AC225      0.3649
@<TRIPOS>BOND
     1     1     4    1
     2     5     4    1
     3     5     6    1
     4     6     7    1
     5     8     7    1
     6     8     9    1
     7     2    11   ar
     8    10     9    1
     9    10    11    1
    10    11     3   ar
