@<TRIPOS>MOLECULE
3mle_ADP_A_1.pdb
 27 29 0 0 0
SMALL
GASTEIGER

@<TRIPOS>ATOM
      1  PB       -10.7210   18.9350  -39.8610 P.3   226  ADP226      0.5373
      2  O1B      -11.0550   17.7110  -38.9840 O.3   226  ADP226     -0.1143
      3  O2B      -11.8550   19.9930  -39.7280 O.2   226  ADP226     -0.2221
      4  O3B       -9.2580   19.4590  -39.6890 O.3   226  ADP226     -0.1143
      5  PA       -11.4400   19.4190  -42.5160 P.3   226  ADP226      0.2231
      6  O1A      -11.1200   20.8480  -42.0320 O.3   226  ADP226     -0.4370
      7  O2A      -12.8930   19.0930  -42.9660 O.2   226  ADP226     -0.5169
      8  O3A      -10.8480   18.4460  -41.3740 O.3   226  ADP226     -0.2261
      9  O5'      -10.3150   18.9910  -43.6310 O.3   226  ADP226     -0.3111
     10  C5'      -10.3090   17.7980  -44.4350 C.3   226  ADP226      0.1813
     11  C4'      -10.0420   18.1440  -45.9170 C.3   226  ADP226      0.1821
     12  O4'      -10.6150   17.1430  -46.7660 O.3   226  ADP226     -0.3135
     13  C3'      -10.6330   19.4620  -46.4370 C.3   226  ADP226      0.2184
     14  O3'       -9.7530   20.0190  -47.4280 O.3   226  ADP226     -0.2174
     15  C2'      -11.9820   19.1030  -47.0510 C.3   226  ADP226      0.2570
     16  O2'      -12.4070   19.9310  -48.1660 O.3   226  ADP226     -0.2130
     17  C1'      -11.7790   17.6410  -47.4490 C.3   226  ADP226      0.3186
     18  N9       -12.9540   16.8060  -47.0790 N.pl3 226  ADP226     -0.1439
     19  C8       -13.4860   16.6830  -45.8390 C.3   226  ADP226      0.3377
     20  N7       -14.5510   15.8310  -45.8510 N.2   226  ADP226     -0.2095
     21  C5       -14.7090   15.3890  -47.1200 C.2   226  ADP226      0.2526
     22  C6       -15.6360   14.4740  -47.8320 C.2   226  ADP226      0.4393
     23  N6       -16.6220   13.8540  -47.1510 N.pl3 226  ADP226      0.2180
     24  N1       -15.4590   14.2890  -49.1730 N.2   226  ADP226      0.0021
     25  C2       -14.4620   14.8880  -49.8650 C.3   226  ADP226      0.5254
     26  N3       -13.5850   15.7440  -49.2810 N.2   226  ADP226     -0.0055
     27  C4       -13.6510   16.0320  -47.9380 C.2   226  ADP226      0.3518
@<TRIPOS>BOND
     1    25    26    1
     2    25    24    1
     3    26    27    2
     4    24    22    2
     5    16    15    1
     6    27    21    1
     7    27    18    1
     8    22    23    1
     9    22    21    1
    10    17    18    1
    11    17    15    1
    12    17    12    1
    13    14    13    1
    14    21    20    2
    15    18    19    1
    16    15    13    1
    17    12    11    1
    18    13    11    1
    19    11    10    1
    20    20    19    1
    21    10     9    1
    22     9     5    1
    23     7     5    2
    24     5     6    1
    25     5     8    1
    26     8     1    1
    27     1     3    2
    28     1     4    1
    29     1     2    1
