@<TRIPOS>MOLECULE
3mlm_MYR_A_1.pdb
 16 15 0 0 0
SMALL
GASTEIGER

@<TRIPOS>ATOM
      1  C1        22.3550  -15.6820   16.9510 C.2   124  MYR124      0.3649
      2  O1        23.2980  -15.7210   17.8390 O.co2 124  MYR124     -0.2457
      3  O2        22.1750  -16.5920   16.1030 O.co2 124  MYR124     -0.2457
      4  C2        21.4140  -14.5070   17.0050 C.3   124  MYR124      0.1141
      5  C3        20.6020  -14.1700   15.7720 C.3   124  MYR124      0.0118
      6  C4        19.3570  -13.4260   16.2420 C.3   124  MYR124      0.0006
      7  C5        19.5840  -12.3770   17.3480 C.3   124  MYR124      0.0000
      8  C6        18.4670  -12.3370   18.3960 C.3   124  MYR124      0.0000
      9  C7        18.8850  -11.5650   19.6630 C.3   124  MYR124      0.0000
     10  C8        18.3820  -10.1090   19.7810 C.3   124  MYR124      0.0000
     11  C9        18.7300   -9.4730   21.1310 C.3   124  MYR124      0.0000
     12  C10       17.7810   -8.3410   21.4980 C.3   124  MYR124      0.0000
     13  C11       18.4560   -6.9800   21.2880 C.3   124  MYR124      0.0000
     14  C12       17.8210   -6.2310   20.1160 C.3   124  MYR124      0.0000
     15  C13       17.5490   -4.7450   20.3850 C.3   124  MYR124      0.0000
     16  C14       16.2170   -4.4280   19.7150 C.3   124  MYR124      0.0000
@<TRIPOS>BOND
     1     5     6    1
     2     5     4    1
     3     3     1   ar
     4     6     7    1
     5     1     4    1
     6     1     2   ar
     7     7     8    1
     8     8     9    1
     9     9    10    1
    10    16    15    1
    11    10    11    1
    12    14    15    1
    13    14    13    1
    14    11    12    1
    15    13    12    1
