@<TRIPOS>MOLECULE
3mm1_HEM_A_1.pdb
 43 50 0 0 0
SMALL
GASTEIGER

@<TRIPOS>ATOM
      1  CHA        2.1410    7.8020   16.6290 C.2   501  HEM501      0.0000
      2  CHB        3.3280    7.9910   11.9480 C.2   501  HEM501      0.0000
      3  CHC        1.0990    3.7610   11.2100 C.2   501  HEM501      0.0000
      4  CHD       -0.0680    3.5230   15.8870 C.2   501  HEM501      0.0000
      5  C1A        2.6210    8.2510   15.4290 C.ar  501  HEM501      0.0000
      6  C2A        3.2850    9.5100   15.1920 C.ar  501  HEM501      0.0000
      7  C3A        3.6150    9.5420   13.8940 C.ar  501  HEM501      0.0000
      8  C4A        3.1740    8.3150   13.2760 C.ar  501  HEM501      0.0000
      9  CMA        4.3320   10.6810   13.1490 C.3   501  HEM501      0.0000
     10  CAA        3.5350   10.6080   16.2500 C.3   501  HEM501      0.0000
     11  CBA        4.7960   10.3670   17.0840 C.3   501  HEM501      0.0000
     12  CGA        4.5560    9.5690   18.3410 C.2   501  HEM501      0.0000
     13  O1A        3.5790    9.8750   19.0610 O.co2 501  HEM501      0.0000
     14  O2A        5.3460    8.6490   18.6180 O.co2 501  HEM501      0.0000
     15  C1B        2.8310    6.8670   11.3190 C.2   501  HEM501      0.0000
     16  C2B        2.9780    6.5200    9.9200 C.2   501  HEM501      0.0000
     17  C3B        2.3630    5.3490    9.7200 C.2   501  HEM501      0.0000
     18  C4B        1.8200    4.9110   10.9910 C.2   501  HEM501      0.0000
     19  CMB        3.7060    7.3910    8.8720 C.3   501  HEM501      0.0000
     20  CAB        2.2290    4.5490    8.4110 C.2   501  HEM501      0.0000
     21  CBB        3.1080    4.6510    7.4070 C.2   501  HEM501      0.0000
     22  C1C        0.5300    3.3570   12.3980 C.ar  501  HEM501      0.0000
     23  C2C       -0.3390    2.2180   12.5870 C.ar  501  HEM501      0.0000
     24  C3C       -0.6710    2.1620   13.8910 C.ar  501  HEM501      0.0000
     25  C4C       -0.0060    3.2540   14.5490 C.ar  501  HEM501      0.0000
     26  CMC       -0.7630    1.2460   11.4660 C.3   501  HEM501      0.0000
     27  CAC       -1.5580    1.1360   14.6280 C.2   501  HEM501      0.0000
     28  CBC       -2.6100    0.5400   14.0420 C.2   501  HEM501      0.0000
     29  C1D        0.4860    4.6010   16.5220 C.2   501  HEM501      0.0000
     30  C2D        0.4800    4.7890   17.9470 C.2   501  HEM501      0.0000
     31  C3D        1.1630    6.1100   18.1680 C.2   501  HEM501      0.0000
     32  C4D        1.5190    6.6000   16.8610 C.2   501  HEM501      0.0000
     33  CMD       -0.0680    3.8600   19.0430 C.3   501  HEM501      0.0000
     34  CAD        1.4040    6.7830   19.5260 C.3   501  HEM501      0.0000
     35  CBD        0.0990    7.4470   19.9670 C.3   501  HEM501      0.0000
     36  CGD        0.2160    8.0270   21.3510 C.2   501  HEM501      0.0000
     37  O1D       -0.1640    9.2140   21.5160 O.co2 501  HEM501      0.0000
     38  O2D        0.6690    7.3250   22.2900 O.co2 501  HEM501      0.0000
     39  NA         2.5710    7.5390   14.2450 N.ar  501  HEM501      0.0000
     40  NB         2.1200    5.8590   11.9430 N.2   501  HEM501      0.0000
     41  NC         0.6870    3.9910   13.6210 N.ar  501  HEM501      0.0000
     42  ND         1.1160    5.6760   15.9000 N.2   501  HEM501      0.0000
     43 FE          1.5610    5.8110   13.9130 Fe    501  HEM501      0.0000
@<TRIPOS>BOND
     1    21    20    2
     2    20    17    1
     3    19    16    1
     4    17    16    2
     5    17    18    1
     6    16    15    1
     7    18     3    2
     8    18    40    1
     9     3    22    1
    10    15    40    2
    11    15     2    1
    12    26    23    1
    13    40    43    1
    14     2     8    2
    15    22    23   ar
    16    22    41   ar
    17    23    24   ar
    18     9     7    1
    19     8     7   ar
    20     8    39   ar
    21    41    43    1
    22    41    25   ar
    23    24    25   ar
    24    24    27    1
    25     7     6   ar
    26    43    39    1
    27    43    42    1
    28    28    27    2
    29    39     5   ar
    30    25     4    1
    31     6     5   ar
    32     6    10    1
    33     5     1    2
    34     4    29    2
    35    42    29    1
    36    42    32    2
    37    10    11    1
    38    29    30    1
    39     1    32    1
    40    32    31    1
    41    11    12    1
    42    30    31    2
    43    30    33    1
    44    31    34    1
    45    12    14   ar
    46    12    13   ar
    47    34    35    1
    48    35    36    1
    49    36    37   ar
    50    36    38   ar
