@<TRIPOS>MOLECULE
3mm2_HEM_A_1.pdb
 43 50 0 0 0
SMALL
GASTEIGER

@<TRIPOS>ATOM
      1  CHA        2.0890    7.8140   16.5800 C.2   501  HEM501      0.0000
      2  CHB        3.1070    8.0980   11.8590 C.2   501  HEM501      0.0000
      3  CHC        0.9630    3.8200   11.1520 C.2   501  HEM501      0.0000
      4  CHD       -0.1820    3.5760   15.8350 C.2   501  HEM501      0.0000
      5  C1A        2.5320    8.2770   15.3750 C.ar  501  HEM501      0.0000
      6  C2A        3.2160    9.5260   15.1390 C.ar  501  HEM501      0.0000
      7  C3A        3.5000    9.5830   13.8350 C.ar  501  HEM501      0.0000
      8  C4A        3.0000    8.3860   13.2010 C.ar  501  HEM501      0.0000
      9  CMA        4.2050   10.7150   13.0750 C.3   501  HEM501      0.0000
     10  CAA        3.5400   10.5990   16.1990 C.3   501  HEM501      0.0000
     11  CBA        4.7730   10.2120   17.0220 C.3   501  HEM501      0.0000
     12  CGA        4.3890    9.6770   18.3760 C.2   501  HEM501      0.0000
     13  O1A        3.3700   10.1480   18.9370 O.co2 501  HEM501      0.0000
     14  O2A        5.1110    8.8110   18.8950 O.co2 501  HEM501      0.0000
     15  C1B        2.6430    6.9620   11.2370 C.2   501  HEM501      0.0000
     16  C2B        2.8180    6.5870    9.8470 C.2   501  HEM501      0.0000
     17  C3B        2.2440    5.3970    9.6650 C.2   501  HEM501      0.0000
     18  C4B        1.6750    4.9720   10.9280 C.2   501  HEM501      0.0000
     19  CMB        3.5640    7.4470    8.8040 C.3   501  HEM501      0.0000
     20  CAB        2.1510    4.5650    8.3730 C.2   501  HEM501      0.0000
     21  CBB        3.0740    4.6590    7.4050 C.2   501  HEM501      0.0000
     22  C1C        0.4130    3.4170   12.3440 C.ar  501  HEM501      0.0000
     23  C2C       -0.4300    2.2550   12.5460 C.ar  501  HEM501      0.0000
     24  C3C       -0.7560    2.1920   13.8500 C.ar  501  HEM501      0.0000
     25  C4C       -0.1220    3.3090   14.4970 C.ar  501  HEM501      0.0000
     26  CMC       -0.8020    1.2680   11.4220 C.3   501  HEM501      0.0000
     27  CAC       -1.6050    1.1370   14.5880 C.2   501  HEM501      0.0000
     28  CBC       -2.6670    0.5610   14.0010 C.2   501  HEM501      0.0000
     29  C1D        0.3990    4.6400   16.4630 C.2   501  HEM501      0.0000
     30  C2D        0.4150    4.8160   17.8890 C.2   501  HEM501      0.0000
     31  C3D        1.1140    6.1260   18.1110 C.2   501  HEM501      0.0000
     32  C4D        1.4540    6.6310   16.8060 C.2   501  HEM501      0.0000
     33  CMD       -0.1380    3.8840   18.9760 C.3   501  HEM501      0.0000
     34  CAD        1.3760    6.7770   19.4760 C.3   501  HEM501      0.0000
     35  CBD        0.0810    7.4740   19.8830 C.3   501  HEM501      0.0000
     36  CGD        0.1460    7.9910   21.2910 C.2   501  HEM501      0.0000
     37  O1D       -0.3090    9.1420   21.4980 O.co2 501  HEM501      0.0000
     38  O2D        0.6290    7.2780   22.2130 O.co2 501  HEM501      0.0000
     39  NA         2.4290    7.6010   14.1780 N.ar  501  HEM501      0.0000
     40  NB         1.9350    5.9520   11.8630 N.2   501  HEM501      0.0000
     41  NC         0.5480    4.0590   13.5600 N.ar  501  HEM501      0.0000
     42  ND         1.0330    5.7170   15.8440 N.2   501  HEM501      0.0000
     43 FE          1.4540    5.8510   13.8430 Fe    501  HEM501      0.0000
@<TRIPOS>BOND
     1    21    20    2
     2    20    17    1
     3    19    16    1
     4    17    16    2
     5    17    18    1
     6    16    15    1
     7    18     3    2
     8    18    40    1
     9     3    22    1
    10    15     2    1
    11    15    40    2
    12    26    23    1
    13     2     8    2
    14    40    43    1
    15    22    23   ar
    16    22    41   ar
    17    23    24   ar
    18     9     7    1
    19     8     7   ar
    20     8    39   ar
    21    41    43    1
    22    41    25   ar
    23     7     6   ar
    24    43    39    1
    25    43    42    1
    26    24    25   ar
    27    24    27    1
    28    28    27    2
    29    39     5   ar
    30    25     4    1
    31     6     5   ar
    32     6    10    1
    33     5     1    2
    34     4    29    2
    35    42    29    1
    36    42    32    2
    37    10    11    1
    38    29    30    1
    39     1    32    1
    40    32    31    1
    41    11    12    1
    42    30    31    2
    43    30    33    1
    44    31    34    1
    45    12    14   ar
    46    12    13   ar
    47    34    35    1
    48    35    36    1
    49    36    37   ar
    50    36    38   ar
