@<TRIPOS>MOLECULE
3mm3_HEM_A_1.pdb
 43 50 0 0 0
SMALL
GASTEIGER

@<TRIPOS>ATOM
      1  CHA        2.7200    7.8100   15.2070 C.2   501  HEM501      0.0000
      2  CHB        3.9400    8.1060   10.5470 C.2   501  HEM501      0.0000
      3  CHC        1.7470    3.8860    9.7040 C.2   501  HEM501      0.0000
      4  CHD        0.4180    3.6150   14.3250 C.2   501  HEM501      0.0000
      5  C1A        3.2120    8.2750   14.0210 C.ar  501  HEM501      0.0000
      6  C2A        3.9000    9.5280   13.8310 C.ar  501  HEM501      0.0000
      7  C3A        4.2270    9.6140   12.5400 C.ar  501  HEM501      0.0000
      8  C4A        3.7810    8.4130   11.8810 C.ar  501  HEM501      0.0000
      9  CMA        4.9690   10.7630   11.8370 C.3   501  HEM501      0.0000
     10  CAA        4.1500   10.5740   14.9420 C.3   501  HEM501      0.0000
     11  CBA        5.3090   10.2100   15.8750 C.3   501  HEM501      0.0000
     12  CGA        4.8380    9.6170   17.1850 C.2   501  HEM501      0.0000
     13  O1A        3.8200   10.0940   17.7280 O.co2 501  HEM501      0.0000
     14  O2A        5.4870    8.7040   17.7080 O.co2 501  HEM501      0.0000
     15  C1B        3.4670    6.9890    9.9070 C.2   501  HEM501      0.0000
     16  C2B        3.6920    6.6470    8.5210 C.2   501  HEM501      0.0000
     17  C3B        3.0930    5.4750    8.2900 C.2   501  HEM501      0.0000
     18  C4B        2.4830    5.0380    9.5360 C.2   501  HEM501      0.0000
     19  CMB        4.4710    7.5280    7.5250 C.3   501  HEM501      0.0000
     20  CAB        3.0360    4.6740    6.9760 C.2   501  HEM501      0.0000
     21  CBB        3.9750    4.7670    6.0270 C.2   501  HEM501      0.0000
     22  C1C        1.1450    3.4750   10.8670 C.ar  501  HEM501      0.0000
     23  C2C        0.2780    2.3220   11.0030 C.ar  501  HEM501      0.0000
     24  C3C       -0.1030    2.2580   12.2970 C.ar  501  HEM501      0.0000
     25  C4C        0.5180    3.3610   12.9870 C.ar  501  HEM501      0.0000
     26  CMC       -0.0750    1.3660    9.8400 C.3   501  HEM501      0.0000
     27  CAC       -1.0140    1.2230   12.9890 C.2   501  HEM501      0.0000
     28  CBC       -2.0540    0.6810   12.3580 C.2   501  HEM501      0.0000
     29  C1D        0.9860    4.6690   14.9840 C.2   501  HEM501      0.0000
     30  C2D        0.9280    4.8490   16.4060 C.2   501  HEM501      0.0000
     31  C3D        1.6260    6.1450   16.6770 C.2   501  HEM501      0.0000
     32  C4D        2.0410    6.6340   15.3920 C.2   501  HEM501      0.0000
     33  CMD        0.3080    3.9290   17.4720 C.3   501  HEM501      0.0000
     34  CAD        1.8170    6.7790   18.0530 C.3   501  HEM501      0.0000
     35  CBD        0.5020    7.4590   18.4260 C.3   501  HEM501      0.0000
     36  CGD        0.5310    7.9940   19.8380 C.2   501  HEM501      0.0000
     37  O1D        0.1620    9.1800   20.0340 O.co2 501  HEM501      0.0000
     38  O2D        0.9070    7.2530   20.7760 O.co2 501  HEM501      0.0000
     39  NA         3.1730    7.6140   12.8160 N.ar  501  HEM501      0.0000
     40  NB         2.7230    5.9850   10.5170 N.2   501  HEM501      0.0000
     41  NC         1.2520    4.1020   12.0860 N.ar  501  HEM501      0.0000
     42  ND         1.6690    5.7370   14.3980 N.2   501  HEM501      0.0000
     43 FE          2.1790    5.8650   12.4340 Fe    501  HEM501      0.0000
@<TRIPOS>BOND
     1    21    20    2
     2    20    17    1
     3    19    16    1
     4    17    16    2
     5    17    18    1
     6    16    15    1
     7    18     3    2
     8    18    40    1
     9     3    22    1
    10    26    23    1
    11    15    40    2
    12    15     2    1
    13    40    43    1
    14     2     8    2
    15    22    23   ar
    16    22    41   ar
    17    23    24   ar
    18     9     7    1
    19     8     7   ar
    20     8    39   ar
    21    41    43    1
    22    41    25   ar
    23    24    25   ar
    24    24    27    1
    25    28    27    2
    26    43    39    1
    27    43    42    1
    28     7     6   ar
    29    39     5   ar
    30    25     4    1
    31     6     5   ar
    32     6    10    1
    33     5     1    2
    34     4    29    2
    35    42    29    1
    36    42    32    2
    37    10    11    1
    38    29    30    1
    39     1    32    1
    40    32    31    1
    41    11    12    1
    42    30    31    2
    43    30    33    1
    44    31    34    1
    45    12    14   ar
    46    12    13   ar
    47    34    35    1
    48    35    36    1
    49    36    37   ar
    50    36    38   ar
