@<TRIPOS>MOLECULE
3mmd_XYP_A_1.pdb
 10 10 0 0 0
SMALL
GASTEIGER

@<TRIPOS>ATOM
      1  O4A       78.7110  -90.8720  -32.0640 O.3   448  XYP448     -0.1869
      2  C1B       78.0080  -90.1540  -31.1080 C.3   448  XYP448      0.3024
      3  C2B       76.5020  -90.3840  -31.2840 C.3   448  XYP448      0.2434
      4  C3B       75.7330  -89.6640  -30.1670 C.3   448  XYP448      0.2199
      5  C4B       76.2630  -90.1150  -28.8010 C.3   448  XYP448      0.2143
      6  C5B       77.7810  -89.8960  -28.7350 C.3   448  XYP448      0.1804
      7  O2B       76.0850  -89.9000  -32.5540 O.3   448  XYP448     -0.2148
      8  O3B       74.3460  -89.9570  -30.2670 O.3   448  XYP448     -0.2174
      9  O4B       75.6170  -89.3690  -27.7530 O.3   448  XYP448     -0.2176
     10  O5B       78.4330  -90.6050  -29.8120 O.3   448  XYP448     -0.3237
@<TRIPOS>BOND
     1     7     3    1
     2     1     2    1
     3     3     2    1
     4     3     4    1
     5     2    10    1
     6     8     4    1
     7     4     5    1
     8    10     6    1
     9     5     6    1
    10     5     9    1
