@<TRIPOS>MOLECULE
3mmf_D9H_A_1.pdb
 34 35 0 0 0
SMALL
GASTEIGER

@<TRIPOS>ATOM
      1  C1        -5.3320    2.0580   15.7700 C.ar  263  D9H263      0.1067
      2  N1        -5.4280   -0.5910   16.0780 N.3   263  D9H263     -0.1053
      3  O1        -7.3950    0.8770   16.6480 O.2   263  D9H263     -0.1519
      4  S1        -5.9260    0.7330   16.7560 S.O2  263  D9H263      0.0723
      5  C2        -6.1360    3.0940   15.3830 C.ar  263  D9H263     -0.0335
      6  O2        -5.3620    0.9630   18.0380 O.2   263  D9H263     -0.1519
      7  C3        -5.6090    4.2180   14.5900 C.ar  263  D9H263     -0.0380
      8  C4        -4.2870    4.1770   14.2510 C.ar  263  D9H263      0.0419
      9  C5        -3.4210    3.0800   14.6580 C.ar  263  D9H263     -0.0380
     10  C6        -3.9240    2.0480   15.3760 C.ar  263  D9H263     -0.0335
     11  N7        -3.6130    5.1780   13.5450 N.pl3 263  D9H263     -0.2379
     12  C8        -4.1860    6.1400   12.7300 C.1   263  D9H263      0.2251
     13  N9        -3.3100    6.9740   12.1470 N.2   263  D9H263     -0.2465
     14  C10       -3.7650    7.9520   11.3660 C.1   263  D9H263      0.2207
     15  N11       -2.8540    8.8520   10.7410 N.pl3 263  D9H263     -0.2664
     16  N12       -5.0790    8.1110   11.2030 N.2   263  D9H263     -0.2495
     17  C13       -5.9240    7.2630   11.7920 C.1   263  D9H263      0.2270
     18 CL13       -7.5810    7.5300   11.6110 Cl    263  D9H263      0.0258
     19  N14       -5.4980    6.2740   12.5730 N.2   263  D9H263     -0.2492
     20  C15       -1.4510    8.5490   10.7320 C.3   263  D9H263      0.0435
     21  C16       -1.1510    7.7510    9.5020 C.3   263  D9H263      0.0604
     22  O17        0.1540    7.2910    9.5320 O.3   263  D9H263     -0.3934
     23 HN11       -3.1750    9.4810   10.1720 H     263  D9H263      0.1594
     24  H2        -7.0700    3.0930   15.6430 H     263  D9H263      0.0638
     25  H3        -6.1770    4.9560   14.3210 H     263  D9H263      0.0637
     26  H5        -2.4860    3.0790   14.3980 H     263  D9H263      0.0637
     27  H15       -0.9470    9.3800   10.6990 H     263  D9H263      0.0492
     28 H15A       -1.2080    8.0490   11.5300 H     263  D9H263      0.0492
     29  H6        -3.3470    1.3190   15.6530 H     263  D9H263      0.0638
     30  H16       -1.2690    8.3160    8.7190 H     263  D9H263      0.0573
     31 H16A       -1.7630    6.9960    9.4480 H     263  D9H263      0.0573
     32  HN7       -2.7140    5.2220   13.6580 H     263  D9H263      0.1657
     33 HO17        0.3800    6.9910    8.7290 H     263  D9H263      0.2095
     34 HN1A       -4.6340   -0.9550   16.3230 H     263  D9H263      0.1694
@<TRIPOS>BOND
     1    30    21    1
     2    33    22    1
     3    31    21    1
     4    21    22    1
     5    21    20    1
     6    23    15    1
     7    27    20    1
     8    20    15    1
     9    20    28    1
    10    15    14    1
    11    16    14    2
    12    16    17    2
    13    14    13    2
    14    18    17    1
    15    17    19    2
    16    13    12    2
    17    19    12    2
    18    12    11    1
    19    11    32    1
    20    11     8    1
    21     8     7   ar
    22     8     9   ar
    23    25     7    1
    24    26     9    1
    25     7     5   ar
    26     9    10   ar
    27    10    29    1
    28    10     1   ar
    29     5    24    1
    30     5     1   ar
    31     1     4    1
    32     2    34    1
    33     2     4    1
    34     3     4    2
    35     4     6    2
