@<TRIPOS>MOLECULE
3mmh_SME_A_1.pdb
 10 9 0 0 0
SMALL
GASTEIGER

@<TRIPOS>ATOM
      1  N         22.8890   47.7400   10.8620 N.3   168  SME168     -0.1208
      2  CA        24.3240   47.7230   11.2320 C.3   168  SME168      0.1953
      3  CB        25.2430   48.2370   10.1040 C.3   168  SME168      0.0449
      4  CG        25.6650   47.1890    9.0610 C.3   168  SME168      0.0939
      5  S         24.4270   46.8820    7.8670 S.O   168  SME168      0.0428
      6  OE        23.0380   46.7390    8.2620 O.2   168  SME168     -0.2559
      7  CE        25.1980   45.6170    6.9470 C.3   168  SME168      0.1061
      8  C         24.5400   48.4640   12.5220 C.2   168  SME168      0.3819
      9  O         25.6800   48.4500   13.0070 O.co2 168  SME168     -0.2441
     10  OXT       23.5390   49.0480   13.0900 O.co2 168  SME168     -0.2441
@<TRIPOS>BOND
     1     7     5    1
     2     5     6    2
     3     5     4    1
     4     4     3    1
     5     3     2    1
     6     1     2    1
     7     2     8    1
     8     8     9   ar
     9     8    10   ar
