@<TRIPOS>MOLECULE
3mmj_IHP_A_1.pdb
 36 36 0 0 0
SMALL
GASTEIGER

@<TRIPOS>ATOM
      1  C1        -3.7980   -6.6540   14.3210 C.3   1900  IHP1900     0.1863
      2  C2        -3.3820   -6.0690   15.7260 C.3   1900  IHP1900     0.1863
      3  C3        -3.2030   -4.5040   15.5870 C.3   1900  IHP1900     0.1863
      4  C4        -4.4110   -3.8380   14.9980 C.3   1900  IHP1900     0.1863
      5  C5        -4.5530   -4.3390   13.5790 C.3   1900  IHP1900     0.1863
      6  C6        -4.8940   -5.8380   13.5930 C.3   1900  IHP1900     0.1863
      7  O11       -4.1440   -8.0470   14.3720 O.3   1900  IHP1900    -0.2675
      8  P1        -3.1780   -9.1930   13.7490 P.3   1900  IHP1900     0.5327
      9  O21       -3.9930  -10.4690   13.5760 O.3   1900  IHP1900    -0.1145
     10  O31       -2.6330   -8.7350   12.3950 O.2   1900  IHP1900    -0.2224
     11  O41       -1.9960   -9.4820   14.6750 O.3   1900  IHP1900    -0.1145
     12  O12       -4.3140   -6.4910   16.7920 O.3   1900  IHP1900    -0.2675
     13  P2        -4.7310   -8.0640   17.1380 P.3   1900  IHP1900     0.5327
     14  O22       -6.0290   -8.4570   16.4370 O.2   1900  IHP1900    -0.2224
     15  O32       -4.8770   -8.3640   18.6070 O.3   1900  IHP1900    -0.1145
     16  O42       -3.6280   -8.9950   16.6670 O.3   1900  IHP1900    -0.1145
     17  O13       -2.8360   -3.8600   16.7940 O.3   1900  IHP1900    -0.2675
     18  P3        -1.7460   -3.6300   17.9190 P.3   1900  IHP1900     0.5327
     19  O23       -0.4260   -3.2390   17.3310 O.2   1900  IHP1900    -0.2224
     20  O33       -2.2320   -2.4990   18.8160 O.3   1900  IHP1900    -0.1145
     21  O43       -1.6680   -4.9580   18.6760 O.3   1900  IHP1900    -0.1145
     22  O14       -4.2130   -2.4190   15.0270 O.3   1900  IHP1900    -0.2675
     23  P4        -5.5430   -1.5290   15.1370 P.3   1900  IHP1900     0.5327
     24  O24       -6.7100   -2.4690   15.3420 O.3   1900  IHP1900    -0.1145
     25  O34       -5.4560   -0.5980   16.3190 O.3   1900  IHP1900    -0.1145
     26  O44       -5.6820   -0.7140   13.8400 O.2   1900  IHP1900    -0.2224
     27  O15       -5.5360   -3.5750   12.8650 O.3   1900  IHP1900    -0.2675
     28  P5        -5.2180   -3.0560   11.3590 P.3   1900  IHP1900     0.5327
     29  O25       -3.7940   -3.4220   10.9530 O.3   1900  IHP1900    -0.1145
     30  O35       -5.3740   -1.5450   11.2850 O.3   1900  IHP1900    -0.1145
     31  O45       -6.2060   -3.6870   10.3920 O.2   1900  IHP1900    -0.2224
     32  O16       -5.0140   -6.2940   12.2420 O.3   1900  IHP1900    -0.2675
     33  P6        -6.1490   -7.3310   11.7960 P.3   1900  IHP1900     0.5327
     34  O26       -7.0250   -7.7130   12.9860 O.3   1900  IHP1900    -0.1145
     35  O36       -7.0140   -6.6830   10.7200 O.2   1900  IHP1900    -0.2224
     36  O46       -5.4810   -8.5840   11.2390 O.3   1900  IHP1900    -0.1145
@<TRIPOS>BOND
     1    31    28    2
     2    35    33    2
     3    29    28    1
     4    36    33    1
     5    30    28    1
     6    28    27    1
     7    33    32    1
     8    33    34    1
     9    32     6    1
    10    10     8    2
    11    27     5    1
    12     9     8    1
    13     5     6    1
    14     5     4    1
    15     6     1    1
    16     8     7    1
    17     8    11    1
    18    26    23    2
    19     1     7    1
    20     1     2    1
    21     4    22    1
    22     4     3    1
    23    22    23    1
    24    23    24    1
    25    23    25    1
    26     3     2    1
    27     3    17    1
    28     2    12    1
    29    14    13    2
    30    16    13    1
    31    12    13    1
    32    17    18    1
    33    13    15    1
    34    19    18    2
    35    18    21    1
    36    18    20    1
