@<TRIPOS>MOLECULE
3mmp_PXN_A_1.pdb
 25 24 0 0 0
SMALL
GASTEIGER

@<TRIPOS>ATOM
      1  CAA       45.0240  -32.4930   -7.6710 C.3   1394  PXN1394     0.0382
      2  CAB       51.5640  -35.1560   -1.6900 C.3   1394  PXN1394     0.0382
      3  CAC       47.7460  -33.3820   -5.3710 C.3   1394  PXN1394     0.1494
      4  OAD       46.5390  -32.6760   -5.3470 O.3   1394  PXN1394    -0.3508
      5  CAE       46.5090  -31.4100   -5.9340 C.3   1394  PXN1394     0.1748
      6  CAF       45.9110  -31.3230   -7.3040 C.3   1394  PXN1394     0.1815
      7  OAG       45.3970  -30.0650   -7.5460 O.3   1394  PXN1394    -0.2205
      8  OAH       50.5450  -36.3800    0.1340 O.3   1394  PXN1394    -0.2205
      9  CAI       50.3410  -35.4400   -0.8540 C.3   1394  PXN1394     0.1815
     10  CAJ       49.0880  -35.6740   -1.6690 C.3   1394  PXN1394     0.1748
     11  OAK       48.6970  -34.6420   -2.5420 O.3   1394  PXN1394    -0.3508
     12  CAL       47.5460  -34.8190   -3.3290 C.3   1394  PXN1394     0.1494
     13  CAM       47.7180  -34.8100   -4.8370 C.3   1394  PXN1394     0.1092
     14  CAN       49.0180  -35.4860   -5.2080 C.3   1394  PXN1394     0.1494
     15  OAO       49.0070  -36.8710   -5.1030 O.3   1394  PXN1394    -0.3508
     16  CAP       49.9470  -37.6090   -5.8460 C.3   1394  PXN1394     0.1748
     17  CAQ       50.7530  -38.6230   -5.0750 C.3   1394  PXN1394     0.1815
     18  OAR       51.8890  -38.9940   -5.7580 O.3   1394  PXN1394    -0.2205
     19  OAS       42.6610  -35.1420   -6.4620 O.3   1394  PXN1394    -0.2205
     20  CAT       43.8970  -35.7450   -6.3390 C.3   1394  PXN1394     0.1815
     21  CAU       44.2740  -36.0770   -4.9130 C.3   1394  PXN1394     0.1748
     22  OAV       45.6430  -36.1870   -4.6140 O.3   1394  PXN1394    -0.3508
     23  CAW       46.5640  -35.5630   -5.4680 C.3   1394  PXN1394     0.1494
     24  CAX       49.9250  -39.7630   -4.5060 C.3   1394  PXN1394     0.0382
     25  CAY       44.1260  -36.8570   -7.3200 C.3   1394  PXN1394     0.0382
@<TRIPOS>BOND
     1     1     6    1
     2     7     6    1
     3    25    20    1
     4     6     5    1
     5    19    20    1
     6    20    21    1
     7     5     4    1
     8    16    15    1
     9    16    17    1
    10    18    17    1
    11    23    13    1
    12    23    22    1
    13     3     4    1
    14     3    13    1
    15    14    15    1
    16    14    13    1
    17    17    24    1
    18    21    22    1
    19    13    12    1
    20    12    11    1
    21    11    10    1
    22     2     9    1
    23    10     9    1
    24     9     8    1
