@<TRIPOS>MOLECULE
3mmr_ABH_A_1.pdb
 13 12 0 0 0
SMALL
GASTEIGER

@<TRIPOS>ATOM
      1  N         35.6530  -17.7830   22.5180 N.3   551  ABH551      0.0000
      2  CA        35.7970  -17.4770   23.9380 C.3   551  ABH551      0.0000
      3  C         34.9550  -16.2660   24.3300 C.2   551  ABH551      0.0000
      4  O         34.8000  -15.9530   25.4660 O.co2 551  ABH551      0.0000
      5  OT        34.3740  -15.5140   23.3070 O.co2 551  ABH551      0.0000
      6  CB        37.2600  -17.3720   24.3800 C.2   551  ABH551      0.0000
      7  CG        38.0050  -16.0840   24.0330 C.2   551  ABH551      0.0000
      8  CD        39.5180  -16.0040   24.2370 C.3   551  ABH551      0.0000
      9  CE        40.1690  -14.6400   23.9580 C.3   551  ABH551      0.0000
     10  B         41.7360  -14.5650   23.6100 B     551  ABH551      0.0000
     11  O2        42.2400  -13.1670   23.5220 O.3   551  ABH551      0.0000
     12  O1        41.9700  -15.2140   22.3280 O.3   551  ABH551      0.0000
     13  O3        42.4650  -15.3180   24.6310 O.3   551  ABH551      0.0000
@<TRIPOS>BOND
     1    12    10    1
     2     1     2    1
     3     5     3   ar
     4    11    10    1
     5    10     9    1
     6    10    13    1
     7     2     3    1
     8     2     6    1
     9     9     8    1
    10     7     8    1
    11     7     6    2
    12     3     4   ar
