@<TRIPOS>MOLECULE
3mms_Q88_A_1.pdb
 11 12 0 0 0
SMALL
GASTEIGER

@<TRIPOS>ATOM
      1  N1       -39.2010 -103.9380  -12.3110 N.2   231  Q88231     -0.0255
      2  C2       -39.0690 -105.1010  -11.6640 C.3   231  Q88231      0.4016
      3  N3       -39.1770 -106.2830  -12.2830 N.2   231  Q88231     -0.1519
      4  C4       -39.4430 -106.3370  -13.5990 C.1   231  Q88231      0.1397
      5  C5       -39.5860 -105.1310  -14.3530 C.2   231  Q88231      0.3079
      6  C6       -39.4700 -103.8910  -13.6400 C.2   231  Q88231      0.4537
      7  N6       -39.6010 -102.6630  -14.2720 N.pl3 231  Q88231      0.2198
      8  N7       -39.8560 -105.5020  -15.6410 N.2   231  Q88231     -0.3059
      9  C8       -39.8610 -106.8260  -15.6990 C.1   231  Q88231      0.2514
     10  N8       -40.0940 -107.5940  -16.8140 N.pl3 231  Q88231     -0.0226
     11  N9       -39.6090 -107.3580  -14.4790 N.2   231  Q88231     -0.2681
@<TRIPOS>BOND
     1    10     9    1
     2     9     8    2
     3     9    11    2
     4     8     5    2
     5    11     4    2
     6     5     6    1
     7     5     4    1
     8     7     6    1
     9     6     1    2
    10     4     3    2
    11     1     2    1
    12     3     2    1
