@<TRIPOS>MOLECULE
3mmt_2FP_A_1.pdb
 19 18 0 0 0
SMALL
GASTEIGER

@<TRIPOS>ATOM
      1  P6         5.9440   16.7670    1.3940 P.3   350  2FP350      0.5327
      2  O6         7.0470   17.9260    1.4420 O.3   350  2FP350     -0.2674
      3  C6         7.3240   18.6010    2.6650 C.3   350  2FP350      0.1892
      4  C5         8.5060   19.4890    2.3600 C.3   350  2FP350      0.2146
      5  O5         8.1500   20.3810    1.2990 O.3   350  2FP350     -0.2176
      6  C4         8.9720   20.3030    3.5530 C.3   350  2FP350      0.2148
      7  O4         9.0020   19.5170    4.7520 O.3   350  2FP350     -0.2176
      8  C3        10.3690   20.7940    3.2410 C.3   350  2FP350      0.1873
      9  O3        11.2390   19.6840    3.0070 O.3   350  2FP350     -0.2202
     10  C2        10.9720   21.5530    4.3920 C.3   350  2FP350      0.0683
     11  C1        10.1690   22.6980    4.9840 C.3   350  2FP350      0.1565
     12  O1         9.8020   23.6240    3.9740 O.3   350  2FP350     -0.2702
     13  O61        6.0830   16.1250    0.0220 O.2   350  2FP350     -0.2224
     14  O62        6.3720   15.7480    2.5760 O.3   350  2FP350     -0.1145
     15  O63        4.6380   17.4250    1.7690 O.3   350  2FP350     -0.1145
     16  P1         8.8900   24.8910    4.3450 P.3   350  2FP350      0.5326
     17  O11        8.0520   25.1010    3.1130 O.2   350  2FP350     -0.2224
     18  O12        7.8780   24.4910    5.5370 O.3   350  2FP350     -0.1145
     19  O13        9.8690   25.9710    4.7500 O.3   350  2FP350     -0.1145
@<TRIPOS>BOND
     1    13     1    2
     2     5     4    1
     3     1     2    1
     4     1    15    1
     5     1    14    1
     6     2     3    1
     7     4     3    1
     8     4     6    1
     9     9     8    1
    10    17    16    2
    11     8     6    1
    12     8    10    1
    13     6     7    1
    14    12    16    1
    15    12    11    1
    16    16    19    1
    17    16    18    1
    18    10    11    1
