@<TRIPOS>MOLECULE
3mmv_ATP_A_1.pdb
 31 33 0 0 0
SMALL
GASTEIGER

@<TRIPOS>ATOM
      1  PG        34.6330  -31.6560   -2.6320 P.3   800  ATP800      0.5373
      2  O1G       33.5420  -30.6260   -2.8910 O.3   800  ATP800     -0.1143
      3  O2G       35.2330  -31.5500   -1.2380 O.3   800  ATP800     -0.1143
      4  O3G       34.4370  -33.0880   -3.0650 O.2   800  ATP800     -0.2221
      5  PB        37.1540  -31.5290   -4.0740 P.3   800  ATP800      0.2277
      6  O1B       37.7960  -32.2490   -2.9230 O.3   800  ATP800     -0.4368
      7  O2B       37.1400  -32.0660   -5.4850 O.2   800  ATP800     -0.5168
      8  O3B       35.6570  -31.0440   -3.7240 O.3   800  ATP800     -0.2258
      9  PA        38.9430  -29.3650   -3.4710 P.3   800  ATP800      0.2189
     10  O1A       38.6430  -29.3950   -1.9980 O.3   800  ATP800     -0.4371
     11  O2A       40.2660  -29.8800   -3.9580 O.2   800  ATP800     -0.5170
     12  O3A       37.7980  -30.0830   -4.3260 O.3   800  ATP800     -0.2700
     13  O5'       38.7090  -27.9580   -4.1540 O.3   800  ATP800     -0.3112
     14  C5'       38.6040  -27.9020   -5.5830 C.3   800  ATP800      0.1813
     15  C4'       37.8460  -26.6110   -5.8360 C.3   800  ATP800      0.1821
     16  O4'       38.5570  -25.5280   -5.2450 O.3   800  ATP800     -0.3135
     17  C3'       37.5890  -26.2680   -7.2820 C.3   800  ATP800      0.2184
     18  O3'       36.2170  -25.8610   -7.2760 O.3   800  ATP800     -0.2174
     19  C2'       38.3710  -24.9970   -7.5140 C.3   800  ATP800      0.2570
     20  O2'       37.7110  -24.1470   -8.4800 O.3   800  ATP800     -0.2130
     21  C1'       38.5250  -24.4050   -6.1030 C.3   800  ATP800      0.3186
     22  N9        39.8210  -23.7180   -5.9640 N.pl3 800  ATP800     -0.1439
     23  C8        41.0190  -24.2850   -6.2070 C.3   800  ATP800      0.3377
     24  N7        42.0220  -23.4110   -6.0270 N.2   800  ATP800     -0.2095
     25  C5        41.4400  -22.2580   -5.6640 C.2   800  ATP800      0.2526
     26  C6        41.9350  -20.9140   -5.3240 C.2   800  ATP800      0.4393
     27  N6        43.2730  -20.7150   -5.3490 N.pl3 800  ATP800      0.2180
     28  N1        41.0310  -19.9570   -4.9860 N.2   800  ATP800      0.0021
     29  C2        39.7070  -20.2250   -4.9780 C.3   800  ATP800      0.5254
     30  N3        39.1840  -21.4330   -5.2790 N.2   800  ATP800     -0.0055
     31  C4        39.9900  -22.4590   -5.6210 C.2   800  ATP800      0.3518
@<TRIPOS>BOND
     1    20    19    1
     2    19    17    1
     3    19    21    1
     4    17    18    1
     5    17    15    1
     6    23    24    1
     7    23    22    1
     8    21    22    1
     9    21    16    1
    10    24    25    2
    11    22    31    1
    12    15    14    1
    13    15    16    1
    14    25    31    1
    15    25    26    1
    16    31    30    2
    17    14    13    1
    18     7     5    2
    19    27    26    1
    20    26    28    2
    21    30    29    1
    22    28    29    1
    23    12     5    1
    24    12     9    1
    25    13     9    1
    26     5     8    1
    27     5     6    1
    28    11     9    2
    29     8     1    1
    30     9    10    1
    31     4     1    2
    32     2     1    1
    33     1     3    1
