@<TRIPOS>MOLECULE
3mmx_KJZ_B_1.pdb
 31 33 0 0 0
SMALL
GASTEIGER

@<TRIPOS>ATOM
      1  C          4.1660   14.6110  -43.5210 C.2   191  KJZ191      0.3868
      2  N          2.6630   16.4180  -44.1440 N.am  191  KJZ191     -0.1690
      3  O          3.5610   13.9400  -44.3830 O.co2 191  KJZ191     -0.2437
      4  CA         3.9970   16.0880  -43.7630 C.3   191  KJZ191      0.2325
      5  OAB       -0.0570   20.1790  -47.7960 O.2   191  KJZ191     -0.2730
      6  OAC        3.2860   17.2680  -46.4180 O.2   191  KJZ191     -0.2731
      7 CLAE       -2.4970   18.0410  -49.6030 Cl    191  KJZ191     -0.0809
      8  CAF        1.2410   15.5010  -42.5670 C.2   191  KJZ191      0.1179
      9  CAG       -5.4270   20.0960  -47.8350 C.ar  191  KJZ191      0.0010
     10  CAH       -4.8540   20.2570  -46.4990 C.ar  191  KJZ191      0.0014
     11  CAI       -3.7510   17.6650  -42.8760 C.ar  191  KJZ191      0.0000
     12  CAJ       -2.6680   17.6360  -43.7670 C.ar  191  KJZ191      0.0000
     13  CAK       -1.1120   15.0850  -39.5090 C.ar  191  KJZ191      0.0000
     14  CAL       -4.6830   19.4040  -48.8000 C.ar  191  KJZ191      0.0127
     15  CAM        0.0440   15.0020  -40.3850 C.ar  191  KJZ191      0.0016
     16  CAN       -3.5420   19.7400  -46.1180 C.ar  191  KJZ191      0.0175
     17  CAO       -3.6130   17.0410  -41.6130 C.ar  191  KJZ191      0.0000
     18  CAP       -2.3300   15.7740  -39.9370 C.ar  191  KJZ191      0.0000
     19  CAQ       -1.4320   16.9450  -43.3880 C.ar  191  KJZ191      0.0000
     20  CAR        0.8850   18.1890  -46.9700 C.3   191  KJZ191      0.0968
     21  CAS        1.0260   17.5330  -45.5680 C.3   191  KJZ191      0.0967
     22  NAU        1.7270   16.5600  -43.1810 N.2   191  KJZ191     -0.1736
     23  NAV       -1.5110   18.4820  -46.7350 N.am  191  KJZ191     -0.1783
     24  CAX       -0.3780   18.9920  -47.2810 C.2   191  KJZ191      0.2461
     25  CAY        2.4640   16.9800  -45.3720 C.2   191  KJZ191      0.2453
     26  CAZ       -3.3710   18.8830  -48.4130 C.ar  191  KJZ191      0.0729
     27  CBA       -0.0250   15.6330  -41.7160 C.ar  191  KJZ191      0.0207
     28  CBB       -2.8010   19.0480  -47.0880 C.ar  191  KJZ191      0.0839
     29  CBC       -2.4180   16.3970  -41.2490 C.ar  191  KJZ191      0.0000
     30  CBD       -1.2860   16.3330  -42.1470 C.ar  191  KJZ191      0.0015
     31  OXT        5.0190   14.4590  -42.6100 O.co2 191  KJZ191     -0.2437
@<TRIPOS>BOND
     1     7    26    1
     2    14    26   ar
     3    14     9   ar
     4    26    28   ar
     5     9    10   ar
     6     5    24    2
     7    24    20    1
     8    24    23   am
     9    28    23    1
    10    28    16   ar
    11    20    21    1
    12    10    16   ar
    13     6    25    2
    14    21    25    1
    15    25     2   am
    16     3     1   ar
    17     2     4    1
    18     2    22    1
    19    12    19   ar
    20    12    11   ar
    21     4     1    1
    22     1    31   ar
    23    19    30   ar
    24    22     8    2
    25    11    17   ar
    26     8    27    1
    27    30    27   ar
    28    30    29   ar
    29    27    15   ar
    30    17    29   ar
    31    29    18   ar
    32    15    13   ar
    33    18    13   ar
