@<TRIPOS>MOLECULE
3mn0_HEM_A_1.pdb
 43 50 0 0 0
SMALL
GASTEIGER

@<TRIPOS>ATOM
      1  CHA        6.0140    9.0710    9.3870 C.2   155  HEM155      0.0000
      2  CHB        4.7390    6.8000    5.3390 C.2   155  HEM155      0.0000
      3  CHC        5.0400    2.5790    7.6640 C.2   155  HEM155      0.0000
      4  CHD        6.1560    4.8860   11.7120 C.2   155  HEM155      0.0000
      5  C1A        5.6820    8.8250    8.0710 C.ar  155  HEM155      0.0000
      6  C2A        5.4630    9.8550    7.0720 C.ar  155  HEM155      0.0000
      7  C3A        5.1000    9.2140    5.9580 C.ar  155  HEM155      0.0000
      8  C4A        5.0620    7.7940    6.2280 C.ar  155  HEM155      0.0000
      9  CMA        4.7930    9.8180    4.5860 C.3   155  HEM155      0.0000
     10  CAA        5.6810   11.3480    7.3470 C.3   155  HEM155      0.0000
     11  CBA        7.0550   11.8800    6.9210 C.3   155  HEM155      0.0000
     12  CGA        8.2540   11.0540    7.3640 C.2   155  HEM155      0.0000
     13  O1A        8.6460   10.1450    6.5540 O.co2 155  HEM155      0.0000
     14  O2A        8.7520   11.2930    8.4760 O.co2 155  HEM155      0.0000
     15  C1B        4.6880    5.4580    5.6380 C.2   155  HEM155      0.0000
     16  C2B        4.4230    4.4580    4.6290 C.2   155  HEM155      0.0000
     17  C3B        4.3860    3.2640    5.2950 C.2   155  HEM155      0.0000
     18  C4B        4.9340    3.4950    6.6150 C.2   155  HEM155      0.0000
     19  CMB        4.0350    4.8870    3.2110 C.3   155  HEM155      0.0000
     20  CAB        4.2970    1.8830    4.6620 C.3   155  HEM155      0.0000
     21  CBB        3.0870    1.6370    3.7730 C.3   155  HEM155      0.0000
     22  C1C        5.3930    2.8440    8.9820 C.ar  155  HEM155      0.0000
     23  C2C        5.2140    1.8870   10.0880 C.ar  155  HEM155      0.0000
     24  C3C        5.7340    2.4700   11.1780 C.ar  155  HEM155      0.0000
     25  C4C        5.8610    3.8770   10.8420 C.ar  155  HEM155      0.0000
     26  CMC        4.9030    0.4140    9.7770 C.3   155  HEM155      0.0000
     27  CAC        5.3820    2.1240   12.6440 C.3   155  HEM155      0.0000
     28  CBC        5.4180    0.6440   13.0200 C.3   155  HEM155      0.0000
     29  C1D        6.3480    6.2010   11.4270 C.2   155  HEM155      0.0000
     30  C2D        6.6660    7.2460   12.3670 C.2   155  HEM155      0.0000
     31  C3D        6.5550    8.4230   11.7260 C.2   155  HEM155      0.0000
     32  C4D        6.2030    8.1090   10.3580 C.2   155  HEM155      0.0000
     33  CMD        7.0800    7.0040   13.8340 C.3   155  HEM155      0.0000
     34  CAD        6.8130    9.8250   12.2850 C.3   155  HEM155      0.0000
     35  CBD        5.4830   10.4760   12.7560 C.3   155  HEM155      0.0000
     36  CGD        5.6420   11.9540   13.0190 C.2   155  HEM155      0.0000
     37  O1D        5.9690   12.3280   14.1610 O.co2 155  HEM155      0.0000
     38  O2D        5.0450   12.6940   12.2080 O.co2 155  HEM155      0.0000
     39  NA         5.3550    7.5920    7.5670 N.ar  155  HEM155      0.0000
     40  NB         5.0040    4.8470    6.8450 N.2   155  HEM155      0.0000
     41  NC         5.7140    4.0800    9.4800 N.ar  155  HEM155      0.0000
     42  ND         6.0470    6.7530   10.1710 N.2   155  HEM155      0.0000
     43 FE          5.6140    5.8050    8.4920 Fe    155  HEM155      0.0000
@<TRIPOS>BOND
     1    19    16    1
     2    21    20    1
     3     9     7    1
     4    16    17    2
     5    16    15    1
     6    20    17    1
     7    17    18    1
     8     2    15    1
     9     2     8    2
    10    15    40    2
    11     7     8   ar
    12     7     6   ar
    13     8    39   ar
    14    13    12   ar
    15    18    40    1
    16    18     3    2
    17    40    43    1
    18    11    10    1
    19    11    12    1
    20     6    10    1
    21     6     5   ar
    22    12    14   ar
    23    39     5   ar
    24    39    43    1
    25     3    22    1
    26     5     1    2
    27    43    41    1
    28    43    42    1
    29    22    41   ar
    30    22    23   ar
    31     1    32    1
    32    41    25   ar
    33    26    23    1
    34    23    24   ar
    35    42    32    2
    36    42    29    1
    37    32    31    1
    38    25    24   ar
    39    25     4    1
    40    24    27    1
    41    29     4    2
    42    29    30    1
    43    31    34    1
    44    31    30    2
    45    38    36   ar
    46    34    35    1
    47    30    33    1
    48    27    28    1
    49    35    36    1
    50    36    37   ar
