@<TRIPOS>MOLECULE
3mn5_ATP_A_1.pdb
 31 33 0 0 0
SMALL
GASTEIGER

@<TRIPOS>ATOM
      1  PG       -23.4940    0.3650   17.3360 P.3   800  ATP800      0.5373
      2  O1G      -22.2470    0.6490   16.4790 O.2   800  ATP800     -0.2221
      3  O2G      -23.2550   -0.6110   18.6520 O.3   800  ATP800     -0.1143
      4  O3G      -24.2070    1.7000   17.7220 O.3   800  ATP800     -0.1143
      5  PB       -25.5810   -1.4780   16.4140 P.3   800  ATP800      0.2277
      6  O1B      -25.5430   -2.1010   17.7870 O.3   800  ATP800     -0.4368
      7  O2B      -26.8350   -0.9490   15.7710 O.2   800  ATP800     -0.5168
      8  O3B      -24.4440   -0.3690   16.2400 O.3   800  ATP800     -0.2258
      9  PA       -25.2230   -4.2020   15.3970 P.3   800  ATP800      0.2189
     10  O1A      -24.3030   -4.8530   16.3670 O.3   800  ATP800     -0.4371
     11  O2A      -26.6920   -4.4250   15.5410 O.2   800  ATP800     -0.5170
     12  O3A      -24.9480   -2.5820   15.4540 O.3   800  ATP800     -0.2700
     13  O5'      -24.7080   -4.5740   13.9230 O.3   800  ATP800     -0.3112
     14  C5'      -25.3280   -4.1500   12.7280 C.3   800  ATP800      0.1813
     15  C4'      -24.1350   -3.9170   11.8170 C.3   800  ATP800      0.1821
     16  O4'      -23.5860   -5.2610   11.6550 O.3   800  ATP800     -0.3135
     17  C3'      -24.4980   -3.5160   10.4070 C.3   800  ATP800      0.2184
     18  O3'      -23.4350   -2.7510    9.8250 O.3   800  ATP800     -0.2174
     19  C2'      -24.5890   -4.8250    9.6870 C.3   800  ATP800      0.2570
     20  O2'      -24.3900   -4.7140    8.2710 O.3   800  ATP800     -0.2130
     21  C1'      -23.4340   -5.5860   10.3240 C.3   800  ATP800      0.3186
     22  N9       -23.5810   -7.0720   10.1880 N.pl3 800  ATP800     -0.1439
     23  C8       -24.6640   -7.7880   10.5450 C.3   800  ATP800      0.3377
     24  N7       -24.5020   -9.0890   10.2260 N.2   800  ATP800     -0.2095
     25  C5       -23.3360   -9.2010    9.6390 C.2   800  ATP800      0.2526
     26  C6       -22.5690  -10.2370    9.0260 C.2   800  ATP800      0.4393
     27  N6       -23.0770  -11.5150    9.0560 N.pl3 800  ATP800      0.2180
     28  N1       -21.3650   -9.8380    8.5740 N.2   800  ATP800      0.0021
     29  C2       -20.8180   -8.6220    8.5110 C.3   800  ATP800      0.5254
     30  N3       -21.5170   -7.5920    9.0390 N.2   800  ATP800     -0.0055
     31  C4       -22.7080   -7.8930    9.5700 C.2   800  ATP800      0.3518
@<TRIPOS>BOND
     1    20    19    1
     2    29    28    1
     3    29    30    1
     4    28    26    2
     5    26    27    1
     6    26    25    1
     7    30    31    2
     8    31    25    1
     9    31    22    1
    10    25    24    2
    11    19    21    1
    12    19    17    1
    13    18    17    1
    14    22    21    1
    15    22    23    1
    16    24    23    1
    17    21    16    1
    18    17    15    1
    19    16    15    1
    20    15    14    1
    21    14    13    1
    22    13     9    1
    23     9    12    1
    24     9    11    2
    25     9    10    1
    26    12     5    1
    27     7     5    2
    28     8     5    1
    29     8     1    1
    30     5     6    1
    31     2     1    2
    32     1     4    1
    33     1     3    1
