@<TRIPOS>MOLECULE
3mn5_LAB_A_1.pdb
 27 29 0 0 0
SMALL
GASTEIGER

@<TRIPOS>ATOM
      1  O5       -24.2620   -0.9820    6.6180 O.2   376  LAB376     -0.2025
      2  C18      -25.1380   -0.1650    6.5910 C.1   376  LAB376      0.2341
      3  N1       -25.6020    0.3260    7.7440 N.2   376  LAB376     -0.3310
      4  C16      -26.8310    1.0450    7.4160 C.2   376  LAB376      0.1655
      5  C17      -26.8360    1.7750    6.0830 C.3   376  LAB376      0.1352
      6  S1       -25.9000    0.4790    5.1820 S.3   376  LAB376     -0.0015
      7  C15      -28.0790    0.4130    7.9630 C.3   376  LAB376      0.2671
      8  O4       -28.4470   -0.5790    7.0040 O.3   376  LAB376     -0.1878
      9  C14      -27.8610   -0.3610    9.3150 C.3   376  LAB376      0.1097
     10  C13      -29.1770   -0.9140    9.9870 C.3   376  LAB376      0.1770
     11  O2       -29.8660   -1.9750    9.3190 O.3   376  LAB376     -0.4489
     12  C12      -30.2310    0.1590    9.9390 C.3   376  LAB376      0.0734
     13  C11      -30.3150    0.7720    8.5880 C.3   376  LAB376      0.1217
     14  O3       -29.1580    1.3310    7.9970 O.3   376  LAB376     -0.3296
     15  C10      -31.3820    1.7260    8.3790 C.3   376  LAB376      0.0301
     16  C9       -31.7420    2.0670    6.9180 C.3   376  LAB376      0.0068
     17  C8       -32.6430    1.0720    6.2620 C.3   376  LAB376      0.0218
     18  C20      -32.9360    1.2540    4.7650 C.3   376  LAB376      0.0047
     19  C7       -33.5250    0.1580    7.0950 C.2   376  LAB376     -0.0310
     20  C6       -33.5630   -1.1770    7.4600 C.2   376  LAB376     -0.0304
     21  C5       -32.5600   -2.1100    7.1590 C.3   376  LAB376      0.0300
     22  C4       -32.3120   -2.9000    8.4290 C.3   376  LAB376      0.0269
     23  C3       -31.4670   -4.1410    8.2800 C.2   376  LAB376     -0.0372
     24  C19      -32.1040   -5.3640    7.5880 C.3   376  LAB376      0.0266
     25  C2       -30.1550   -4.2290    8.7350 C.2   376  LAB376      0.0734
     26  C1       -29.4260   -3.2350    9.3180 C.2   376  LAB376      0.3407
     27  O1       -28.4110   -3.4270    9.9260 O.2   376  LAB376     -0.2449
@<TRIPOS>BOND
     1    18    17    1
     2     6     5    1
     3     6     2    1
     4     5     4    1
     5    17    16    1
     6    17    19    1
     7     2     1    2
     8     2     3    2
     9    16    15    1
    10     8     7    1
    11    19    20    2
    12    21    20    1
    13    21    22    1
    14     4     3    2
    15     4     7    1
    16    24    23    1
    17     7    14    1
    18     7     9    1
    19    14    13    1
    20    23    22    1
    21    23    25    2
    22    15    13    1
    23    13    12    1
    24    25    26    1
    25     9    10    1
    26    26    11    1
    27    26    27    2
    28    11    10    1
    29    12    10    1
