@<TRIPOS>MOLECULE
3mn6_ATP_A_1.pdb
 31 33 0 0 0
SMALL
GASTEIGER

@<TRIPOS>ATOM
      1  PG         4.4450    2.7560   21.9600 P.3   800  ATP800      0.5373
      2  O1G        3.3820    2.9150   23.0050 O.3   800  ATP800     -0.1143
      3  O2G        5.2240    1.4800   22.1340 O.3   800  ATP800     -0.1143
      4  O3G        3.9600    3.0140   20.5550 O.2   800  ATP800     -0.2221
      5  PB         7.0470    4.1280   22.1510 P.3   800  ATP800      0.2277
      6  O1B        7.6450    3.0340   21.3060 O.2   800  ATP800     -0.5168
      7  O2B        7.3590    5.5460   21.7860 O.3   800  ATP800     -0.4368
      8  O3B        5.4280    4.0290   22.2190 O.3   800  ATP800     -0.2258
      9  PA         8.9280    3.6170   24.3120 P.3   800  ATP800      0.2189
     10  O1A        9.0730    2.1360   24.5740 O.3   800  ATP800     -0.4371
     11  O2A        9.9730    4.3250   23.4830 O.2   800  ATP800     -0.5170
     12  O3A        7.4410    3.8920   23.7070 O.3   800  ATP800     -0.2700
     13  O5'        8.8290    4.3510   25.7490 O.3   800  ATP800     -0.3112
     14  C5'        8.6890    5.7770   25.9450 C.3   800  ATP800      0.1813
     15  C4'        7.8680    6.0510   27.2270 C.3   800  ATP800      0.1821
     16  O4'        8.4970    5.4540   28.3680 O.3   800  ATP800     -0.3135
     17  C3'        7.6770    7.5310   27.5700 C.3   800  ATP800      0.2184
     18  O3'        6.3270    7.7520   28.0250 O.3   800  ATP800     -0.2174
     19  C2'        8.6270    7.7840   28.7280 C.3   800  ATP800      0.2570
     20  O2'        8.1810    8.8630   29.5870 O.3   800  ATP800     -0.2130
     21  C1'        8.6720    6.4200   29.4260 C.3   800  ATP800      0.3186
     22  N9         9.9380    6.2010   30.1950 N.pl3 800  ATP800     -0.1439
     23  C8        11.2010    6.3140   29.7090 C.3   800  ATP800      0.3377
     24  N7        12.1360    6.0610   30.6650 N.2   800  ATP800     -0.2095
     25  C5        11.4600    5.7830   31.8050 C.2   800  ATP800      0.2526
     26  C6        11.8290    5.4320   33.1940 C.2   800  ATP800      0.4393
     27  N6        13.1320    5.3180   33.5750 N.pl3 800  ATP800      0.2180
     28  N1        10.8310    5.2220   34.0760 N.2   800  ATP800      0.0021
     29  C2         9.5250    5.3200   33.7350 C.3   800  ATP800      0.5254
     30  N3         9.1200    5.6460   32.4920 N.2   800  ATP800     -0.0055
     31  C4        10.0220    5.8750   31.4960 C.2   800  ATP800      0.3518
@<TRIPOS>BOND
     1     4     1    2
     2     6     5    2
     3     7     5    1
     4     1     3    1
     5     1     8    1
     6     1     2    1
     7     5     8    1
     8     5    12    1
     9    11     9    2
    10    12     9    1
    11     9    10    1
    12     9    13    1
    13    13    14    1
    14    14    15    1
    15    15    17    1
    16    15    16    1
    17    17    18    1
    18    17    19    1
    19    16    21    1
    20    19    21    1
    21    19    20    1
    22    21    22    1
    23    23    22    1
    24    23    24    1
    25    22    31    1
    26    24    25    2
    27    31    25    1
    28    31    30    2
    29    25    26    1
    30    30    29    1
    31    26    27    1
    32    26    28    2
    33    29    28    1
