@<TRIPOS>MOLECULE
3mn7_ATP_A_1.pdb
 31 33 0 0 0
SMALL
GASTEIGER

@<TRIPOS>ATOM
      1  PG       -34.8520   32.0710   -3.3510 P.3   800  ATP800      0.5373
      2  O1G      -33.7050   31.0990   -3.4820 O.2   800  ATP800     -0.2221
      3  O2G      -35.7910   31.7410   -2.2150 O.3   800  ATP800     -0.1143
      4  O3G      -34.4390   33.5220   -3.4140 O.3   800  ATP800     -0.1143
      5  PB       -37.3040   31.8720   -4.8040 P.3   800  ATP800      0.2277
      6  O1B      -37.8790   32.7100   -3.6880 O.3   800  ATP800     -0.4368
      7  O2B      -37.6840   32.1800   -6.2320 O.2   800  ATP800     -0.5168
      8  O3B      -35.6920   31.8620   -4.7140 O.3   800  ATP800     -0.2258
      9  PA       -39.1620   29.7980   -4.3400 P.3   800  ATP800      0.2189
     10  O1A      -39.4230   29.6050   -2.8650 O.3   800  ATP800     -0.4371
     11  O2A      -40.0830   30.6630   -5.1640 O.2   800  ATP800     -0.5170
     12  O3A      -37.6520   30.3260   -4.5200 O.3   800  ATP800     -0.2700
     13  O5'      -39.1030   28.3460   -5.0320 O.3   800  ATP800     -0.3112
     14  C5'      -38.7980   28.2080   -6.4180 C.3   800  ATP800      0.1813
     15  C4'      -37.9530   26.9570   -6.6210 C.3   800  ATP800      0.1821
     16  O4'      -38.6020   25.8310   -6.0220 O.3   800  ATP800     -0.3135
     17  C3'      -37.7640   26.6430   -8.0960 C.3   800  ATP800      0.2184
     18  O3'      -36.3740   26.4180   -8.3470 O.3   800  ATP800     -0.2174
     19  C2'      -38.5390   25.3600   -8.3360 C.3   800  ATP800      0.2570
     20  O2'      -37.8440   24.4730   -9.2160 O.3   800  ATP800     -0.2130
     21  C1'      -38.6910   24.7490   -6.9520 C.3   800  ATP800      0.3186
     22  N9       -39.9830   24.0270   -6.8230 N.pl3 800  ATP800     -0.1439
     23  C8       -41.2170   24.5320   -7.0230 C.3   800  ATP800      0.3377
     24  N7       -42.1720   23.5880   -6.8200 N.2   800  ATP800     -0.2095
     25  C5       -41.5450   22.4470   -6.4800 C.2   800  ATP800      0.2526
     26  C6       -41.9480   21.0610   -6.1330 C.2   800  ATP800      0.4393
     27  N6       -43.2540   20.7010   -6.1040 N.pl3 800  ATP800      0.2180
     28  N1       -40.9700   20.1690   -5.8410 N.2   800  ATP800      0.0021
     29  C2       -39.6660   20.5110   -5.8650 C.3   800  ATP800      0.5254
     30  N3       -39.2290   21.7480   -6.1740 N.2   800  ATP800     -0.0055
     31  C4       -40.1020   22.7410   -6.4870 C.2   800  ATP800      0.3518
@<TRIPOS>BOND
     1    20    19    1
     2    18    17    1
     3    19    17    1
     4    19    21    1
     5    17    15    1
     6    23    22    1
     7    23    24    1
     8    21    22    1
     9    21    16    1
    10    22    31    1
    11    24    25    2
    12    15    14    1
    13    15    16    1
    14    31    25    1
    15    31    30    2
    16    25    26    1
    17    14    13    1
    18     7     5    2
    19    30    29    1
    20    26    27    1
    21    26    28    2
    22    29    28    1
    23    11     9    2
    24    13     9    1
    25     5     8    1
    26     5    12    1
    27     5     6    1
    28     8     1    1
    29    12     9    1
    30     9    10    1
    31     2     1    2
    32     4     1    1
    33     1     3    1
