@<TRIPOS>MOLECULE
3mn8_GEM_A_1.pdb
 15 14 0 0 0
SMALL
GASTEIGER

@<TRIPOS>ATOM
      1  C8         3.7030  -15.2060  -29.7450 C.3   601  GEM601      0.1621
      2  S7         4.0450  -14.8320  -28.0480 S.3   601  GEM601     -0.1255
      3  C6         3.8220  -13.0760  -28.0520 C.3   601  GEM601      0.1049
      4  C5         2.4710  -12.6290  -28.6060 C.3   601  GEM601      0.2320
      5  N3         1.4510  -13.0280  -27.6490 N.pl3 601  GEM601     -0.0856
      6  C1         0.1340  -12.9850  -27.8200 C.cat 601  GEM601      0.5346
      7  N4        -0.6810  -13.3850  -26.8520 N.pl3 601  GEM601      0.1354
      8  N2        -0.3750  -12.5450  -28.9660 N.pl3 601  GEM601      0.1354
      9  C9         3.6060  -16.7040  -29.8610 C.2   601  GEM601      0.3748
     10  O14        3.8700  -17.3920  -28.8500 O.co2 601  GEM601     -0.2447
     11  O15        3.2590  -17.2080  -30.9500 O.co2 601  GEM601     -0.2447
     12  C10        4.7390  -14.6190  -30.7180 C.3   601  GEM601      0.1362
     13  C11        6.1430  -15.2090  -30.6690 C.2   601  GEM601      0.3663
     14  O12        7.1050  -14.4050  -30.6030 O.co2 601  GEM601     -0.2456
     15  O13        6.3030  -16.4550  -30.7330 O.co2 601  GEM601     -0.2456
@<TRIPOS>BOND
     1    11     9   ar
     2    15    13   ar
     3    12    13    1
     4    12     1    1
     5    13    14   ar
     6     9     1    1
     7     9    10   ar
     8     1     2    1
     9     8     6    1
    10     4     3    1
    11     4     5    1
    12     3     2    1
    13     6     5    2
    14     6     7    1
