@<TRIPOS>MOLECULE
3mn9_ATP_A_1.pdb
 31 33 0 0 0
SMALL
GASTEIGER

@<TRIPOS>ATOM
      1  PG        35.0700  -31.6900   -2.6290 P.3   800  ATP800      0.5373
      2  O1G       33.9730  -30.6530   -2.8080 O.2   800  ATP800     -0.2221
      3  O2G       35.8940  -31.5270   -1.4210 O.3   800  ATP800     -0.1143
      4  O3G       34.5310  -33.0920   -2.7570 O.3   800  ATP800     -0.1143
      5  PB        37.5430  -31.6630   -4.0840 P.3   800  ATP800      0.2277
      6  O1B       38.0300  -32.4150   -2.9180 O.3   800  ATP800     -0.4368
      7  O2B       37.7740  -32.0220   -5.4650 O.2   800  ATP800     -0.5168
      8  O3B       35.9560  -31.5400   -3.9310 O.3   800  ATP800     -0.2258
      9  PA        39.3770  -29.4990   -3.7610 P.3   800  ATP800      0.2189
     10  O1A       39.6300  -29.2530   -2.3150 O.3   800  ATP800     -0.4371
     11  O2A       40.2830  -30.3990   -4.5390 O.2   800  ATP800     -0.5170
     12  O3A       37.9300  -30.1090   -3.9750 O.3   800  ATP800     -0.2700
     13  O5'       39.1910  -28.0730   -4.4150 O.3   800  ATP800     -0.3112
     14  C5'       38.8540  -27.9190   -5.7880 C.3   800  ATP800      0.1813
     15  C4'       38.0400  -26.6480   -5.9430 C.3   800  ATP800      0.1821
     16  O4'       38.8410  -25.5760   -5.4250 O.3   800  ATP800     -0.3135
     17  C3'       37.7560  -26.2810   -7.3710 C.3   800  ATP800      0.2184
     18  O3'       36.4340  -25.7780   -7.4530 O.3   800  ATP800     -0.2174
     19  C2'       38.6310  -25.0730   -7.6730 C.3   800  ATP800      0.2570
     20  O2'       38.0070  -24.1670   -8.6160 O.3   800  ATP800     -0.2130
     21  C1'       38.8110  -24.4520   -6.2850 C.3   800  ATP800      0.3186
     22  N9        40.0700  -23.7060   -6.1600 N.pl3 800  ATP800     -0.1439
     23  C8        41.2890  -24.2220   -6.4140 C.3   800  ATP800      0.3377
     24  N7        42.2270  -23.2790   -6.2040 N.2   800  ATP800     -0.2095
     25  C5        41.5610  -22.1440   -5.8490 C.2   800  ATP800      0.2526
     26  C6        41.9630  -20.7850   -5.5100 C.2   800  ATP800      0.4393
     27  N6        43.3080  -20.5240   -5.5480 N.pl3 800  ATP800      0.2180
     28  N1        40.9920  -19.8700   -5.1740 N.2   800  ATP800      0.0021
     29  C2        39.6750  -20.1950   -5.1630 C.3   800  ATP800      0.5254
     30  N3        39.2510  -21.4180   -5.4660 N.2   800  ATP800     -0.0055
     31  C4        40.1460  -22.4170   -5.8180 C.2   800  ATP800      0.3518
@<TRIPOS>BOND
     1    20    19    1
     2    19    17    1
     3    19    21    1
     4    18    17    1
     5    17    15    1
     6    23    24    1
     7    23    22    1
     8    21    22    1
     9    21    16    1
    10    24    25    2
    11    22    31    1
    12    15    14    1
    13    15    16    1
    14    25    31    1
    15    25    26    1
    16    31    30    2
    17    14    13    1
    18    27    26    1
    19    26    28    2
    20    30    29    1
    21     7     5    2
    22    28    29    1
    23    11     9    2
    24    13     9    1
    25     5    12    1
    26     5     8    1
    27     5     6    1
    28    12     9    1
    29     8     1    1
    30     9    10    1
    31     2     1    2
    32     4     1    1
    33     1     3    1
