@<TRIPOS>MOLECULE
3mna_DWH_A_1.pdb
 36 37 0 0 0
SMALL
GASTEIGER

@<TRIPOS>ATOM
      1  C1        -5.2200    2.6390   15.7540 C.ar  263  DWH263      0.1067
      2  N1        -5.3950   -0.0150   16.0790 N.3   263  DWH263     -0.1053
      3  O1        -7.3310    1.5100   16.6350 O.2   263  DWH263     -0.1519
      4  S1        -5.8860    1.3350   16.7470 S.O2  263  DWH263      0.0723
      5  C2        -6.1000    3.7450   15.2940 C.ar  263  DWH263     -0.0335
      6  O2        -5.3270    1.5240   18.0710 O.2   263  DWH263     -0.1519
      7  C3        -5.6000    4.7620   14.5530 C.ar  263  DWH263     -0.0380
      8  C4        -4.1780    4.7370   14.2180 C.ar  263  DWH263      0.0419
      9  C5        -3.3630    3.7420   14.6190 C.ar  263  DWH263     -0.0380
     10  C6        -3.8970    2.6560   15.4170 C.ar  263  DWH263     -0.0335
     11  N7        -3.5240    5.7510   13.5140 N.pl3 263  DWH263     -0.2379
     12  C8        -4.1280    6.6130   12.6130 C.1   263  DWH263      0.2251
     13  N9        -3.2450    7.6020   12.1200 N.2   263  DWH263     -0.2465
     14  C10       -3.7080    8.4890   11.3030 C.1   263  DWH263      0.2211
     15  N11       -2.8580    9.5030   10.8120 N.pl3 263  DWH263     -0.2579
     16  N12       -5.0700    8.4840   10.9340 N.2   263  DWH263     -0.2495
     17  C13       -5.8540    7.5600   11.4100 C.1   263  DWH263      0.2270
     18 CL13       -7.4770    7.5490   10.9190 Cl    263  DWH263      0.0258
     19  N14       -5.3860    6.5770   12.3180 N.2   263  DWH263     -0.2492
     20  C15       -1.4510    9.3600   11.0240 C.3   263  DWH263      0.1174
     21  C16       -0.9020    8.5610    9.8920 C.2   263  DWH263      0.3249
     22  C17        0.7800    7.9600    8.4800 C.3   263  DWH263      0.0817
     23  O17        0.3040    8.6850    9.5590 O.3   263  DWH263     -0.4668
     24  O18       -1.6470    7.7850    9.2350 O.2   263  DWH263     -0.2491
     25 HN11       -3.1940   10.2240   10.3750 H     263  DWH263      0.1600
     26  H2        -7.0410    3.7410   15.5310 H     263  DWH263      0.0638
     27  H3        -6.1700    5.4880   14.2550 H     263  DWH263      0.0637
     28  H5        -2.4220    3.7580   14.3850 H     263  DWH263      0.0637
     29  H15       -1.0230   10.2330   11.0510 H     263  DWH263      0.0585
     30 H15A       -1.2980    8.8940   11.8640 H     263  DWH263      0.0585
     31  H6        -3.3140    1.9390   15.7100 H     263  DWH263      0.0638
     32  HN7       -2.7430    6.0400   13.8740 H     263  DWH263      0.1657
     33  H17        1.6810    8.2600    8.2600 H     263  DWH263      0.0661
     34 H17A        0.8000    7.0130    8.7090 H     263  DWH263      0.0661
     35 H17B        0.1950    8.0970    7.7120 H     263  DWH263      0.0661
     36 HN1A       -4.6130   -0.3930   16.3410 H     263  DWH263      0.1694
@<TRIPOS>BOND
     1    35    22    1
     2    33    22    1
     3    22    34    1
     4    22    23    1
     5    24    21    2
     6    23    21    1
     7    21    20    1
     8    25    15    1
     9    15    20    1
    10    15    14    1
    11    18    17    1
    12    16    14    2
    13    16    17    2
    14    20    29    1
    15    20    30    1
    16    14    13    2
    17    17    19    2
    18    13    12    2
    19    19    12    2
    20    12    11    1
    21    11    32    1
    22    11     8    1
    23     8     7   ar
    24     8     9   ar
    25    27     7    1
    26    28     9    1
    27     7     5   ar
    28     9    10   ar
    29     5    26    1
    30     5     1   ar
    31    10    31    1
    32    10     1   ar
    33     1     4    1
    34     2    36    1
    35     2     4    1
    36     3     4    2
    37     4     6    2
