@<TRIPOS>MOLECULE
3mne_DEX_A_1.pdb
 28 31 0 0 0
SMALL
GASTEIGER

@<TRIPOS>ATOM
      1  C1       -27.8210   27.0800    7.5000 C.2   784  DEX784     -0.0171
      2  C2       -26.5440   26.7040    7.1940 C.2   784  DEX784      0.0378
      3  C3       -26.3780   25.8740    5.9260 C.2   784  DEX784      0.1948
      4  C4       -27.5330   25.4800    5.0510 C.2   784  DEX784      0.0339
      5  C5       -28.8110   25.8880    5.3850 C.2   784  DEX784     -0.0354
      6  C6       -30.0200   25.4940    4.4730 C.3   784  DEX784      0.0226
      7  C7       -31.0700   24.7340    5.4090 C.3   784  DEX784      0.0071
      8  C8       -31.3560   25.6230    6.7540 C.3   784  DEX784      0.0336
      9  C9       -30.0420   25.9510    7.6640 C.3   784  DEX784      0.1679
     10  C10      -29.0710   26.7300    6.6490 C.3   784  DEX784      0.0639
     11  C11      -30.2380   26.6780    9.0630 C.3   784  DEX784      0.1823
     12  C12      -31.4940   26.0190    9.8330 C.3   784  DEX784      0.0385
     13  C13      -32.7400   25.6910    8.8490 C.3   784  DEX784      0.0350
     14  C14      -32.3880   24.7850    7.6820 C.3   784  DEX784      0.0055
     15  C15      -33.7050   24.5000    6.8930 C.3   784  DEX784      0.0031
     16  C16      -34.6520   24.3140    8.1730 C.3   784  DEX784      0.0349
     17  C17      -33.7620   24.6490    9.4610 C.3   784  DEX784      0.1795
     18  C18      -33.3650   27.1210    8.7460 C.3   784  DEX784      0.0030
     19  C19      -29.5590   28.1430    6.1000 C.3   784  DEX784      0.0112
     20  C20      -34.5430   25.3680   10.6080 C.2   784  DEX784      0.2109
     21  C21      -34.1490   25.2760   12.0640 C.3   784  DEX784      0.2484
     22  C22      -35.1190   22.8780    8.4150 C.3   784  DEX784      0.0030
     23  F1       -29.5430   24.6040    7.8340 F     784  DEX784     -0.2368
     24  O1       -25.2520   25.4950    5.6090 O.2   784  DEX784     -0.2866
     25  O2       -30.7190   28.0520    8.9020 O.3   784  DEX784     -0.2203
     26  O3       -33.1540   23.4770   10.1400 O.3   784  DEX784     -0.2181
     27  O4       -35.7450   25.7150   10.4430 O.2   784  DEX784     -0.2907
     28  O5       -34.6330   26.4800   12.7500 O.3   784  DEX784     -0.2118
@<TRIPOS>BOND
     1     6     5    1
     2     6     7    1
     3     4     5    2
     4     4     3    1
     5     5    10    1
     6     7     8    1
     7    24     3    2
     8     3     2    1
     9    19    10    1
    10    10     1    1
    11    10     9    1
    12     8     9    1
    13     8    14    1
    14    15    14    1
    15    15    16    1
    16     2     1    2
    17     9    23    1
    18     9    11    1
    19    14    13    1
    20    16    22    1
    21    16    17    1
    22    18    13    1
    23    13    17    1
    24    13    12    1
    25    25    11    1
    26    11    12    1
    27    17    26    1
    28    17    20    1
    29    27    20    2
    30    20    21    1
    31    21    28    1
