@<TRIPOS>MOLECULE
3mnn_MML_F_1.pdb
 10 10 0 0 0
SMALL
GASTEIGER

@<TRIPOS>ATOM
      1  C1        -9.5360  -44.8240   53.0090 C.3   2002  MML2002     0.0310
      2  C2        -9.1620  -44.4970   51.5880 C.ar  2002  MML2002    -0.0219
      3  C3       -10.1700  -44.1950   50.5980 C.ar  2002  MML2002    -0.0046
      4  C4        -9.7640  -43.8140   49.2780 C.ar  2002  MML2002    -0.0046
      5  C5        -8.3670  -43.6420   48.9660 C.ar  2002  MML2002    -0.0225
      6  C6        -7.9090  -43.1710   47.6050 C.3   2002  MML2002     0.0224
      7  C7        -8.8620  -42.1440   46.9840 C.3   2002  MML2002     0.0047
      8  C8        -7.6970  -44.3370   46.6380 C.3   2002  MML2002     0.0047
      9  C9        -7.3820  -43.9790   49.9620 C.ar  2002  MML2002    -0.0046
     10  C10       -7.7650  -44.3750   51.2830 C.ar  2002  MML2002    -0.0046
@<TRIPOS>BOND
     1     8     6    1
     2     7     6    1
     3     6     5    1
     4     5     4   ar
     5     5     9   ar
     6     4     3   ar
     7     9    10   ar
     8     3     2   ar
     9    10     2   ar
    10     2     1    1
