@<TRIPOS>MOLECULE
3mnn_PTW_F_1.pdb
 10 12 0 0 0
SMALL
GASTEIGER

@<TRIPOS>ATOM
      1  N1       -13.3700  -41.3040   50.1930 N.3   2003  PTW2003    -0.2408
      2  P1       -10.9640  -41.7920   51.2310 P.3   2003  PTW2003    -0.0279
      3  N2       -12.5960  -39.8610   52.0650 N.3   2003  PTW2003    -0.2408
      4  N3       -13.2790  -42.1870   52.5180 N.3   2003  PTW2003    -0.2408
      5  C16      -12.0450  -41.7700   49.7270 C.3   2003  PTW2003     0.0981
      6  C17      -13.9440  -42.2470   51.1880 C.3   2003  PTW2003     0.1520
      7  C18      -11.9270  -42.7890   52.4630 C.3   2003  PTW2003     0.0981
      8  C19      -13.2800  -39.9290   50.7470 C.3   2003  PTW2003     0.1520
      9  C20      -11.1340  -40.0970   51.9420 C.3   2003  PTW2003     0.0981
     10  C21      -13.2170  -40.7970   53.0330 C.3   2003  PTW2003     0.1520
@<TRIPOS>BOND
     1     5     1    1
     2     5     2    1
     3     1     8    1
     4     1     6    1
     5     8     3    1
     6     6     4    1
     7     2     9    1
     8     2     7    1
     9     9     3    1
    10     3    10    1
    11     7     4    1
    12     4    10    1
