@<TRIPOS>MOLECULE
3mno_DEX_A_1.pdb
 28 31 0 0 0
SMALL
GASTEIGER

@<TRIPOS>ATOM
      1  C1       -27.3590   27.0290    7.5080 C.2   784  DEX784     -0.0171
      2  C2       -26.0890   26.6540    7.1520 C.2   784  DEX784      0.0378
      3  C3       -25.9020   25.8760    5.9010 C.2   784  DEX784      0.1948
      4  C4       -27.0800   25.4600    5.0840 C.2   784  DEX784      0.0339
      5  C5       -28.3350   25.8730    5.4820 C.2   784  DEX784     -0.0354
      6  C6       -29.5150   25.4220    4.7030 C.3   784  DEX784      0.0226
      7  C7       -30.5540   24.7490    5.6200 C.3   784  DEX784      0.0071
      8  C8       -30.9450   25.6630    6.8090 C.3   784  DEX784      0.0336
      9  C9       -29.6180   26.0050    7.5550 C.3   784  DEX784      0.1679
     10  C10      -28.6070   26.7350    6.6440 C.3   784  DEX784      0.0639
     11  C11      -29.8420   26.6660    8.9040 C.3   784  DEX784      0.1823
     12  C12      -30.9600   25.9620    9.7650 C.3   784  DEX784      0.0385
     13  C13      -32.2820   25.7370    8.9450 C.3   784  DEX784      0.0350
     14  C14      -31.9590   24.9000    7.6890 C.3   784  DEX784      0.0055
     15  C15      -33.3090   24.4110    7.1230 C.3   784  DEX784      0.0031
     16  C16      -34.2020   24.3140    8.3880 C.3   784  DEX784      0.0349
     17  C17      -33.3020   24.7430    9.5830 C.3   784  DEX784      0.1795
     18  C18      -33.0440   27.0740    8.5840 C.3   784  DEX784      0.0030
     19  C19      -29.0680   28.0980    6.0460 C.3   784  DEX784      0.0112
     20  C20      -34.1590   25.3730   10.6620 C.2   784  DEX784      0.2109
     21  C21      -33.5880   25.5800   12.0640 C.3   784  DEX784      0.2484
     22  C22      -34.6330   22.8420    8.5100 C.3   784  DEX784      0.0030
     23  F1       -29.0550   24.7970    7.9310 F     784  DEX784     -0.2368
     24  O1       -24.8230   25.5090    5.5420 O.2   784  DEX784     -0.2866
     25  O2       -30.2280   28.0510    8.7420 O.3   784  DEX784     -0.2203
     26  O3       -32.6030   23.7050   10.2560 O.3   784  DEX784     -0.2181
     27  O4       -35.2460   25.8960   10.4330 O.2   784  DEX784     -0.2907
     28  O5       -34.1930   26.5920   12.8470 O.3   784  DEX784     -0.2118
@<TRIPOS>BOND
     1     6     5    1
     2     6     7    1
     3     4     5    2
     4     4     3    1
     5     5    10    1
     6    24     3    2
     7     7     8    1
     8     3     2    1
     9    19    10    1
    10    10     1    1
    11    10     9    1
    12     8     9    1
    13     8    14    1
    14    15    14    1
    15    15    16    1
    16     2     1    2
    17     9    23    1
    18     9    11    1
    19    14    13    1
    20    16    22    1
    21    16    17    1
    22    18    13    1
    23    25    11    1
    24    11    12    1
    25    13    17    1
    26    13    12    1
    27    17    26    1
    28    17    20    1
    29    27    20    2
    30    20    21    1
    31    21    28    1
