@<TRIPOS>MOLECULE
3mnp_DEX_A_1.pdb
 28 31 0 0 0
SMALL
GASTEIGER

@<TRIPOS>ATOM
      1  C1       -34.3500   10.3540   29.0990 C.2   784  DEX784     -0.0171
      2  C2       -35.2720    9.5510   28.6120 C.2   784  DEX784      0.0378
      3  C3       -36.0630    9.7240   27.4110 C.2   784  DEX784      0.1948
      4  C4       -35.8680   10.9490   26.5980 C.2   784  DEX784      0.0339
      5  C5       -34.9050   11.8270   27.0280 C.2   784  DEX784     -0.0354
      6  C6       -34.7120   13.1220   26.2380 C.3   784  DEX784      0.0226
      7  C7       -34.8230   14.3830   27.1040 C.3   784  DEX784      0.0071
      8  C8       -33.7680   14.2370   28.3990 C.3   784  DEX784      0.0336
      9  C9       -34.1410   12.8850   29.1760 C.3   784  DEX784      0.1679
     10  C10      -34.0420   11.5890   28.1770 C.3   784  DEX784      0.0639
     11  C11      -33.3860   12.7500   30.5220 C.3   784  DEX784      0.1823
     12  C12      -33.4870   14.0780   31.3460 C.3   784  DEX784      0.0385
     13  C13      -32.9840   15.3320   30.5100 C.3   784  DEX784      0.0350
     14  C14      -33.9180   15.4620   29.2930 C.3   784  DEX784      0.0055
     15  C15      -33.6630   16.8750   28.6780 C.3   784  DEX784      0.0031
     16  C16      -33.3300   17.6850   29.9810 C.3   784  DEX784      0.0349
     17  C17      -33.3560   16.7490   31.1980 C.3   784  DEX784      0.1795
     18  C18      -31.4240   15.2440   30.2330 C.3   784  DEX784      0.0030
     19  C19      -32.6150   11.4120   27.6160 C.3   784  DEX784      0.0112
     20  C20      -32.3780   17.1280   32.2280 C.2   784  DEX784      0.2109
     21  C21      -32.5170   16.5680   33.6380 C.3   784  DEX784      0.2484
     22  C22      -34.4350   18.8180   30.1230 C.3   784  DEX784      0.0030
     23  F1       -35.4350   13.0020   29.5010 F     784  DEX784     -0.2368
     24  O1       -36.9340    8.8980   27.0790 O.2   784  DEX784     -0.2866
     25  O2       -32.0100   12.3880   30.2910 O.3   784  DEX784     -0.2203
     26  O3       -34.6560   16.6410   31.8270 O.3   784  DEX784     -0.2181
     27  O4       -31.4150   17.7650   32.0510 O.2   784  DEX784     -0.2907
     28  O5       -31.3010   16.5250   34.4340 O.3   784  DEX784     -0.2118
@<TRIPOS>BOND
     1     6     5    1
     2     6     7    1
     3     4     5    2
     4     4     3    1
     5     5    10    1
     6    24     3    2
     7     7     8    1
     8     3     2    1
     9    19    10    1
    10    10     1    1
    11    10     9    1
    12     8     9    1
    13     8    14    1
    14     2     1    2
    15    15    14    1
    16    15    16    1
    17     9    23    1
    18     9    11    1
    19    14    13    1
    20    16    22    1
    21    16    17    1
    22    18    13    1
    23    25    11    1
    24    13    17    1
    25    13    12    1
    26    11    12    1
    27    17    26    1
    28    17    20    1
    29    27    20    2
    30    20    21    1
    31    21    28    1
