@<TRIPOS>MOLECULE
3mnq_AD9_A_1.pdb
 31 33 0 0 0
SMALL
GASTEIGER

@<TRIPOS>ATOM
      1  VG        63.2390   40.3680  -28.1390 V     900  AD9900      0.0000
      2  O1G       63.3590   38.8960  -28.7130 O.3   900  AD9900      0.0000
      3  O2G       64.2950   41.4500  -28.9150 O.3   900  AD9900      0.0000
      4  O3G       61.5670   40.9350  -28.0640 O.3   900  AD9900      0.0000
      5  PB        64.6710   39.7560  -25.2540 P.3   900  AD9900      0.0000
      6  O1B       66.1730   40.5070  -25.3980 O.2   900  AD9900     -0.5000
      7  O2B       64.7120   38.2160  -25.0590 O.3   900  AD9900     -0.5000
      8  O3B       64.0220   40.2800  -26.5540 O.3   900  AD9900      0.0000
      9  PA        64.8760   41.6940  -22.9810 P.3   900  AD9900      0.0000
     10  O1A       66.3360   41.3800  -22.6030 O.3   900  AD9900     -0.5000
     11  O2A       64.6440   43.0940  -23.9080 O.2   900  AD9900     -0.5000
     12  O3A       64.1200   40.5400  -23.9070 O.3   900  AD9900      0.0000
     13  O5'       63.8150   41.9190  -21.7660 O.3   900  AD9900      0.0000
     14  C5'       62.5080   42.5970  -21.8180 C.3   900  AD9900      0.0000
     15  C4'       62.3310   43.3730  -20.5500 C.3   900  AD9900      0.0000
     16  O4'       62.3730   42.4220  -19.4420 O.3   900  AD9900      0.0000
     17  C3'       63.4810   44.3190  -20.2030 C.3   900  AD9900      0.0000
     18  O3'       63.3600   45.5690  -20.9110 O.3   900  AD9900      0.0000
     19  C2'       63.3050   44.4980  -18.6870 C.3   900  AD9900      0.0000
     20  O2'       62.1390   45.3290  -18.3880 O.3   900  AD9900      0.0000
     21  C1'       62.9710   43.0300  -18.2550 C.3   900  AD9900      0.0000
     22  N9        64.1300   42.2240  -17.8280 N.pl3 900  AD9900      0.5000
     23  C8        64.6630   41.0720  -18.4360 C.3   900  AD9900      0.0000
     24  N7        65.7050   40.5670  -17.8010 N.2   900  AD9900      0.0000
     25  C5        65.8890   41.4080  -16.7120 C.2   900  AD9900      0.0000
     26  C6        66.8260   41.4070  -15.6440 C.2   900  AD9900      0.0000
     27  N6        67.7960   40.4640  -15.5250 N.pl3 900  AD9900      0.5000
     28  N1        66.7450   42.3990  -14.6890 N.2   900  AD9900      0.5000
     29  C2        65.7710   43.3550  -14.7910 C.3   900  AD9900      0.0000
     30  C4        64.9280   42.4500  -16.7040 C.2   900  AD9900      0.0000
     31  N3        64.8270   43.4430  -15.7730 N.2   900  AD9900      0.5000
@<TRIPOS>BOND
     1     3     1    1
     2     2     1    1
     3     1     4    1
     4     1     8    1
     5     8     5    1
     6     6     5    2
     7     5     7    1
     8     5    12    1
     9    11     9    2
    10    12     9    1
    11     9    10    1
    12     9    13    1
    13    14    13    1
    14    14    15    1
    15    18    17    1
    16    15    17    1
    17    15    16    1
    18    17    19    1
    19    16    21    1
    20    19    20    1
    21    19    21    1
    22    23    22    1
    23    23    24    1
    24    21    22    1
    25    22    30    1
    26    24    25    2
    27    25    30    1
    28    25    26    1
    29    30    31    2
    30    31    29    1
    31    26    27    1
    32    26    28    2
    33    29    28    1
