@<TRIPOS>MOLECULE
3mnq_STL_A_1.pdb
 17 18 0 0 0
SMALL
GASTEIGER

@<TRIPOS>ATOM
      1  C1        50.3530   47.2270  -24.7710 C.ar  902  STL902      0.1989
      2  C2        50.3710   45.9850  -25.4650 C.ar  902  STL902      0.0840
      3  C3        50.8430   44.8150  -24.8100 C.ar  902  STL902      0.1989
      4  C4        51.2970   44.8880  -23.4660 C.ar  902  STL902      0.0422
      5  C5        51.2780   46.1330  -22.7750 C.ar  902  STL902      0.0064
      6  C6        50.8050   47.2990  -23.4320 C.ar  902  STL902      0.0422
      7  C7        51.7460   46.2200  -21.3680 C.2   902  STL902      0.0002
      8  C8        53.0440   46.1080  -21.0650 C.2   902  STL902      0.0000
      9  C9        53.5210   46.1980  -19.6090 C.ar  902  STL902      0.0002
     10  C10       54.4810   47.1740  -19.2440 C.ar  902  STL902      0.0033
     11  C11       54.9310   47.2620  -17.9020 C.ar  902  STL902      0.0420
     12  C12       54.4220   46.3770  -16.9200 C.ar  902  STL902      0.1957
     13  C13       53.4600   45.3980  -17.2780 C.ar  902  STL902      0.0420
     14  C14       53.0090   45.3070  -18.6190 C.ar  902  STL902      0.0033
     15  O1        54.8600   46.4700  -15.6320 O.3   902  STL902     -0.2866
     16  O2        50.8590   43.6210  -25.4680 O.3   902  STL902     -0.2865
     17  O3        49.9010   48.3500  -25.3890 O.3   902  STL902     -0.2865
@<TRIPOS>BOND
     1    16     3    1
     2     2     3   ar
     3     2     1   ar
     4    17     1    1
     5     3     4   ar
     6     1     6   ar
     7     4     5   ar
     8     6     5   ar
     9     5     7    1
    10     7     8    2
    11     8     9    1
    12     9    10   ar
    13     9    14   ar
    14    10    11   ar
    15    14    13   ar
    16    11    12   ar
    17    13    12   ar
    18    12    15    1
