@<TRIPOS>MOLECULE
3mnr_SD1_P_1.pdb
 35 38 0 0 0
SMALL
GASTEIGER

@<TRIPOS>ATOM
      1  C1         4.4130  -13.7040  -24.7650 C.3   233  SD1233      0.0446
      2  C2         4.7660  -12.3150  -24.2960 C.ar  233  SD1233      0.0438
      3  C3         6.1350  -11.8340  -24.0260 C.ar  233  SD1233      0.0478
      4  C4         7.2540  -12.8030  -24.2430 C.2   233  SD1233      0.1742
      5  C5         6.8960  -14.2450  -24.5850 C.3   233  SD1233      0.0695
      6  C6         5.6250  -14.3560  -25.4480 C.3   233  SD1233      0.0128
      7  C7         5.2820  -15.8210  -25.6880 C.3   233  SD1233      0.0008
      8  C8         5.8540  -13.7140  -26.8220 C.3   233  SD1233      0.0008
      9  O9         8.4150  -12.4420  -24.1910 O.2   233  SD1233     -0.2913
     10  C10        6.0660  -10.4920  -23.6370 C.ar  233  SD1233      0.0170
     11  C11        4.6970  -10.1820  -23.6710 C.ar  233  SD1233      0.0415
     12  N12        3.9960  -11.2610  -24.0190 N.ar  233  SD1233     -0.3134
     13  C13        4.3110   -8.7760  -23.2900 C.3   233  SD1233      0.0504
     14  C14        2.6700  -11.3100  -24.2250 C.ar  233  SD1233      0.0647
     15  C15        1.7870  -12.1800  -23.5610 C.ar  233  SD1233      0.0177
     16  C16        0.4120  -12.2310  -23.8540 C.ar  233  SD1233      0.0074
     17  C17       -0.1330  -11.4170  -24.8410 C.ar  233  SD1233      0.0720
     18  C18        0.7590  -10.4870  -25.5750 C.ar  233  SD1233      0.0764
     19  C19        2.1150  -10.4980  -25.2310 C.ar  233  SD1233      0.0341
     20  C20       -1.6060  -11.4630  -25.1610 C.2   233  SD1233      0.2854
     21  O21       -1.9940  -11.1230  -26.2680 O.2   233  SD1233     -0.2666
     22  N22       -2.4600  -11.8730  -24.2310 N.am  233  SD1233     -0.0837
     23  N23        0.2670   -9.6800  -26.5670 N.pl3 233  SD1233     -0.2121
     24  C24        0.7150   -8.4240  -26.9150 C.ar  233  SD1233      0.0767
     25  C25        1.0740   -7.4750  -25.9390 C.ar  233  SD1233      0.0567
     26  C26        1.5090   -6.1830  -26.2860 C.ar  233  SD1233      0.1767
     27  C27        1.5850   -5.8080  -27.7140 C.ar  233  SD1233      0.2061
     28  C28        1.2050   -6.8180  -28.7170 C.ar  233  SD1233      0.1767
     29  C29        0.7840   -8.0870  -28.2810 C.ar  233  SD1233      0.0567
     30  O30        1.2980   -6.4450  -30.0300 O.3   233  SD1233     -0.4682
     31  C31        1.2820   -7.4250  -31.0770 C.3   233  SD1233      0.2526
     32  O32        2.0060   -4.5720  -28.1190 O.3   233  SD1233     -0.4654
     33  C33        3.4120   -4.3280  -28.1840 C.3   233  SD1233      0.2528
     34  O34        1.8590   -5.2220  -25.3710 O.3   233  SD1233     -0.4682
     35  C35        2.0230   -5.4930  -23.9770 C.3   233  SD1233      0.2526
@<TRIPOS>BOND
     1    31    30    1
     2    30    28    1
     3    28    29   ar
     4    28    27   ar
     5    29    24   ar
     6    33    32    1
     7    32    27    1
     8    27    26   ar
     9    24    23    1
    10    24    25   ar
    11     8     6    1
    12    23    18    1
    13    26    25   ar
    14    26    34    1
    15    21    20    2
    16     7     6    1
    17    18    19   ar
    18    18    17   ar
    19     6     1    1
    20     6     5    1
    21    34    35    1
    22    19    14   ar
    23    20    17    1
    24    20    22   am
    25    17    16   ar
    26     1     2    1
    27     5     4    1
    28     2     3   ar
    29     2    12   ar
    30     4     9    2
    31     4     3    1
    32    14    12    1
    33    14    15   ar
    34     3    10   ar
    35    12    11   ar
    36    16    15   ar
    37    11    10   ar
    38    11    13    1
