@<TRIPOS>MOLECULE
3mnu_BON_A_1.pdb
 20 21 0 0 0
SMALL
GASTEIGER

@<TRIPOS>ATOM
      1  B         -5.0350    6.8770   12.6790 B     265  BON265      0.0000
      2  C1        -4.7000    2.9870   14.6850 C.ar  265  BON265      0.0000
      3  N1        -5.2300   -0.6310   16.1300 N.3   265  BON265      0.0000
      4  O1        -6.8580    1.2100   16.0640 O.2   265  BON265      0.0000
      5  S1        -5.4890    0.9080   16.3630 S.O2  265  BON265      0.0000
      6  C2        -5.9570    3.6560   14.6490 C.ar  265  BON265      0.0000
      7  N2        -4.5210    1.6990   15.2960 N.pl3 265  BON265      0.0000
      8  O2        -5.0090    1.2590   17.6670 O.2   265  BON265      0.0000
      9  C3        -6.0590    4.9150   14.0080 C.ar  265  BON265      0.0000
     10  O3        -3.9810    7.7330   12.5110 O.3   265  BON265      0.0000
     11  C4        -4.9260    5.5080   13.4060 C.ar  265  BON265      0.0000
     12  O4        -6.1850    7.3330   12.0990 O.3   265  BON265      0.0000
     13  C5        -3.6890    4.8460   13.4530 C.ar  265  BON265      0.0000
     14  C6        -3.5680    3.5940   14.0860 C.ar  265  BON265      0.0000
     15  C7        -4.2180    8.4890   11.2640 C.3   265  BON265      0.0000
     16  C8        -5.7900    8.2040   10.9680 C.3   265  BON265      0.0000
     17  C9        -3.2260    7.9560   10.2280 C.3   265  BON265      0.0000
     18  C10       -3.8420    9.9440   11.5550 C.3   265  BON265      0.0000
     19  C11       -6.7050    9.4210   11.0320 C.3   265  BON265      0.0000
     20  C12       -6.1040    7.4340    9.6790 C.3   265  BON265      0.0000
@<TRIPOS>BOND
     1    20    16    1
     2    17    15    1
     3    16    19    1
     4    16    15    1
     5    16    12    1
     6    15    18    1
     7    15    10    1
     8    12     1    1
     9    10     1    1
    10     1    11    1
    11    11    13   ar
    12    11     9   ar
    13    13    14   ar
    14     9     6   ar
    15    14     2   ar
    16     6     2   ar
    17     2     7    1
    18     7     5    1
    19     4     5    2
    20     3     5    1
    21     5     8    2
