@<TRIPOS>MOLECULE
3mo0_E11_A_1.pdb
 35 38 0 0 0
SMALL
GASTEIGER

@<TRIPOS>ATOM
      1  N1       -20.1470   -8.2050   25.6820 N.2   2001  E112001    -0.3141
      2  C2       -19.1590   -9.0950   25.8610 C.1   2001  E112001     0.2208
      3  N3       -18.1410   -9.1720   24.9910 N.2   2001  E112001    -0.3306
      4  C4       -18.0900   -8.3680   23.9200 C.2   2001  E112001     0.1376
      5  C5       -19.1060   -7.4430   23.7080 C.3   2001  E112001     0.1475
      6  C6       -20.1460   -7.3750   24.6290 C.2   2001  E112001     0.2000
      7  CAC      -17.0340   -8.4560   23.0180 C.2   2001  E112001     0.0693
      8  CAD      -17.0000   -7.6240   21.9030 C.2   2001  E112001     0.1744
      9  CAE      -18.0240   -6.7080   21.6860 C.2   2001  E112001     0.1691
     10  CAF      -19.0760   -6.6140   22.5930 C.2   2001  E112001     0.0292
     11  OAK      -18.0110   -5.9640   20.5470 O.2   2001  E112001    -0.4687
     12  OAL      -15.9540   -7.6590   21.0310 O.2   2001  E112001    -0.4683
     13  NAM      -21.0800   -6.4360   24.4980 N.pl3 2001  E112001    -0.2137
     14  NAN      -19.1860   -9.9290   26.8970 N.pl3 2001  E112001    -0.1517
     15  CAO      -20.2800   -9.8900   27.8770 C.3   2001  E112001     0.1277
     16  CAP      -21.5950  -10.2810   27.2010 C.3   2001  E112001     0.0416
     17  CAQ      -22.7100  -10.4420   28.2360 C.3   2001  E112001     0.0740
     18  NAR      -22.1600  -10.8740   29.5300 N.3   2001  E112001    -0.2703
     19  CAS      -22.7530  -12.1610   29.9230 C.3   2001  E112001     0.0897
     20  CAU      -20.6970  -11.0010   29.4540 C.3   2001  E112001     0.0897
     21  CAV      -22.1340   -6.2630   25.5080 C.3   2001  E112001     0.0975
     22  CAW      -23.5120   -6.5210   24.8930 C.3   2001  E112001     0.0390
     23  CAX      -24.6220   -6.1990   25.8960 C.3   2001  E112001     0.0741
     24  NAY      -24.5210   -4.7900   26.3030 N.3   2001  E112001    -0.2688
     25  CAZ      -23.2500   -4.5720   27.0110 C.3   2001  E112001     0.0741
     26  CBA      -22.0850   -4.8340   26.0550 C.3   2001  E112001     0.0390
     27  CBB      -25.6540   -4.4410   27.1740 C.3   2001  E112001     0.0991
     28  CBC      -25.6870   -2.9330   27.4320 C.ar  2001  E112001    -0.0061
     29  CBD      -25.8680   -2.4520   28.7250 C.ar  2001  E112001    -0.0029
     30  CBE      -25.8950   -1.0830   28.9670 C.ar  2001  E112001    -0.0003
     31  CBF      -25.7390   -0.1900   27.9130 C.ar  2001  E112001    -0.0000
     32  CBG      -25.5580   -0.6690   26.6190 C.ar  2001  E112001    -0.0003
     33  CBH      -25.5320   -2.0380   26.3780 C.ar  2001  E112001    -0.0029
     34  CBI      -15.3670   -8.9600   20.9410 C.3   2001  E112001     0.2526
     35  CBJ      -18.5990   -4.6760   20.7480 C.3   2001  E112001     0.2526
@<TRIPOS>BOND
     1    11    35    1
     2    11     9    1
     3    34    12    1
     4    12     8    1
     5     9     8    1
     6     9    10    2
     7     8     7    2
     8    10     5    1
     9     7     4    1
    10     5     4    1
    11     5     6    1
    12     4     3    2
    13    13     6    1
    14    13    21    1
    15     6     1    2
    16    22    21    1
    17    22    23    1
    18     3     2    2
    19    21    26    1
    20     1     2    2
    21     2    14    1
    22    23    24    1
    23    26    25    1
    24    24    25    1
    25    24    27    1
    26    33    32   ar
    27    33    28   ar
    28    32    31   ar
    29    14    15    1
    30    27    28    1
    31    16    15    1
    32    16    17    1
    33    28    29   ar
    34    31    30   ar
    35    17    18    1
    36    29    30   ar
    37    20    18    1
    38    18    19    1
