@<TRIPOS>MOLECULE
3mo0_SAH_A_1.pdb
 26 28 0 0 0
SMALL
GASTEIGER

@<TRIPOS>ATOM
      1  N        -10.3240    3.5710   15.5380 N.3   101  SAH101     -0.1208
      2  CA       -10.7480    3.5560   17.0070 C.3   101  SAH101      0.1952
      3  CB       -10.0540    2.6550   17.9720 C.3   101  SAH101      0.0422
      4  CG       -10.0070    1.1720   17.6890 C.3   101  SAH101      0.0597
      5  SD       -11.3170    0.5100   18.6390 S.3   101  SAH101     -0.1375
      6  C        -10.7390    5.0510   17.5140 C.2   101  SAH101      0.3819
      7  O        -10.4360    5.9680   16.7280 O.co2 101  SAH101     -0.2441
      8  OXT      -11.0760    5.2200   18.7530 O.co2 101  SAH101     -0.2441
      9  C5'      -12.4350   -0.1200   17.4550 C.3   101  SAH101      0.0899
     10  C4'      -13.4400    0.9900   16.9360 C.3   101  SAH101      0.1630
     11  O4'      -12.8230    1.6570   15.8400 O.3   101  SAH101     -0.3153
     12  C3'      -14.7930    0.5500   16.4920 C.3   101  SAH101      0.2168
     13  O3'      -15.8080    1.1510   17.2990 O.3   101  SAH101     -0.2175
     14  C2'      -14.8630    0.9550   14.9630 C.3   101  SAH101      0.2569
     15  O2'      -15.8780    1.9210   14.6950 O.3   101  SAH101     -0.2130
     16  C1'      -13.4500    1.4310   14.5330 C.3   101  SAH101      0.3185
     17  N9       -12.7410    0.5810   13.7530 N.pl3 101  SAH101     -0.1439
     18  C8       -11.5880   -0.1680   13.9230 C.3   101  SAH101      0.3377
     19  N7       -11.2130   -0.8780   12.9060 N.2   101  SAH101     -0.2095
     20  C5       -12.1960   -0.6060   11.9170 C.2   101  SAH101      0.2526
     21  C6       -12.3640   -1.0800   10.5600 C.2   101  SAH101      0.4393
     22  N6       -11.5310   -1.9430    9.9680 N.pl3 101  SAH101      0.2180
     23  N1       -13.4560   -0.5870    9.8820 N.2   101  SAH101      0.0021
     24  C2       -14.3400    0.2910   10.4320 C.3   101  SAH101      0.5254
     25  N3       -14.2090    0.7570   11.7230 N.2   101  SAH101     -0.0055
     26  C4       -13.1270    0.2760   12.4060 C.2   101  SAH101      0.3518
@<TRIPOS>BOND
     1    23    24    1
     2    23    21    2
     3    22    21    1
     4    24    25    1
     5    21    20    1
     6    25    26    2
     7    20    26    1
     8    20    19    2
     9    26    17    1
    10    19    18    1
    11    17    18    1
    12    17    16    1
    13    16    14    1
    14    16    11    1
    15    15    14    1
    16    14    12    1
    17     1     2    1
    18    11    10    1
    19    12    10    1
    20    12    13    1
    21     7     6   ar
    22    10     9    1
    23     2     6    1
    24     2     3    1
    25     9     5    1
    26     6     8   ar
    27     4     3    1
    28     4     5    1
