@<TRIPOS>MOLECULE
3mo2_E67_A_1.pdb
 40 43 0 0 0
SMALL
GASTEIGER

@<TRIPOS>ATOM
      1  N1        15.0470   42.3080   37.1920 N.2     1  E671       -0.3101
      2  C2        14.2230   41.4860   37.9290 C.1     1  E671        0.2211
      3  N3        12.8830   41.5070   37.7480 N.2     1  E671       -0.3309
      4  C4        12.3430   42.3570   36.8240 C.2     1  E671        0.1342
      5  C5        13.1820   43.2220   36.0540 C.2     1  E671        0.0762
      6  C6        14.5750   43.1740   36.2590 C.2     1  E671        0.2150
      7  CAA       10.3620   43.2720   35.6520 C.2     1  E671        0.1567
      8  CAB       11.1990   44.1350   34.8930 C.2     1  E671        0.1688
      9  CAC       12.6130   44.1010   35.1020 C.2     1  E671        0.0459
     10  CAF       10.9380   42.3840   36.6190 C.3     1  E671        0.1270
     11  OAK        9.0040   43.3390   35.3980 O.2     1  E671       -0.4762
     12  OAL       10.5970   44.9880   33.9690 O.2     1  E671       -0.4687
     13  CAM       11.3010   45.2120   32.7370 C.3     1  E671        0.2526
     14  NAN       15.4130   43.9640   35.5430 N.pl3   1  E671       -0.2106
     15  CAO       16.9050   44.0310   35.6250 C.3     1  E671        0.0978
     16  CAP       17.3560   45.4870   35.4850 C.3     1  E671        0.0390
     17  CAQ       18.9400   45.5900   35.5430 C.3     1  E671        0.0741
     18  NAR       19.5500   44.7860   34.4280 N.3     1  E671       -0.2688
     19  CAS       19.1280   43.3390   34.6100 C.3     1  E671        0.0741
     20  CAT       17.5840   43.2220   34.4980 C.3     1  E671        0.0390
     21  NAU       14.8130   40.6820   38.8140 N.pl3   1  E671       -0.1517
     22  CAV       16.2870   40.8220   38.8470 C.3     1  E671        0.1277
     23  CAW       16.7890   40.6000   40.2550 C.3     1  E671        0.0416
     24  CAX       16.7640   41.8020   41.0410 C.3     1  E671        0.0740
     25  NAY       17.2840   41.3920   42.3650 N.3     1  E671       -0.2703
     26  CAZ       16.2280   41.3690   43.3990 C.3     1  E671        0.0897
     27  CBA       18.4160   42.2920   42.7070 C.3     1  E671        0.0897
     28  CBB        8.1220   42.8910   36.4370 C.3     1  E671        0.2051
     29  CBC        6.6640   43.0270   35.9960 C.3     1  E671        0.0474
     30  CBD        6.1820   42.1310   34.8540 C.3     1  E671        0.0054
     31  CBE        6.1650   42.7430   33.4510 C.3     1  E671        0.0206
     32  CBF        5.6450   41.6570   32.4870 C.3     1  E671        0.1093
     33  NBG        5.5820   42.1280   31.1110 N.3     1  E671       -0.1314
     34  CBH       21.0470   44.9540   34.5450 C.3     1  E671        0.0991
     35  CBI       21.9460   44.2540   33.4730 C.ar    1  E671       -0.0061
     36  CBJ       23.2730   43.8550   33.8800 C.ar    1  E671       -0.0029
     37  CBK       24.1880   43.2190   32.9920 C.ar    1  E671       -0.0003
     38  CBL       23.7500   42.9570   31.5770 C.ar    1  E671       -0.0000
     39  CBM       22.3450   43.3900   31.1760 C.ar    1  E671       -0.0003
     40  CBN       21.4960   44.0210   32.1280 C.ar    1  E671       -0.0029
@<TRIPOS>BOND
     1    33    32    1
     2    39    38   ar
     3    39    40   ar
     4    38    37   ar
     5    40    35   ar
     6    32    31    1
     7    13    12    1
     8    37    36   ar
     9    31    30    1
    10    35    36   ar
    11    35    34    1
    12    12     8    1
    13    18    34    1
    14    18    19    1
    15    18    17    1
    16    20    19    1
    17    20    15    1
    18    30    29    1
    19     8     9    1
    20     8     7    2
    21     9     5    2
    22    11     7    1
    23    11    28    1
    24    16    17    1
    25    16    15    1
    26    14    15    1
    27    14     6    1
    28     7    10    1
    29    29    28    1
    30     5     6    1
    31     5     4    1
    32     6     1    2
    33    10     4    1
    34     4     3    2
    35     1     2    2
    36     3     2    2
    37     2    21    1
    38    21    22    1
    39    22    23    1
    40    23    24    1
    41    24    25    1
    42    25    27    1
    43    25    26    1
