@<TRIPOS>MOLECULE
3mo2_SAH_C_1.pdb
 26 28 0 0 0
SMALL
GASTEIGER

@<TRIPOS>ATOM
      1  N        -31.7000   26.9360    1.7890 N.3   103  SAH103     -0.1208
      2  CA       -32.0420   25.8860    0.8220 C.3   103  SAH103      0.1952
      3  CB       -30.9000   24.8810    0.7270 C.3   103  SAH103      0.0422
      4  CG       -29.8300   25.3340   -0.2600 C.3   103  SAH103      0.0597
      5  SD       -30.4060   25.3880   -1.9900 S.3   103  SAH103     -0.1375
      6  C        -33.2860   25.1520    1.3040 C.2   103  SAH103      0.3819
      7  O        -33.7730   25.5270    2.3870 O.co2 103  SAH103     -0.2441
      8  OXT      -34.2740   24.3470    1.0520 O.co2 103  SAH103     -0.2441
      9  C5'      -30.0380   27.1280   -2.4040 C.3   103  SAH103      0.0899
     10  C4'      -31.1790   28.0730   -2.0830 C.3   103  SAH103      0.1630
     11  O4'      -30.9860   28.5960   -0.7560 O.3   103  SAH103     -0.3153
     12  C3'      -31.0470   29.2620   -3.0100 C.3   103  SAH103      0.2168
     13  O3'      -31.8210   29.0230   -4.1800 O.3   103  SAH103     -0.2175
     14  C2'      -31.7070   30.3450   -2.1900 C.3   103  SAH103      0.2569
     15  O2'      -33.1160   30.1630   -2.2400 O.3   103  SAH103     -0.2130
     16  C1'      -31.2200   30.0210   -0.7870 C.3   103  SAH103      0.3185
     17  N9       -29.9270   30.6790   -0.5330 N.pl3 103  SAH103     -0.1439
     18  C8       -28.7410   30.0800   -0.5600 C.3   103  SAH103      0.3377
     19  N7       -27.7970   30.9710   -0.2820 N.2   103  SAH103     -0.2095
     20  C5       -28.3810   32.1390   -0.0740 C.2   103  SAH103      0.2526
     21  C6       -27.9110   33.4000    0.2450 C.2   103  SAH103      0.4393
     22  N6       -26.6130   33.6150    0.4070 N.pl3 103  SAH103      0.2180
     23  N1       -28.7860   34.4000    0.3890 N.2   103  SAH103      0.0021
     24  C2       -30.0820   34.1930    0.2310 C.3   103  SAH103      0.5254
     25  N3       -30.5600   33.0010   -0.0740 N.2   103  SAH103     -0.0055
     26  C4       -29.7370   31.9580   -0.2320 C.2   103  SAH103      0.3518
@<TRIPOS>BOND
     1    13    12    1
     2    12    14    1
     3    12    10    1
     4     9    10    1
     5     9     5    1
     6    15    14    1
     7    14    16    1
     8    10    11    1
     9     5     4    1
    10    16    11    1
    11    16    17    1
    12    18    17    1
    13    18    19    1
    14    17    26    1
    15    19    20    2
    16     4     3    1
    17    26    20    1
    18    26    25    2
    19    20    21    1
    20    25    24    1
    21    24    23    1
    22    21    23    2
    23    21    22    1
    24     3     2    1
    25     2     6    1
    26     2     1    1
    27     8     6   ar
    28     6     7   ar
