@<TRIPOS>MOLECULE
3mo4_TYR_A_1.pdb
 13 13 0 0 0
SMALL
GASTEIGER

@<TRIPOS>ATOM
      1  N         38.5990   10.0980   39.4520 N.3   479  TYR479     -0.1205
      2  CA        38.1850   11.1020   40.4270 C.3   479  TYR479      0.1986
      3  C         36.7750   11.6280   40.1440 C.2   479  TYR479      0.3822
      4  O         36.5540   12.4040   39.2100 O.co2 479  TYR479     -0.2440
      5  CB        39.1930   12.2610   40.4740 C.3   479  TYR479      0.0569
      6  CG        38.7440   13.4220   41.3400 C.ar  479  TYR479     -0.0200
      7  CD1       38.7320   13.3150   42.7280 C.ar  479  TYR479     -0.0009
      8  CD2       38.3250   14.6200   40.7700 C.ar  479  TYR479     -0.0009
      9  CE1       38.3180   14.3700   43.5250 C.ar  479  TYR479      0.0417
     10  CE2       37.9170   15.6850   41.5610 C.ar  479  TYR479      0.0417
     11  CZ        37.9110   15.5510   42.9370 C.ar  479  TYR479      0.1957
     12  OH        37.4940   16.5970   43.7290 O.3   479  TYR479     -0.2866
     13  OXT       35.8210   11.2910   40.8520 O.co2 479  TYR479     -0.2440
@<TRIPOS>BOND
     1     4     3   ar
     2     1     2    1
     3     3     2    1
     4     3    13   ar
     5     2     5    1
     6     5     6    1
     7     8     6   ar
     8     8    10   ar
     9     6     7   ar
    10    10    11   ar
    11     7     9   ar
    12    11     9   ar
    13    11    12    1
