@<TRIPOS>MOLECULE
3mo5_SAH_C_1.pdb
 26 28 0 0 0
SMALL
GASTEIGER

@<TRIPOS>ATOM
      1  N        -31.3250   26.9800    2.8010 N.3   103  SAH103     -0.1208
      2  CA       -31.7870   25.9380    1.9360 C.3   103  SAH103      0.1952
      3  CB       -30.7130   24.9800    1.4680 C.3   103  SAH103      0.0422
      4  CG       -29.9280   25.5180    0.3390 C.3   103  SAH103      0.0597
      5  SD       -30.3820   25.3000   -1.2130 S.3   103  SAH103     -0.1375
      6  C        -33.0310   25.2090    2.5140 C.2   103  SAH103      0.3819
      7  O        -33.4970   25.6880    3.4570 O.co2 103  SAH103     -0.2441
      8  OXT      -33.7470   24.2200    1.9240 O.co2 103  SAH103     -0.2441
      9  C5'      -30.2220   26.8350   -1.8870 C.3   103  SAH103      0.0899
     10  C4'      -31.0440   28.1120   -1.3320 C.3   103  SAH103      0.1630
     11  O4'      -30.5500   28.6560   -0.1810 O.3   103  SAH103     -0.3153
     12  C3'      -30.9090   29.1520   -2.2510 C.3   103  SAH103      0.2168
     13  O3'      -31.8690   28.9530   -3.0410 O.3   103  SAH103     -0.2175
     14  C2'      -31.4700   30.1930   -1.5210 C.3   103  SAH103      0.2569
     15  O2'      -32.8220   29.9530   -1.5690 O.3   103  SAH103     -0.2130
     16  C1'      -30.8790   29.9280   -0.1930 C.3   103  SAH103      0.3185
     17  N9       -29.7030   30.4850    0.1030 N.pl3 103  SAH103     -0.1439
     18  C8       -28.6290   29.8650    0.3080 C.3   103  SAH103      0.3377
     19  N7       -27.7590   30.6590    0.6600 N.2   103  SAH103     -0.2095
     20  C5       -28.2500   31.8370    0.6610 C.2   103  SAH103      0.2526
     21  C6       -27.8560   33.1560    0.9210 C.2   103  SAH103      0.4393
     22  N6       -26.7300   33.5620    1.2890 N.pl3 103  SAH103      0.2180
     23  N1       -28.6670   34.1290    0.7490 N.2   103  SAH103      0.0021
     24  C2       -29.8700   33.8800    0.4550 C.3   103  SAH103      0.5254
     25  N3       -30.2740   32.7030    0.1970 N.2   103  SAH103     -0.0055
     26  C4       -29.5210   31.6760    0.3110 C.2   103  SAH103      0.3518
@<TRIPOS>BOND
     1    13    12    1
     2    12    14    1
     3    12    10    1
     4     9    10    1
     5     9     5    1
     6    15    14    1
     7    14    16    1
     8    10    11    1
     9     5     4    1
    10    16    11    1
    11    16    17    1
    12    17    18    1
    13    17    26    1
    14    25    26    2
    15    25    24    1
    16    18    19    1
    17    26    20    1
    18     4     3    1
    19    24    23    1
    20    19    20    2
    21    20    21    1
    22    23    21    2
    23    21    22    1
    24     3     2    1
    25     8     6   ar
    26     2     6    1
    27     2     1    1
    28     6     7   ar
