@<TRIPOS>MOLECULE
3mo5_E72_A_1.pdb
 39 41 0 0 0
SMALL
GASTEIGER

@<TRIPOS>ATOM
      1  N1        15.1970   42.1440   37.5180 N.2   1236  E721236    -0.3141
      2  C2        14.3560   41.3740   38.2750 C.1   1236  E721236     0.2208
      3  N3        13.0140   41.4650   38.1070 N.2   1236  E721236    -0.3306
      4  C4        12.4760   42.3310   37.2080 C.2   1236  E721236     0.1376
      5  C5        13.3320   43.1580   36.4170 C.3   1236  E721236     0.1475
      6  C6        14.7210   43.0280   36.5890 C.2   1236  E721236     0.2000
      7  CAA       10.5150   43.4030   36.1750 C.2   1236  E721236     0.1742
      8  CAB       11.3730   44.2240   35.3840 C.2   1236  E721236     0.1691
      9  CAC       12.7840   44.0950   35.5120 C.2   1236  E721236     0.0292
     10  CAF       11.0730   42.4580   37.0890 C.2   1236  E721236     0.0693
     11  OAK        9.1730   43.6560   36.1750 O.2   1236  E721236    -0.4723
     12  OAL       10.8250   45.2240   34.6050 O.2   1236  E721236    -0.4687
     13  CAM       11.3050   45.1800   33.2480 C.3   1236  E721236     0.2526
     14  NAN       15.5570   43.7790   35.8520 N.pl3 1236  E721236    -0.2137
     15  CAO       17.0210   43.7170   36.0160 C.3   1236  E721236     0.0975
     16  CAP       17.6260   45.1040   35.6980 C.3   1236  E721236     0.0390
     17  CAQ       19.1680   45.0560   35.7400 C.3   1236  E721236     0.0739
     18  NAR       19.6740   44.0150   34.8080 N.3   1236  E721236    -0.2726
     19  CAS       19.1360   42.6620   35.1260 C.3   1236  E721236     0.0739
     20  CAT       17.5990   42.6700   35.0470 C.3   1236  E721236     0.0390
     21  NAU       14.8440   40.5650   39.2310 N.pl3 1236  E721236    -0.1517
     22  CAV       16.2880   40.5430   39.5630 C.3   1236  E721236     0.1277
     23  CAW       16.6090   41.7760   40.4200 C.3   1236  E721236     0.0416
     24  CAX       17.9120   41.6250   41.2160 C.3   1236  E721236     0.0740
     25  NAY       17.6870   40.9650   42.5240 N.3   1236  E721236    -0.2703
     26  CAZ       16.7140   41.7080   43.3540 C.3   1236  E721236     0.0897
     27  CBA       18.9710   40.9000   43.2390 C.3   1236  E721236     0.0897
     28  CBB        8.3840   42.5220   35.7900 C.3   1236  E721236     0.2056
     29  CBC        6.9110   42.9230   35.8610 C.3   1236  E721236     0.0474
     30  CBD        6.0390   42.0740   34.9340 C.3   1236  E721236     0.0054
     31  CBE        6.3550   42.3260   33.4590 C.3   1236  E721236     0.0206
     32  CBF        5.7920   41.1990   32.6020 C.3   1236  E721236     0.1093
     33  NBG        6.2480   41.3590   31.2230 N.3   1236  E721236    -0.1314
     34  CBH       21.1450   43.9870   34.8410 C.3   1236  E721236     0.0721
     35  CBI       21.6830   43.6650   33.4440 C.3   1236  E721236     0.0174
     36  CBJ       23.1870   43.3860   33.4730 C.3   1236  E721236     0.0030
     37  CBK       23.6980   43.0870   32.0630 C.3   1236  E721236     0.0205
     38  CBL       25.1990   42.8100   32.0650 C.3   1236  E721236     0.1093
     39  NBM       25.6420   42.5470   30.6890 N.3   1236  E721236    -0.1314
@<TRIPOS>BOND
     1    39    38    1
     2    33    32    1
     3    37    38    1
     4    37    36    1
     5    32    31    1
     6    13    12    1
     7    35    36    1
     8    35    34    1
     9    31    30    1
    10    12     8    1
    11    18    34    1
    12    18    19    1
    13    18    17    1
    14    30    29    1
    15    20    19    1
    16    20    15    1
    17     8     9    2
    18     8     7    1
    19     9     5    1
    20    16    17    1
    21    16    15    1
    22    28    29    1
    23    28    11    1
    24    14    15    1
    25    14     6    1
    26     7    11    1
    27     7    10    2
    28     5     6    1
    29     5     4    1
    30     6     1    2
    31    10     4    1
    32     4     3    2
    33     1     2    2
    34     3     2    2
    35     2    21    1
    36    21    22    1
    37    22    23    1
    38    23    24    1
    39    24    25    1
    40    25    27    1
    41    25    26    1
