@<TRIPOS>MOLECULE
3mo7_UFT_A_1.pdb
 21 22 0 0 0
SMALL
GASTEIGER

@<TRIPOS>ATOM
      1  OP3       25.9510   12.5490  -11.4170 O.3   3000  UFT3000    -0.1145
      2  P         27.0670   13.3310  -10.8090 P.3   3000  UFT3000     0.5327
      3  OP1       26.7000   14.7770  -10.5480 O.3   3000  UFT3000    -0.1145
      4  OP2       28.3580   13.1710  -11.5540 O.2   3000  UFT3000    -0.2224
      5  O5'       27.4320   12.6980   -9.3500 O.3   3000  UFT3000    -0.2675
      6  N1        24.7690    9.4960   -5.7570 N.am  3000  UFT3000    -0.1765
      7  C6        24.3640    8.9440   -4.5760 C.2   3000  UFT3000     0.0929
      8  C2        23.8650    9.9980   -6.6260 C.1   3000  UFT3000     0.2845
      9  O2        24.2330   10.4400   -7.7440 O.2   3000  UFT3000    -0.1918
     10  N3        22.5570    9.9380   -6.3350 N.2   3000  UFT3000    -0.2452
     11  C4        22.0990    9.4260   -5.1560 C.1   3000  UFT3000     0.2182
     12  O4        20.8580    9.4890   -4.9420 O.2   3000  UFT3000    -0.2085
     13  C5        23.0230    8.9140   -4.2310 C.2   3000  UFT3000     0.1242
     14  F2'       27.7690    8.3120   -6.5890 F     3000  UFT3000    -0.2299
     15  C2'       26.9890    9.2920   -7.1370 C.3   3000  UFT3000     0.2409
     16  C5'       26.4010   12.2920   -8.4430 C.3   3000  UFT3000     0.1859
     17  C4'       27.1220   11.6850   -7.2360 C.3   3000  UFT3000     0.1803
     18  O4'       26.2290   11.3100   -6.1770 O.3   3000  UFT3000    -0.3318
     19  C1'       26.1760    9.8090   -6.0100 C.3   3000  UFT3000     0.2423
     20  C3'       27.8960   10.4340   -7.5780 C.3   3000  UFT3000     0.2180
     21  O3'       29.1630   10.4180   -6.8780 O.3   3000  UFT3000    -0.2173
@<TRIPOS>BOND
     1     4     2    2
     2     1     2    1
     3     2     3    1
     4     2     5    1
     5     5    16    1
     6    16    17    1
     7     9     8    2
     8    20    17    1
     9    20    15    1
    10    20    21    1
    11    17    18    1
    12    15    14    1
    13    15    19    1
    14     8    10    2
    15     8     6   am
    16    10    11    2
    17    18    19    1
    18    19     6    1
    19     6     7    1
    20    11    12    2
    21    11    13    1
    22     7    13    2
