@<TRIPOS>MOLECULE
3moe_SPV_A_1.pdb
 10 9 0 0 0
SMALL
GASTEIGER

@<TRIPOS>ATOM
      1  C1         0.8050   -2.1970    9.8180 C.2   1200  SPV1200     0.4235
      2  O1         0.4200   -1.0160    9.9320 O.co2 1200  SPV1200    -0.2373
      3  O2'        2.0370   -2.5260    9.9950 O.co2 1200  SPV1200    -0.2373
      4  C2        -0.1160   -3.1840    9.4940 C.2   1200  SPV1200     0.2719
      5  C3         0.3710   -4.7010    9.2470 C.3   1200  SPV1200     0.1810
      6  O2        -1.3480   -2.9350    9.3130 O.2   1200  SPV1200    -0.2825
      7  S          0.8920   -5.0010    7.5910 S.3   1200  SPV1200    -0.1882
      8  O1S        1.5000   -6.2730    7.6760 O.3   1200  SPV1200    -0.3071
      9  O2S        1.8350   -3.9530    7.2490 O.3   1200  SPV1200    -0.3071
     10  O3S       -0.3240   -5.0280    6.7620 O.3   1200  SPV1200    -0.3071
@<TRIPOS>BOND
     1    10     7    1
     2     9     7    1
     3     7     8    1
     4     7     5    1
     5     5     4    1
     6     6     4    2
     7     4     1    1
     8     1     2   ar
     9     1     3   ar
