@<TRIPOS>MOLECULE
3moe_GTP_A_1.pdb
 32 34 0 0 0
SMALL
GASTEIGER

@<TRIPOS>ATOM
      1  PG        -1.8870   -2.1900   12.6160 P.3   1100  GTP1100     0.5373
      2  O1G       -2.9900   -3.1800   12.4330 O.3   1100  GTP1100    -0.1143
      3  O2G       -1.9680   -0.9560   11.7460 O.2   1100  GTP1100    -0.2221
      4  O3G       -0.5540   -2.7910   12.6240 O.3   1100  GTP1100    -0.1143
      5  O3B       -2.0630   -1.6830   14.1700 O.3   1100  GTP1100    -0.2258
      6  PB        -3.2270   -1.1050   15.0700 P.3   1100  GTP1100     0.2277
      7  O1B       -3.2140    0.3290   15.1480 O.3   1100  GTP1100    -0.4368
      8  O2B       -4.5160   -1.7020   14.6820 O.2   1100  GTP1100    -0.5168
      9  O3A       -2.8210   -1.5870   16.5710 O.3   1100  GTP1100    -0.2700
     10  PA        -2.7790   -2.9670   17.3470 P.3   1100  GTP1100     0.2189
     11  O1A       -3.8940   -3.8280   16.9050 O.2   1100  GTP1100    -0.5170
     12  O2A       -1.4640   -3.4890   17.4180 O.3   1100  GTP1100    -0.4371
     13  O5'       -3.1360   -2.2900   18.7330 O.3   1100  GTP1100    -0.3112
     14  C5'       -3.1940   -3.0920   19.9890 C.3   1100  GTP1100     0.1813
     15  C4'       -2.2350   -2.5090   20.9700 C.3   1100  GTP1100     0.1799
     16  O4'       -2.7270   -1.2530   21.4150 O.3   1100  GTP1100    -0.3326
     17  C3'       -2.1720   -3.4240   22.2210 C.3   1100  GTP1100     0.2158
     18  O3'       -0.9030   -3.1760   22.8340 O.3   1100  GTP1100    -0.2175
     19  C2'       -3.2680   -2.7870   22.9980 C.3   1100  GTP1100     0.2310
     20  O2'       -3.1990   -3.0810   24.4310 O.3   1100  GTP1100    -0.2158
     21  C1'       -3.0820   -1.3060   22.8290 C.3   1100  GTP1100     0.2293
     22  N9        -4.2270   -0.5140   22.9700 N.pl3 1100  GTP1100    -0.2354
     23  C8        -5.3180   -0.2770   22.1270 C.3   1100  GTP1100     0.2246
     24  N7        -6.1660    0.5810   22.5960 N.2   1100  GTP1100    -0.2322
     25  C5        -5.7350    0.9410   23.9040 C.2   1100  GTP1100     0.2182
     26  C6        -6.2570    1.7750   24.8690 C.1   1100  GTP1100     0.2372
     27  O6        -7.3250    2.3560   24.8370 O.2   1100  GTP1100    -0.2069
     28  N1        -5.3950    1.7850   25.9760 N.2   1100  GTP1100    -0.2485
     29  C2        -4.2830    1.1350   26.1400 C.1   1100  GTP1100     0.2531
     30  N2        -3.5460    1.3150   27.3020 N.pl3 1100  GTP1100    -0.0226
     31  N3        -3.7640    0.3240   25.1990 N.2   1100  GTP1100    -0.3074
     32  C4        -4.5480    0.2920   24.0790 C.2   1100  GTP1100     0.2300
@<TRIPOS>BOND
     1     3     1    2
     2     2     1    1
     3     1     4    1
     4     1     5    1
     5     5     6    1
     6     8     6    2
     7     6     7    1
     8     6     9    1
     9     9    10    1
    10    11    10    2
    11    10    12    1
    12    10    13    1
    13    13    14    1
    14    14    15    1
    15    15    16    1
    16    15    17    1
    17    16    21    1
    18    23    24    1
    19    23    22    1
    20    17    18    1
    21    17    19    1
    22    24    25    2
    23    21    22    1
    24    21    19    1
    25    22    32    1
    26    19    20    1
    27    25    32    1
    28    25    26    1
    29    32    31    2
    30    27    26    2
    31    26    28    2
    32    31    29    2
    33    28    29    2
    34    29    30    1
