@<TRIPOS>MOLECULE
3mof_GTP_A_1.pdb
 32 34 0 0 0
SMALL
GASTEIGER

@<TRIPOS>ATOM
      1  PG         8.0120    1.6330   49.0350 P.3   900  GTP900      0.5373
      2  O1G        8.8970    2.6540   49.7470 O.3   900  GTP900     -0.1143
      3  O2G        7.2510    2.2110   47.8750 O.2   900  GTP900     -0.2221
      4  O3G        8.8750    0.4370   48.7040 O.3   900  GTP900     -0.1143
      5  O3B        6.8070    1.2700   50.0890 O.3   900  GTP900     -0.2258
      6  PB         6.8220    0.6860   51.5820 P.3   900  GTP900      0.2277
      7  O1B        6.7700   -0.8140   51.4130 O.2   900  GTP900     -0.5168
      8  O2B        7.8960    1.2480   52.4850 O.3   900  GTP900     -0.4368
      9  O3A        5.3700    1.1050   52.1550 O.3   900  GTP900     -0.2700
     10  PA         5.0080    2.0950   53.3980 P.3   900  GTP900      0.2189
     11  O1A        5.5560    3.4650   53.1060 O.2   900  GTP900     -0.5170
     12  O2A        5.4210    1.4900   54.7180 O.3   900  GTP900     -0.4371
     13  O5'        3.4090    2.1020   53.2640 O.3   900  GTP900     -0.3112
     14  C5'        2.7660    2.6210   52.1180 C.3   900  GTP900      0.1813
     15  C4'        1.3040    2.9380   52.4610 C.3   900  GTP900      0.1799
     16  O4'        0.7440    1.8350   53.1390 O.3   900  GTP900     -0.3326
     17  C3'        1.1680    4.1220   53.4140 C.3   900  GTP900      0.2158
     18  O3'        0.0460    4.8990   53.0570 O.3   900  GTP900     -0.2175
     19  C2'        0.9590    3.4990   54.7790 C.3   900  GTP900      0.2310
     20  O2'        0.3100    4.3780   55.6990 O.3   900  GTP900     -0.2158
     21  C1'        0.2390    2.2050   54.4000 C.3   900  GTP900      0.2293
     22  N9         0.4170    1.1340   55.4080 N.pl3 900  GTP900     -0.2354
     23  C8         1.5980    0.6670   55.9400 C.3   900  GTP900      0.2246
     24  N7         1.3290   -0.2920   56.8430 N.2   900  GTP900     -0.2322
     25  C5        -0.0190   -0.4550   56.8940 C.2   900  GTP900      0.2182
     26  C6        -0.8490   -1.2940   57.6460 C.1   900  GTP900      0.2372
     27  O6        -0.3910   -2.0810   58.4630 O.2   900  GTP900     -0.2069
     28  N1        -2.2160   -1.2360   57.4650 N.2   900  GTP900     -0.2485
     29  C2        -2.7780   -0.3520   56.5660 C.1   900  GTP900      0.2531
     30  N2        -4.1210   -0.3310   56.4390 N.pl3 900  GTP900     -0.0226
     31  N3        -1.9610    0.4770   55.8270 N.2   900  GTP900     -0.3074
     32  C4        -0.6010    0.4370   55.9940 C.2   900  GTP900      0.2300
@<TRIPOS>BOND
     1     3     1    2
     2     4     1    1
     3     1     2    1
     4     1     5    1
     5     5     6    1
     6     7     6    2
     7     6     9    1
     8     6     8    1
     9    14    15    1
    10    14    13    1
    11     9    10    1
    12    15    16    1
    13    15    17    1
    14    18    17    1
    15    11    10    2
    16    16    21    1
    17    13    10    1
    18    10    12    1
    19    17    19    1
    20    21    19    1
    21    21    22    1
    22    19    20    1
    23    22    23    1
    24    22    32    1
    25    31    32    2
    26    31    29    2
    27    23    24    1
    28    32    25    1
    29    30    29    1
    30    29    28    2
    31    24    25    2
    32    25    26    1
    33    28    26    2
    34    26    27    2
