@<TRIPOS>MOLECULE
3moh_GDP_A_1.pdb
 28 30 0 0 0
SMALL
GASTEIGER

@<TRIPOS>ATOM
      1  PB        17.0330    0.9230    8.8120 P.3   1000  GDP1000     0.5373
      2  O1B       18.1910    1.3770    9.6700 O.3   1000  GDP1000    -0.1143
      3  O2B       16.9440    1.6940    7.5210 O.2   1000  GDP1000    -0.2221
      4  O3B       17.1310   -0.5670    8.5460 O.3   1000  GDP1000    -0.1143
      5  O3A       15.6140    1.1030    9.5850 O.3   1000  GDP1000    -0.2261
      6  PA        15.2320    2.3210   10.5360 P.3   1000  GDP1000     0.2231
      7  O1A       15.5890    3.5880    9.8040 O.2   1000  GDP1000    -0.5169
      8  O2A       15.8270    2.2670   11.9360 O.3   1000  GDP1000    -0.4370
      9  O5'       13.6300    2.2650   10.6410 O.3   1000  GDP1000    -0.3111
     10  C5'       12.8600    2.2720    9.4070 C.3   1000  GDP1000     0.1813
     11  C4'       11.3820    2.4710    9.7400 C.3   1000  GDP1000     0.1799
     12  O4'       11.0070    1.2700   10.4360 O.3   1000  GDP1000    -0.3326
     13  C3'       11.1760    3.6540   10.7000 C.3   1000  GDP1000     0.2158
     14  O3'        9.9790    4.3700   10.3330 O.3   1000  GDP1000    -0.2175
     15  C2'       10.9060    2.9990   12.0200 C.3   1000  GDP1000     0.2310
     16  O2'        9.9880    3.7940   12.8250 O.3   1000  GDP1000    -0.2158
     17  C1'       10.3480    1.6390   11.6220 C.3   1000  GDP1000     0.2293
     18  N9        10.6540    0.6200   12.6360 N.pl3 1000  GDP1000    -0.2354
     19  C8        11.8590    0.3270   13.1990 C.3   1000  GDP1000     0.2246
     20  N7        11.7180   -0.6770   14.1170 N.2   1000  GDP1000    -0.2322
     21  C5        10.4140   -1.0280   14.1410 C.2   1000  GDP1000     0.2182
     22  C6         9.5970   -1.9910   14.9070 C.1   1000  GDP1000     0.2372
     23  O6        10.1720   -2.7080   15.7650 O.2   1000  GDP1000    -0.2069
     24  N1         8.2770   -2.0510   14.6550 N.2   1000  GDP1000    -0.2485
     25  C2         7.6990   -1.2260   13.7450 C.1   1000  GDP1000     0.2531
     26  N2         6.3500   -1.2830   13.4920 N.pl3 1000  GDP1000    -0.0226
     27  N3         8.4010   -0.3120   13.0230 N.2   1000  GDP1000    -0.3074
     28  C4         9.7230   -0.1750   13.1840 C.2   1000  GDP1000     0.2300
@<TRIPOS>BOND
     1     3     1    2
     2     4     1    1
     3     1     5    1
     4     1     2    1
     5    10    11    1
     6    10     9    1
     7     5     6    1
     8    11    12    1
     9    11    13    1
    10     7     6    2
    11    14    13    1
    12    12    17    1
    13     6     9    1
    14     6     8    1
    15    13    15    1
    16    17    15    1
    17    17    18    1
    18    15    16    1
    19    18    28    1
    20    18    19    1
    21    27    28    2
    22    27    25    2
    23    28    21    1
    24    19    20    1
    25    26    25    1
    26    25    24    2
    27    20    21    2
    28    21    22    1
    29    24    22    2
    30    22    23    2
