@<TRIPOS>MOLECULE
3mol_HEM_A_1.pdb
 43 50 0 0 0
SMALL
GASTEIGER

@<TRIPOS>ATOM
      1  CHA       -0.9360    8.6180   22.0830 C.2   185  HEM185      0.0000
      2  CHB        0.4040    4.2210   20.6510 C.2   185  HEM185      0.0000
      3  CHC       -4.0000    2.4320   21.6490 C.2   185  HEM185      0.0000
      4  CHD       -5.4780    6.9000   22.5840 C.2   185  HEM185      0.0000
      5  C1A       -0.1910    7.5690   21.6490 C.ar  185  HEM185      0.0000
      6  C2A        1.2240    7.6070   21.4010 C.ar  185  HEM185      0.0000
      7  C3A        1.5940    6.3910   20.9930 C.ar  185  HEM185      0.0000
      8  C4A        0.4450    5.5410   21.0010 C.ar  185  HEM185      0.0000
      9  CMA        3.0140    5.9630   20.5920 C.3   185  HEM185      0.0000
     10  CAA        2.1370    8.8380   21.5490 C.3   185  HEM185      0.0000
     11  CBA        2.2250    9.5920   20.2330 C.3   185  HEM185      0.0000
     12  CGA        3.2410   10.6890   20.4050 C.2   185  HEM185      0.0000
     13  O1A        2.8970   11.7790   20.9390 O.co2 185  HEM185      0.0000
     14  O2A        4.4080   10.4610   20.0100 O.co2 185  HEM185      0.0000
     15  C1B       -0.6380    3.3500   20.7830 C.2   185  HEM185      0.0000
     16  C2B       -0.6280    1.9470   20.5000 C.2   185  HEM185      0.0000
     17  C3B       -1.8320    1.4490   20.7640 C.2   185  HEM185      0.0000
     18  C4B       -2.6780    2.5250   21.2530 C.2   185  HEM185      0.0000
     19  CMB        0.6100    1.1770   19.9760 C.3   185  HEM185      0.0000
     20  CAB       -2.2620   -0.0210   20.5990 C.2   185  HEM185      0.0000
     21  CBB       -3.5200   -0.3160   20.2640 C.2   185  HEM185      0.0000
     22  C1C       -4.8450    3.4780   21.9610 C.ar  185  HEM185      0.0000
     23  C2C       -6.2820    3.4380   22.2030 C.ar  185  HEM185      0.0000
     24  C3C       -6.6510    4.6960   22.4730 C.ar  185  HEM185      0.0000
     25  C4C       -5.4780    5.5520   22.4000 C.ar  185  HEM185      0.0000
     26  CMC       -7.1400    2.1650   22.1060 C.3   185  HEM185      0.0000
     27  CAC       -8.0390    5.2730   22.7570 C.2   185  HEM185      0.0000
     28  CBC       -9.0930    4.5250   23.1130 C.2   185  HEM185      0.0000
     29  C1D       -4.4090    7.7500   22.4880 C.2   185  HEM185      0.0000
     30  C2D       -4.4810    9.1560   22.7190 C.2   185  HEM185      0.0000
     31  C3D       -3.0930    9.7080   22.5670 C.2   185  HEM185      0.0000
     32  C4D       -2.2890    8.5580   22.2740 C.2   185  HEM185      0.0000
     33  CMD       -5.7220    9.9740   23.0230 C.3   185  HEM185      0.0000
     34  CAD       -2.6950   11.1880   22.7430 C.3   185  HEM185      0.0000
     35  CBD       -2.9930   11.9880   21.4810 C.3   185  HEM185      0.0000
     36  CGD       -2.5560   13.4160   21.7240 C.2   185  HEM185      0.0000
     37  O1D       -3.1030   14.0650   22.6540 O.co2 185  HEM185      0.0000
     38  O2D       -1.6720   13.9050   20.9700 O.co2 185  HEM185      0.0000
     39  NA        -0.6160    6.3020   21.4110 N.ar  185  HEM185      0.0000
     40  NB        -1.9030    3.6610   21.2500 N.2   185  HEM185      0.0000
     41  NC        -4.4060    4.7690   22.1090 N.ar  185  HEM185      0.0000
     42  ND        -3.0820    7.4140   22.2460 N.2   185  HEM185      0.0000
     43 FE         -2.5600    5.5410   21.4830 Fe    185  HEM185      0.0000
@<TRIPOS>BOND
     1    19    16    1
     2    14    12   ar
     3    11    12    1
     4    11    10    1
     5    21    20    2
     6    12    13   ar
     7    16    17    2
     8    16    15    1
     9     9     7    1
    10    20    17    1
    11     2    15    1
    12     2     8    2
    13    17    18    1
    14    15    40    2
    15    38    36   ar
    16     7     8   ar
    17     7     6   ar
    18     8    39   ar
    19    40    18    1
    20    40    43    1
    21    18     3    2
    22     6    10    1
    23     6     5   ar
    24    39    43    1
    25    39     5   ar
    26    35    36    1
    27    35    34    1
    28    43    41    1
    29    43    42    1
    30     3    22    1
    31     5     1    2
    32    36    37   ar
    33    22    41   ar
    34    22    23   ar
    35     1    32    1
    36    26    23    1
    37    41    25   ar
    38    23    24   ar
    39    42    32    2
    40    42    29    1
    41    32    31    1
    42    25    24   ar
    43    25     4    1
    44    24    27    1
    45    29     4    2
    46    29    30    1
    47    31    30    2
    48    31    34    1
    49    30    33    1
    50    27    28    2
