@<TRIPOS>MOLECULE
3mom_HEM_A_1.pdb
 43 50 0 0 0
SMALL
GASTEIGER

@<TRIPOS>ATOM
      1  CHA       12.7220   17.0120   -4.7640 C.2   186  HEM186      0.0000
      2  CHB        9.0860   17.0480   -7.8220 C.2   186  HEM186      0.0000
      3  CHC        9.9390   12.2600   -8.4050 C.2   186  HEM186      0.0000
      4  CHD       12.9110   12.1070   -4.7100 C.2   186  HEM186      0.0000
      5  C1A       11.7550   17.4500   -5.6190 C.ar  186  HEM186      0.0000
      6  C2A       11.4800   18.8170   -5.9290 C.ar  186  HEM186      0.0000
      7  C3A       10.4740   18.8550   -6.7970 C.ar  186  HEM186      0.0000
      8  C4A       10.0810   17.5050   -7.0220 C.ar  186  HEM186      0.0000
      9  CMA        9.8350   20.1420   -7.4050 C.3   186  HEM186      0.0000
     10  CAA       12.2850   20.0320   -5.4230 C.3   186  HEM186      0.0000
     11  CBA       11.8700   20.6590   -4.1100 C.3   186  HEM186      0.0000
     12  CGA       12.3670   22.0990   -4.2680 C.2   186  HEM186      0.0000
     13  O1A       13.6170   22.2530   -4.4280 O.co2 186  HEM186      0.0000
     14  O2A       11.5160   23.0630   -4.3030 O.co2 186  HEM186      0.0000
     15  C1B        9.0200   15.7260   -8.2670 C.2   186  HEM186      0.0000
     16  C2B        8.1700   15.2370   -9.3380 C.2   186  HEM186      0.0000
     17  C3B        8.4210   13.9210   -9.4670 C.2   186  HEM186      0.0000
     18  C4B        9.4520   13.5410   -8.5170 C.2   186  HEM186      0.0000
     19  CMB        7.1280   16.0590  -10.1780 C.3   186  HEM186      0.0000
     20  CAB        7.8120   12.9100  -10.4740 C.2   186  HEM186      0.0000
     21  CBB        6.5440   12.9820  -10.8760 C.2   186  HEM186      0.0000
     22  C1C       10.7510   11.7780   -7.4310 C.ar  186  HEM186      0.0000
     23  C2C       11.0810   10.3820   -7.1790 C.ar  186  HEM186      0.0000
     24  C3C       11.9040   10.3250   -6.1570 C.ar  186  HEM186      0.0000
     25  C4C       12.1180   11.6980   -5.7430 C.ar  186  HEM186      0.0000
     26  CMC       10.5210    9.2150   -7.9390 C.3   186  HEM186      0.0000
     27  CAC       12.5170    9.0870   -5.4750 C.2   186  HEM186      0.0000
     28  CBC       12.8790    7.9920   -6.1800 C.2   186  HEM186      0.0000
     29  C1D       13.1270   13.4260   -4.4200 C.2   186  HEM186      0.0000
     30  C2D       14.0290   13.8660   -3.4090 C.2   186  HEM186      0.0000
     31  C3D       14.0010   15.3790   -3.4200 C.2   186  HEM186      0.0000
     32  C4D       13.0490   15.7140   -4.4460 C.2   186  HEM186      0.0000
     33  CMD       14.8450   12.9570   -2.5110 C.3   186  HEM186      0.0000
     34  CAD       14.7800   16.3350   -2.4860 C.3   186  HEM186      0.0000
     35  CBD       16.1120   16.7600   -3.1330 C.3   186  HEM186      0.0000
     36  CGD       16.6490   17.9860   -2.4200 C.2   186  HEM186      0.0000
     37  O1D       15.8720   18.6600   -1.6420 O.co2 186  HEM186      0.0000
     38  O2D       17.8670   18.2890   -2.6500 O.co2 186  HEM186      0.0000
     39  NA        10.8830   16.6850   -6.3050 N.ar  186  HEM186      0.0000
     40  NB         9.8030   14.6710   -7.7710 N.2   186  HEM186      0.0000
     41  NC        11.4220   12.5670   -6.5500 N.ar  186  HEM186      0.0000
     42  ND        12.5490   14.5310   -5.0340 N.2   186  HEM186      0.0000
     43 FE         11.1620   14.5960   -6.4610 Fe    186  HEM186      0.0000
@<TRIPOS>BOND
     1    21    20    2
     2    20    17    1
     3    19    16    1
     4    17    16    2
     5    17    18    1
     6    16    15    1
     7    18     3    2
     8    18    40    1
     9     3    22    1
    10    15     2    1
    11    15    40    2
    12    26    23    1
    13     2     8    2
    14    40    43    1
    15    22    23   ar
    16    22    41   ar
    17     9     7    1
    18    23    24   ar
    19     8     7   ar
    20     8    39   ar
    21     7     6   ar
    22    41    43    1
    23    41    25   ar
    24    43    39    1
    25    43    42    1
    26    39     5   ar
    27    28    27    2
    28    24    25   ar
    29    24    27    1
    30     6     5   ar
    31     6    10    1
    32    25     4    1
    33     5     1    2
    34    10    11    1
    35    42    32    2
    36    42    29    1
    37     1    32    1
    38     4    29    2
    39    32    31    1
    40    13    12   ar
    41    29    30    1
    42    14    12   ar
    43    12    11    1
    44    31    30    2
    45    31    34    1
    46    30    33    1
    47    35    34    1
    48    35    36    1
    49    38    36   ar
    50    36    37   ar
