@<TRIPOS>MOLECULE
3moo_VEA_A_1.pdb
 43 50 0 0 0
SMALL
GASTEIGER

@<TRIPOS>ATOM
      1  O2D        1.4370    4.8970   36.9450 O.co2 911  VEA911      0.0000
      2  CGD        1.0800    5.5270   35.9250 C.2   911  VEA911      0.0000
      3  O1D        0.0140    6.1530   35.8680 O.co2 911  VEA911      0.0000
      4  CBD        1.9730    5.5340   34.7000 C.3   911  VEA911      0.0000
      5  CAD        1.3410    4.5930   33.6810 C.3   911  VEA911      0.0000
      6  C3D        2.3100    4.3200   32.5430 C.2   911  VEA911      0.0000
      7  C2D        3.0880    3.1930   32.3710 C.2   911  VEA911      0.0000
      8  C5D        3.2940    1.9310   33.1970 C.3   911  VEA911      0.0000
      9  C4D        2.5690    5.1930   31.3880 C.2   911  VEA911      0.0000
     10  CHA        1.9870    6.4530   31.1470 C.2   911  VEA911      0.0000
     11  N1         3.6770    4.6550   30.6450 N.2   911  VEA911      0.0000
     12  C1D        3.8740    3.3430   31.1320 C.2   911  VEA911      0.0000
     13  CHD        4.7640    2.5000   30.5370 C.2   911  VEA911      0.0000
     14  C4C        5.4440    2.7450   29.3650 C.ar  911  VEA911      0.0000
     15  C3C        6.4090    1.8130   28.7900 C.ar  911  VEA911      0.0000
     16  CAC        6.6980    0.5070   29.4540 C.2   911  VEA911      0.0000
     17  CBC        7.1260   -0.5100   28.7220 C.2   911  VEA911      0.0000
     18  C2C        6.9350    2.2980   27.6650 C.ar  911  VEA911      0.0000
     19  C5C        7.9470    1.7700   26.6640 C.3   911  VEA911      0.0000
     20 FE          4.1750    5.4520   28.9220 Fe    911  VEA911      0.0000
     21  N2         3.0600    7.0740   28.9980 N.ar  911  VEA911      0.0000
     22  C1A        2.2400    7.3140   30.0590 C.ar  911  VEA911      0.0000
     23  N3         5.2910    3.7990   28.5160 N.ar  911  VEA911      0.0000
     24  C1C        6.2480    3.5470   27.6160 C.ar  911  VEA911      0.0000
     25  O          6.5680    4.2530   26.5470 O.3   911  VEA911      0.0000
     26  C4B        5.9590    5.3540   26.3150 C.2   911  VEA911      0.0000
     27  C3B        6.2700    6.2170   25.1970 C.2   911  VEA911      0.0000
     28  CAB        7.1840    5.9290   24.0720 C.2   911  VEA911      0.0000
     29  CBB        7.7450    6.9130   23.3920 C.2   911  VEA911      0.0000
     30  C2B        5.4700    7.2740   25.3810 C.2   911  VEA911      0.0000
     31  C5B        5.2240    8.5760   24.6170 C.3   911  VEA911      0.0000
     32  N4         5.2580    5.8300   27.3020 N.am  911  VEA911      0.0000
     33  C1B        4.7750    7.0140   26.6500 C.2   911  VEA911      0.0000
     34  CHB        3.8960    8.0420   27.0470 C.2   911  VEA911      0.0000
     35  C4A        3.0750    8.0990   28.1560 C.ar  911  VEA911      0.0000
     36  C3A        2.1110    9.0800   28.6960 C.ar  911  VEA911      0.0000
     37  C5A        1.8300   10.3790   27.9590 C.3   911  VEA911      0.0000
     38  C2A        1.5780    8.5910   29.8540 C.ar  911  VEA911      0.0000
     39  CAA        0.5630    9.2550   30.7860 C.3   911  VEA911      0.0000
     40  CBA       -0.7980    8.5700   30.7420 C.3   911  VEA911      0.0000
     41  CGA       -1.4660    8.7740   29.3950 C.2   911  VEA911      0.0000
     42  O1A       -2.2780    7.9220   29.0000 O.co2 911  VEA911      0.0000
     43  O2A       -1.1990    9.7890   28.7200 O.co2 911  VEA911      0.0000
@<TRIPOS>BOND
     1    29    28    2
     2    28    27    1
     3    31    30    1
     4    27    30    2
     5    27    26    1
     6    30    33    1
     7    26    25    2
     8    26    32   am
     9    25    24    1
    10    33    34    1
    11    33    32    2
    12    19    18    1
    13    34    35    2
    14    32    20    1
    15    24    18   ar
    16    24    23   ar
    17    18    15   ar
    18    37    36    1
    19    35    36   ar
    20    35    21   ar
    21    23    20    1
    22    23    14   ar
    23    36    38   ar
    24    43    41   ar
    25    17    16    2
    26    15    14   ar
    27    15    16    1
    28    20    21    1
    29    20    11    1
    30    21    22   ar
    31    42    41   ar
    32    14    13    1
    33    41    40    1
    34    38    22   ar
    35    38    39    1
    36    22    10    2
    37    13    12    2
    38    11    12    1
    39    11     9    2
    40    40    39    1
    41    12     7    1
    42    10     9    1
    43     9     6    1
    44     7     6    2
    45     7     8    1
    46     6     5    1
    47     5     4    1
    48     4     2    1
    49     3     2   ar
    50     2     1   ar
