@<TRIPOS>MOLECULE
3mos_TPP_A_1.pdb
 26 27 0 0 0
SMALL
GASTEIGER

@<TRIPOS>ATOM
      1  N1'       -6.8160    9.3060    8.7050 N.2   700  TPP700     -0.1861
      2  C2'       -5.5080    9.4400    9.1580 C.1   700  TPP700      0.0663
      3  CM2       -4.3480    9.4360    8.2260 C.3   700  TPP700      0.1291
      4  N3'       -5.2920    9.5470   10.5060 N.2   700  TPP700     -0.3368
      5  C4'       -6.3450    9.5370   11.3890 C.2   700  TPP700      0.2292
      6  N4'       -5.9790    9.7150   12.7000 N.pl3 700  TPP700     -0.0925
      7  C5'       -7.7070    9.3760   10.9470 C.2   700  TPP700      0.0654
      8  C6'       -7.8950    9.2410    9.5580 C.2   700  TPP700      0.1115
      9  C7'       -8.9590    9.3700   11.8370 C.3   700  TPP700      0.1237
     10  N3        -8.8300    8.2910   12.8150 N.pl3 700  TPP700     -0.2970
     11  C2        -8.1350    8.2770   14.0280 C.3   700  TPP700      0.1543
     12  S1        -8.1490    6.8430   14.8180 S.3   700  TPP700     -0.0951
     13  C5        -9.0070    6.1960   13.5580 C.2   700  TPP700      0.0164
     14  C4        -9.3070    7.0740   12.5330 C.2   700  TPP700      0.0279
     15  CM4      -10.1210    6.7950   11.2940 C.3   700  TPP700      0.0473
     16  C6        -9.4570    4.7520   13.5880 C.3   700  TPP700      0.0661
     17  C7        -8.1950    3.9060   13.7280 C.3   700  TPP700      0.1544
     18  O7        -8.6290    2.5540   13.8110 O.3   700  TPP700     -0.3134
     19  PA        -7.5450    1.4190   14.0940 P.3   700  TPP700      0.2230
     20  O1A       -8.1460    0.0730   13.8910 O.3   700  TPP700     -0.4370
     21  O2A       -6.3690    1.6130   13.2280 O.2   700  TPP700     -0.5169
     22  O3A       -7.0510    1.6340   15.6320 O.3   700  TPP700     -0.2261
     23  PB        -7.7910    1.1230   16.9750 P.3   700  TPP700      0.5373
     24  O1B       -8.9490    0.1940   16.6990 O.2   700  TPP700     -0.2221
     25  O2B       -6.7220    0.3780   17.7590 O.3   700  TPP700     -0.1143
     26  O3B       -8.2240    2.3820   17.7070 O.3   700  TPP700     -0.1143
@<TRIPOS>BOND
     1     3     2    1
     2     1     2    2
     3     1     8    1
     4     2     4    2
     5     8     7    2
     6     4     5    2
     7     7     5    1
     8     7     9    1
     9    15    14    1
    10     5     6    1
    11     9    10    1
    12    14    10    1
    13    14    13    2
    14    10    11    1
    15    21    19    2
    16    13    16    1
    17    13    12    1
    18    16    17    1
    19    17    18    1
    20    18    19    1
    21    20    19    1
    22    11    12    1
    23    19    22    1
    24    22    23    1
    25    24    23    2
    26    23    26    1
    27    23    25    1
