@<TRIPOS>MOLECULE
3mou_HEM_A_1.pdb
 43 50 0 0 0
SMALL
GASTEIGER

@<TRIPOS>ATOM
      1  CHA        7.2460   -4.5450   11.5790 C.2   139  HEM139      0.0000
      2  CHB        8.5100   -0.0790   10.1370 C.2   139  HEM139      0.0000
      3  CHC        4.4850    1.7630   12.1340 C.2   139  HEM139      0.0000
      4  CHD        3.0750   -2.7010   13.3910 C.2   139  HEM139      0.0000
      5  C1A        7.9720   -3.4970   11.0620 C.ar  139  HEM139      0.0000
      6  C2A        9.3090   -3.5800   10.5120 C.ar  139  HEM139      0.0000
      7  C3A        9.6590   -2.3470   10.1090 C.ar  139  HEM139      0.0000
      8  C4A        8.5580   -1.4410   10.3970 C.ar  139  HEM139      0.0000
      9  CMA       11.0030   -1.9460    9.4560 C.3   139  HEM139      0.0000
     10  CAA       10.1410   -4.8820   10.4130 C.3   139  HEM139      0.0000
     11  CBA       11.1790   -5.0300   11.5220 C.3   139  HEM139      0.0000
     12  CGA       12.0940   -6.1950   11.2150 C.2   139  HEM139      0.0000
     13  O1A       12.4560   -6.9330   12.1640 O.co2 139  HEM139      0.0000
     14  O2A       12.4790   -6.3950   10.0310 O.co2 139  HEM139      0.0000
     15  C1B        7.5630    0.8290   10.5800 C.2   139  HEM139      0.0000
     16  C2B        7.6120    2.2770   10.4650 C.2   139  HEM139      0.0000
     17  C3B        6.4980    2.7900   11.0150 C.2   139  HEM139      0.0000
     18  C4B        5.7060    1.6760   11.5020 C.2   139  HEM139      0.0000
     19  CMB        8.7660    3.0740    9.8200 C.3   139  HEM139      0.0000
     20  CAB        6.0980    4.2860   11.1510 C.2   139  HEM139      0.0000
     21  CBB        6.4660    5.2360   10.2760 C.2   139  HEM139      0.0000
     22  C1C        3.7740    0.7180   12.6870 C.ar  139  HEM139      0.0000
     23  C2C        2.5880    0.8520   13.5070 C.ar  139  HEM139      0.0000
     24  C3C        2.1980   -0.3780   13.8660 C.ar  139  HEM139      0.0000
     25  C4C        3.1230   -1.3290   13.2820 C.ar  139  HEM139      0.0000
     26  CMC        1.9350    2.2100   13.8650 C.3   139  HEM139      0.0000
     27  CAC        0.9730   -0.7540   14.7340 C.2   139  HEM139      0.0000
     28  CBC        0.7590   -0.1390   15.8950 C.2   139  HEM139      0.0000
     29  C1D        4.0700   -3.5920   13.0640 C.2   139  HEM139      0.0000
     30  C2D        4.0440   -4.9950   13.4010 C.2   139  HEM139      0.0000
     31  C3D        5.3400   -5.5770   12.8350 C.2   139  HEM139      0.0000
     32  C4D        6.0260   -4.4640   12.2160 C.2   139  HEM139      0.0000
     33  CMD        2.9290   -5.7420   14.1670 C.3   139  HEM139      0.0000
     34  CAD        5.8150   -7.0450   12.9360 C.3   139  HEM139      0.0000
     35  CBD        6.0970   -7.3990   14.3950 C.3   139  HEM139      0.0000
     36  CGD        7.3620   -6.7380   14.8820 C.2   139  HEM139      0.0000
     37  O1D        8.3610   -6.6720   14.1180 O.co2 139  HEM139      0.0000
     38  O2D        7.3740   -6.2720   16.0490 O.co2 139  HEM139      0.0000
     39  NA         7.5440   -2.1860   10.9720 N.ar  139  HEM139      0.0000
     40  NB         6.3740    0.5030   11.2090 N.2   139  HEM139      0.0000
     41  NC         4.0710   -0.6290   12.5690 N.ar  139  HEM139      0.0000
     42  ND         5.2410   -3.3220   12.3520 N.2   139  HEM139      0.0000
     43 FE          5.7780   -1.4250   11.7400 Fe    139  HEM139      0.0000
@<TRIPOS>BOND
     1     9     7    1
     2    19    16    1
     3    14    12   ar
     4     7     8   ar
     5     7     6   ar
     6     2     8    2
     7     2    15    1
     8    21    20    2
     9     8    39   ar
    10    10     6    1
    11    10    11    1
    12    16    15    1
    13    16    17    2
    14     6     5   ar
    15    15    40    2
    16    39     5   ar
    17    39    43    1
    18    17    20    1
    19    17    18    1
    20     5     1    2
    21    40    18    1
    22    40    43    1
    23    12    11    1
    24    12    13   ar
    25    18     3    2
    26     1    32    1
    27    43    42    1
    28    43    41    1
    29     3    22    1
    30    32    42    2
    31    32    31    1
    32    42    29    1
    33    41    22   ar
    34    41    25   ar
    35    22    23   ar
    36    31    34    1
    37    31    30    2
    38    34    35    1
    39    29     4    2
    40    29    30    1
    41    25     4    1
    42    25    24   ar
    43    30    33    1
    44    23    26    1
    45    23    24   ar
    46    24    27    1
    47    37    36   ar
    48    35    36    1
    49    27    28    2
    50    36    38   ar
