@<TRIPOS>MOLECULE
3mow_B2B_A_1.pdb
 46 45 0 0 0
SMALL
GASTEIGER

@<TRIPOS>ATOM
      1  C1        25.2430    3.7560    1.0170 C.2     1  B2B1        0.3838
      2  O1        24.5640    3.2490    2.0320 O.co2   1  B2B1       -0.2409
      3  C2        26.4190    4.7260    1.3070 C.2     1  B2B1        0.0626
      4  O2        24.8270    3.3970   -0.2250 O.co2   1  B2B1       -0.2409
      5  C3        27.7720    4.3630    1.1640 C.2     1  B2B1        0.0904
      6  O3        28.5900    2.0620    1.5760 O.co2   1  B2B1       -0.2408
      7  C4        28.1560    2.9430    0.6960 C.2     1  B2B1        0.3861
      8  O4        32.1820    5.6790    2.4230 O.3     1  B2B1       -0.4521
      9  C5        25.9500    6.1020    1.7600 C.3     1  B2B1        0.0379
     10  O5        29.6830    5.4610    0.2520 O.3     1  B2B1       -0.2175
     11  C6        28.9420    5.3260    1.4530 C.3     1  B2B1        0.1916
     12  O6        30.7050    7.0060    3.5860 O.2     1  B2B1       -0.2500
     13  C7        29.9120    4.9420    2.5870 C.3     1  B2B1        0.1471
     14  O7        35.7710    5.3490    5.2680 O.3     1  B2B1       -0.2226
     15  C8        30.9550    6.0110    2.9350 C.2     1  B2B1        0.3198
     16  O8        35.5310    6.3700    7.9870 O.2     1  B2B1       -0.2959
     17  C9        33.3700    5.9340    3.1570 C.3     1  B2B1        0.1713
     18  O9        33.9230    2.9680    9.1120 O.3     1  B2B1       -0.2227
     19  C10       33.5080    4.9440    4.3650 C.3     1  B2B1        0.0710
     20  C11       34.3770    5.5180    5.5310 C.3     1  B2B1        0.1627
     21  O11       34.5520   -5.3700   18.9890 O.co2   1  B2B1       -0.2405
     22  C12       34.0580    4.8510    6.8920 C.3     1  B2B1        0.0975
     23  O12       33.2760   -7.0560   18.3750 O.co2   1  B2B1       -0.2405
     24  C13       34.6080    5.5960    8.1300 C.2     1  B2B1        0.1553
     25  O13       28.0840    2.5700   -0.6000 O.co2   1  B2B1       -0.2408
     26  C14       34.0320    5.3750    9.5520 C.3     1  B2B1        0.0880
     27  C15       33.2750    4.0270    9.7880 C.3     1  B2B1        0.1588
     28  C16       33.1760    3.6580   11.2750 C.3     1  B2B1        0.0333
     29  C17       34.4100    2.8950   11.8470 C.3     1  B2B1        0.0026
     30  C18       34.1920    1.3640   12.1150 C.3     1  B2B1        0.0001
     31  C19       32.7090    0.9670   12.3890 C.3     1  B2B1        0.0000
     32  C20       32.2490    1.1170   13.8570 C.3     1  B2B1        0.0003
     33  C21       34.5030    5.9440    2.1140 C.3     1  B2B1        0.0474
     34  C22       34.0270    3.5300    3.9370 C.3     1  B2B1        0.0063
     35  C23       33.1390    6.5720    9.9570 C.3     1  B2B1        0.0104
     36  C24       34.7330    0.5290   10.9360 C.3     1  B2B1        0.0000
     37  C25       30.7360    1.3940   13.9680 C.3     1  B2B1        0.0000
     38  C26       32.6390   -0.1570   14.6800 C.3     1  B2B1        0.0047
     39  C27       31.9270   -1.4680   14.2760 C.3     1  B2B1        0.0257
     40  C28       32.1460   -2.5570   15.2980 C.2     1  B2B1       -0.0304
     41  C29       32.2280   -3.9020   15.1560 C.2     1  B2B1       -0.0262
     42  C30       32.4730   -4.6440   16.4200 C.2     1  B2B1        0.0022
     43  C31       33.6770   -5.1280   16.8290 C.2     1  B2B1        0.0858
     44  C32       32.1090   -4.6960   13.8650 C.3     1  B2B1        0.0260
     45  C33       30.8820   -5.5530   13.5470 C.3     1  B2B1        0.0050
     46  C34       33.8520   -5.8600   18.1110 C.2     1  B2B1        0.3880
@<TRIPOS>BOND
     1    25     7   ar
     2     4     1   ar
     3    10    11    1
     4     7     5    1
     5     7     6   ar
     6     1     3    1
     7     1     2   ar
     8     5     3    2
     9     5    11    1
    10     3     9    1
    11    11    13    1
    12    33    17    1
    13     8    15    1
    14     8    17    1
    15    13    15    1
    16    15    12    2
    17    17    19    1
    18    34    19    1
    19    19    20    1
    20    14    20    1
    21    20    22    1
    22    22    24    1
    23    16    24    2
    24    24    26    1
    25    18    27    1
    26    26    27    1
    27    26    35    1
    28    27    28    1
    29    36    30    1
    30    28    29    1
    31    29    30    1
    32    30    31    1
    33    31    32    1
    34    45    44    1
    35    32    37    1
    36    32    38    1
    37    44    41    1
    38    39    38    1
    39    39    40    1
    40    41    40    2
    41    41    42    1
    42    42    43    2
    43    43    46    1
    44    46    23   ar
    45    46    21   ar
