@<TRIPOS>MOLECULE
3moz_5IP_A_1.pdb
 32 32 0 0 0
SMALL
GASTEIGER

@<TRIPOS>ATOM
      1  O46       -4.4280   -1.8280    9.9130 O.2   401  5IP401     -0.2224
      2  P6        -5.3970   -2.3050   10.9550 P.3   401  5IP401      0.5327
      3  O26       -6.3570   -3.2480   10.2460 O.3   401  5IP401     -0.1145
      4  O36       -6.2440   -1.1870   11.4960 O.3   401  5IP401     -0.1145
      5  O16       -4.4250   -3.0940   12.0530 O.3   401  5IP401     -0.2675
      6  C6        -5.0500   -3.9520   13.0850 C.3   401  5IP401      0.1864
      7  C1        -4.7230   -5.4140   12.6710 C.3   401  5IP401      0.1863
      8  O11       -5.2840   -5.7440   11.3680 O.3   401  5IP401     -0.2675
      9  P1        -4.1790   -6.7720   10.5540 P.3   401  5IP401      0.5327
     10  O41       -4.3110   -6.3230    9.0950 O.2   401  5IP401     -0.2224
     11  O31       -2.7340   -6.5890   11.0400 O.3   401  5IP401     -0.1145
     12  O21       -4.6510   -8.2120   10.7050 O.3   401  5IP401     -0.1145
     13  C5        -4.3870   -3.6870   14.4680 C.3   401  5IP401      0.1890
     14  O15       -4.5110   -2.3320   15.0390 O.3   401  5IP401     -0.2674
     15  P5        -5.8690   -1.6180   15.1060 P.3   401  5IP401      0.5327
     16  O45       -7.0900   -2.4980   15.2520 O.3   401  5IP401     -0.1145
     17  O35       -5.8090   -0.7960   16.3720 O.3   401  5IP401     -0.1145
     18  O25       -5.9280   -0.6410   13.9260 O.2   401  5IP401     -0.2224
     19  C4        -4.8490   -4.7090   15.5280 C.3   401  5IP401      0.2119
     20  O14       -4.0660   -4.5160   16.7230 O.3   401  5IP401     -0.2177
     21  C3        -4.6230   -6.1620   15.0450 C.3   401  5IP401      0.1890
     22  O13       -5.3250   -7.0200   15.9870 O.3   401  5IP401     -0.2674
     23  P3        -4.4460   -8.0680   16.8390 P.3   401  5IP401      0.5327
     24  O43       -5.4910   -8.9560   17.4680 O.3   401  5IP401     -0.1145
     25  O33       -3.7350   -7.3560   17.9830 O.3   401  5IP401     -0.1145
     26  O23       -3.4730   -8.7540   15.8820 O.2   401  5IP401     -0.2224
     27  C2        -5.2960   -6.3950   13.6910 C.3   401  5IP401      0.1864
     28  O12       -6.7130   -6.0490   13.7970 O.3   401  5IP401     -0.2675
     29  P2        -7.8560   -7.1810   13.5300 P.3   401  5IP401      0.5327
     30  O22       -7.6520   -8.2010   14.6320 O.3   401  5IP401     -0.1145
     31  O32       -7.6230   -7.7530   12.1400 O.2   401  5IP401     -0.2224
     32  O42       -9.1440   -6.4420   13.8820 O.3   401  5IP401     -0.1145
@<TRIPOS>BOND
     1    10     9    2
     2     1     2    2
     3     3     2    1
     4     9    12    1
     5     9    11    1
     6     9     8    1
     7     2     4    1
     8     2     5    1
     9     8     7    1
    10     5     6    1
    11    31    29    2
    12     7     6    1
    13     7    27    1
    14     6    13    1
    15    29    28    1
    16    29    32    1
    17    29    30    1
    18    27    28    1
    19    27    21    1
    20    18    15    2
    21    13    14    1
    22    13    19    1
    23    14    15    1
    24    21    19    1
    25    21    22    1
    26    15    16    1
    27    15    17    1
    28    19    20    1
    29    26    23    2
    30    22    23    1
    31    23    24    1
    32    23    25    1
