@<TRIPOS>MOLECULE
3mp1_MAL_A_1.pdb
 23 24 0 0 0
SMALL
GASTEIGER

@<TRIPOS>ATOM
      1  C1       -23.5220    0.4720   -9.5980 C.3   600  MAL600      0.2695
      2  C2       -22.5580   -0.6840   -9.3230 C.3   600  MAL600      0.2406
      3  C3       -22.5930   -0.9870   -7.8060 C.3   600  MAL600      0.2198
      4  C4       -22.0870    0.2880   -7.0640 C.3   600  MAL600      0.2144
      5  C5       -23.0470    1.4520   -7.4220 C.3   600  MAL600      0.1835
      6  C6       -22.5840    2.7360   -6.7430 C.3   600  MAL600      0.2142
      7  O1       -24.7770   -0.0120   -9.0830 O.3   600  MAL600     -0.3257
      8  O2       -23.0110   -1.8160  -10.0270 O.3   600  MAL600     -0.2149
      9  O3       -21.7280   -2.0880   -7.5170 O.3   600  MAL600     -0.2174
     10  O4       -22.0970    0.0680   -5.6280 O.3   600  MAL600     -0.2176
     11  O5       -23.0800    1.6750   -8.8750 O.3   600  MAL600     -0.3256
     12  O6       -23.4870    3.7630   -7.1360 O.3   600  MAL600     -0.2176
     13  C1'      -28.6730   -0.0680  -10.6790 C.3   600  MAL600      0.3023
     14  C2'      -27.5250   -0.6860  -11.5200 C.3   600  MAL600      0.2433
     15  C3'      -26.3380   -1.0390  -10.6250 C.3   600  MAL600      0.2168
     16  C4'      -25.8740    0.2720   -9.9470 C.3   600  MAL600      0.1804
     17  C5'      -27.0520    0.8060   -9.1030 C.3   600  MAL600      0.1804
     18  C6'      -26.6470    2.1010   -8.3900 C.3   600  MAL600      0.2141
     19  O1'      -29.2480   -0.9960   -9.7800 O.3   600  MAL600     -0.1869
     20  O2'      -28.0020   -1.8470  -12.1820 O.3   600  MAL600     -0.2148
     21  O3'      -25.3010   -1.5950  -11.4470 O.3   600  MAL600     -0.2175
     22  O5'      -28.1960    1.1130   -9.9520 O.3   600  MAL600     -0.3237
     23  O6'      -27.7590    2.5370   -7.6030 O.3   600  MAL600     -0.2176
@<TRIPOS>BOND
     1    20    14    1
     2    14    13    1
     3    14    15    1
     4    21    15    1
     5    13    22    1
     6    13    19    1
     7    15    16    1
     8     8     2    1
     9    22    17    1
    10    16    17    1
    11    16     7    1
    12     1     2    1
    13     1     7    1
    14     1    11    1
    15     2     3    1
    16    17    18    1
    17    11     5    1
    18    18    23    1
    19     3     9    1
    20     3     4    1
    21     5     4    1
    22     5     6    1
    23    12     6    1
    24     4    10    1
