@<TRIPOS>MOLECULE
3mp1_III_P_1.pdb
 44 43 0 0 0
SMALL
GASTEIGER

@<TRIPOS>ATOM
      1  N         -7.7920    7.4200   27.1630 N.3     1  ALA1       -0.1231
      2  CA        -9.1430    7.9980   26.9040 C.3     1  ALA1        0.1694
      3  C         -9.5450    8.8840   28.0760 C.2     1  ALA1        0.2592
      4  O         -9.0570    8.7060   29.1970 O.2     1  ALA1       -0.2718
      5  CB       -10.1810    6.8750   26.7120 C.3     1  ALA1        0.0304
      6  N        -10.4270    9.8370   27.8060 N.am    2  ARG2       -0.1966
      7  CA       -10.9280   10.7580   28.8140 C.3     2  ARG2        0.1729
      8  C        -12.2400   10.1870   29.3300 C.2     2  ARG2        0.2617
      9  O        -13.0850    9.7810   28.5340 O.2     2  ARG2       -0.2715
     10  CB       -11.1620   12.1280   28.1760 C.3     2  ARG2        0.0348
     11  CG        -9.9010   12.9770   28.0200 C.3     2  ARG2        0.0492
     12  CD        -9.7950   13.9560   29.1820 C.3     2  ARG2        0.2205
     13  NE        -8.7090   14.9170   29.0240 N.pl3   2  ARG2       -0.0865
     14  CZ        -8.4320   15.8690   29.9120 C.cat   2  ARG2        0.5346
     15  NH1       -9.1650   15.9760   31.0180 N.pl3   2  ARG2        0.1354
     16  NH2       -7.4310   16.7170   29.6930 N.pl3   2  ARG2        0.1354
     17  N        -12.4280   10.1570   30.6500 N.am    3  THR3       -0.1937
     18  CA       -13.6630    9.5940   31.2020 C.3     3  THR3        0.2028
     19  C        -14.5880   10.5570   31.9550 C.2     3  THR3        0.2642
     20  O        -14.2840   11.7400   32.1480 O.2     3  THR3       -0.2714
     21  CB       -13.3660    8.3920   32.1430 C.3     3  THR3        0.1808
     22  OG1      -12.7510    8.8590   33.3520 O.3     3  THR3       -0.2208
     23  CG2      -12.4400    7.3850   31.4530 C.3     3  THR3        0.0379
     24  N        -15.7280   10.0160   32.3800 N.am    4  LYS4       -0.1963
     25  CA       -16.7460   10.7670   33.1000 C.3     4  LYS4        0.1728
     26  CB       -18.0910   10.0470   32.9540 C.3     4  LYS4        0.0310
     27  CG       -19.2730   10.7700   33.5570 C.3     4  LYS4        0.0001
     28  CD       -20.3640    9.7910   33.9580 C.3     4  LYS4       -0.0222
     29  CE       -21.0100    9.0800   32.7590 C.3     4  LYS4       -0.0733
     30  NZ       -21.9520    8.0530   33.2490 N.4     4  LYS4        0.3857
     31  C        -16.4030   10.9280   34.5860 C.2     4  LYS4        0.2616
     32  O        -15.5560   10.2070   35.1270 O.2     4  LYS4       -0.2715
     33  CM1      -22.9660    8.6970   34.1470 C.3     4  LYS4       -0.0960
     34  CM2      -21.1670    7.0340   33.9780 C.3     4  LYS4       -0.0960
     35  CM3      -22.7190    7.2860   32.2430 C.3     4  LYS4       -0.0960
     36  N        -17.0860   11.8740   35.2330 N.am    5  GLN5       -0.1977
     37  CA       -16.9120   12.1900   36.6570 C.3     5  GLN5        0.1601
     38  C        -15.5880   12.9240   36.8890 C.2     5  GLN5        0.2287
     39  O        -15.3320   13.8840   36.1300 O.2     5  GLN5       -0.2864
     40  CB       -16.9550   10.9140   37.5180 C.3     5  GLN5        0.0394
     41  CG       -17.2030   11.1720   39.0070 C.3     5  GLN5        0.0908
     42  CD       -16.3410   10.3030   39.9300 C.2     5  GLN5        0.2608
     43  OE1      -15.8030    9.2660   39.5150 O.2     5  GLN5       -0.2717
     44  NE2      -16.2180   10.7190   41.1980 N.am    5  GLN5       -0.0878
@<TRIPOS>BOND
     1     5     2    1
     2     2     1    1
     3     2     3    1
     4     6     3   am
     5     6     7    1
     6    11    10    1
     7    11    12    1
     8     3     4    2
     9    10     7    1
    10     9     8    2
    11     7     8    1
    12    13    12    1
    13    13    14    2
    14     8    17   am
    15    16    14    1
    16    14    15    1
    17    17    18    1
    18    18    19    1
    19    18    21    1
    20    23    21    1
    21    19    20    2
    22    19    24   am
    23    21    22    1
    24    35    30    1
    25    24    25    1
    26    29    30    1
    27    29    28    1
    28    26    25    1
    29    26    27    1
    30    25    31    1
    31    30    34    1
    32    30    33    1
    33    27    28    1
    34    31    32    2
    35    31    36   am
    36    36    37    1
    37    39    38    2
    38    37    38    1
    39    37    40    1
    40    40    41    1
    41    41    42    1
    42    43    42    2
    43    42    44   am
