@<TRIPOS>MOLECULE
3mp3_3HG_A_1.pdb
 10 9 0 0 0
SMALL
GASTEIGER

@<TRIPOS>ATOM
      1  O2        63.7550   -4.5300   16.7390 O.3   400  3HG400     -0.2219
      2  O1        66.3730   -1.2510   17.9660 O.co2 400  3HG400     -0.2456
      3  C1        65.7920   -2.2410   17.4660 C.2   400  3HG400      0.3675
      4  O3        66.2130   -2.6260   16.3490 O.co2 400  3HG400     -0.2456
      5  C2        64.6400   -2.8910   18.2870 C.3   400  3HG400      0.1474
      6  C3        63.4300   -3.4080   17.4640 C.3   400  3HG400      0.1745
      7  C4        62.2760   -3.6590   18.4930 C.3   400  3HG400      0.1474
      8  C5        60.9630   -4.1790   17.8710 C.2   400  3HG400      0.3675
      9  O4        59.9050   -3.7650   18.3710 O.co2 400  3HG400     -0.2456
     10  O5        60.9150   -4.9940   16.9130 O.co2 400  3HG400     -0.2456
@<TRIPOS>BOND
     1     4     3   ar
     2     1     6    1
     3    10     8   ar
     4     6     5    1
     5     6     7    1
     6     3     2   ar
     7     3     5    1
     8     8     9   ar
     9     8     7    1
