@<TRIPOS>MOLECULE
3mp6_MAL_A_1.pdb
 23 24 0 0 0
SMALL
GASTEIGER

@<TRIPOS>ATOM
      1  C1       -26.3210    0.0580    9.6550 C.3   600  MAL600      0.2695
      2  C2       -27.2550   -1.1010    9.3090 C.3   600  MAL600      0.2406
      3  C3       -27.2810   -1.2870    7.7890 C.3   600  MAL600      0.2198
      4  C4       -27.7490   -0.0010    7.1160 C.3   600  MAL600      0.2144
      5  C5       -26.8810    1.1840    7.5750 C.3   600  MAL600      0.1835
      6  C6       -27.4680    2.5120    7.0860 C.3   600  MAL600      0.2142
      7  O1       -25.0070   -0.2690    9.2340 O.3   600  MAL600     -0.3257
      8  O2       -26.8040   -2.2630    9.9660 O.3   600  MAL600     -0.2149
      9  O3       -28.1500   -2.3570    7.4770 O.3   600  MAL600     -0.2174
     10  O4       -27.6810   -0.1380    5.7070 O.3   600  MAL600     -0.2176
     11  O5       -26.7740    1.2270    8.9960 O.3   600  MAL600     -0.3256
     12  O6       -26.5120    3.5580    7.2360 O.3   600  MAL600     -0.2176
     13  C1'      -21.1470   -0.2120   10.7050 C.3   600  MAL600      0.3023
     14  C2'      -22.1990   -0.8590   11.6070 C.3   600  MAL600      0.2433
     15  C3'      -23.4710   -1.1560   10.8220 C.3   600  MAL600      0.2168
     16  C4'      -23.9510    0.1040   10.0930 C.3   600  MAL600      0.1804
     17  C5'      -22.8100    0.6960    9.2590 C.3   600  MAL600      0.1804
     18  C6'      -23.2120    2.0330    8.6480 C.3   600  MAL600      0.2141
     19  O1'      -20.7020   -1.1210    9.7180 O.3   600  MAL600     -0.1869
     20  O2'      -21.6270   -2.0420   12.1090 O.3   600  MAL600     -0.2148
     21  O3'      -24.4790   -1.6560   11.6770 O.3   600  MAL600     -0.2175
     22  O5'      -21.6780    0.9430   10.0900 O.3   600  MAL600     -0.3237
     23  O6'      -22.3920    2.3890    7.5370 O.3   600  MAL600     -0.2176
@<TRIPOS>BOND
     1    10     4    1
     2     6    12    1
     3     6     5    1
     4     4     5    1
     5     4     3    1
     6     9     3    1
     7    23    18    1
     8     5    11    1
     9     3     2    1
    10    18    17    1
    11    11     1    1
    12     7     1    1
    13     7    16    1
    14    17    22    1
    15    17    16    1
    16     2     1    1
    17     2     8    1
    18    19    13    1
    19    22    13    1
    20    16    15    1
    21    13    14    1
    22    15    14    1
    23    15    21    1
    24    14    20    1
