@<TRIPOS>MOLECULE
3mp6_III_P_1.pdb
 34 33 0 0 0
SMALL
GASTEIGER

@<TRIPOS>ATOM
      1  N        -42.3320    7.5900  -27.0590 N.3     1  ALA1       -0.1231
      2  CA       -41.2030    8.4440  -26.5890 C.3     1  ALA1        0.1694
      3  C        -40.8360    9.4780  -27.6450 C.2     1  ALA1        0.2592
      4  O        -41.2310    9.3480  -28.8040 O.2     1  ALA1       -0.2718
      5  CB       -39.9980    7.5740  -26.2380 C.3     1  ALA1        0.0304
      6  N        -40.1150   10.5180  -27.2400 N.am    2  ARG2       -0.1966
      7  CA       -39.5390   11.4480  -28.2090 C.3     2  ARG2        0.1729
      8  C        -38.2900   10.7980  -28.7910 C.2     2  ARG2        0.2617
      9  O        -37.4950   10.2110  -28.0520 O.2     2  ARG2       -0.2715
     10  CB       -39.1890   12.7800  -27.5510 C.3     2  ARG2        0.0348
     11  CG       -40.3730   13.5110  -26.9390 C.3     2  ARG2        0.0492
     12  CD       -39.9700   14.9290  -26.5730 C.3     2  ARG2        0.2205
     13  NE       -41.0900   15.6700  -26.0000 N.pl3   2  ARG2       -0.0865
     14  CZ       -42.0040   16.3340  -26.7060 C.cat   2  ARG2        0.5346
     15  NH1      -41.9490   16.3710  -28.0350 N.pl3   2  ARG2        0.1354
     16  NH2      -42.9800   16.9670  -26.0760 N.pl3   2  ARG2        0.1354
     17  N        -38.1220   10.8860  -30.1120 N.am    3  THR3       -0.1937
     18  CA       -37.0060   10.2190  -30.8080 C.3     3  THR3        0.2028
     19  C        -36.1080   11.1820  -31.5970 C.2     3  THR3        0.2642
     20  O        -36.4250   12.3670  -31.7250 O.2     3  THR3       -0.2714
     21  CB       -37.5210    9.1400  -31.7760 C.3     3  THR3        0.1808
     22  OG1      -38.3700    9.7500  -32.7580 O.3     3  THR3       -0.2208
     23  CG2      -38.2840    8.0700  -31.0330 C.3     3  THR3        0.0379
     24  N        -34.8320   10.6130  -32.0340 N.am    4  LYS4       -0.1977
     25  CA       -33.9210   11.4370  -32.8410 C.3     4  LYS4        0.1596
     26  CB       -32.4780   11.1850  -32.3990 C.3     4  LYS4        0.0297
     27  CG       -31.7460   10.2880  -33.3990 C.3     4  LYS4        0.0037
     28  CD       -30.5740    9.5650  -32.7320 C.3     4  LYS4        0.0174
     29  CE       -29.4110    9.3870  -33.7100 C.3     4  LYS4        0.0722
     30  NZ       -28.6690    8.1640  -33.3730 N.3     4  LYS4       -0.2703
     31  CH1      -29.5740    7.0080  -33.4340 C.3     4  LYS4        0.0897
     32  CH2      -28.1170    8.2840  -32.0160 C.3     4  LYS4        0.0897
     33  C        -34.0740   11.0700  -34.3190 C.2     4  LYS4        0.2287
     34  O        -35.1420   10.6490  -34.7600 O.2     4  LYS4       -0.2864
@<TRIPOS>BOND
     1    34    33    2
     2    33    25    1
     3    29    30    1
     4    29    28    1
     5    31    30    1
     6    27    28    1
     7    27    26    1
     8    30    32    1
     9    25    26    1
    10    25    24    1
    11    22    21    1
    12    24    19   am
    13    21    23    1
    14    21    18    1
    15    20    19    2
    16    19    18    1
    17    18    17    1
    18    17     8   am
    19     4     3    2
    20     8     7    1
    21     8     9    2
    22     7    10    1
    23     7     6    1
    24    15    14    1
    25     3     6   am
    26     3     2    1
    27    10    11    1
    28     1     2    1
    29    11    12    1
    30    14    16    1
    31    14    13    2
    32     2     5    1
    33    12    13    1
