@<TRIPOS>MOLECULE
3mp8_4BZ_A_1.pdb
 11 11 0 0 0
SMALL
GASTEIGER

@<TRIPOS>ATOM
      1  OA        15.7280   -0.4150  -25.3640 O.3   1275  4BZ1275    -0.2152
      2  CB        16.0910   -0.1970  -23.9990 C.3   1275  4BZ1275     0.2086
      3  CG        17.4350   -0.8260  -23.7570 C.ar  1275  4BZ1275     0.0106
      4  CD1       17.5220   -2.2080  -23.8570 C.ar  1275  4BZ1275    -0.0015
      5  CD2       18.5680   -0.0650  -23.4250 C.ar  1275  4BZ1275    -0.0015
      6  CE1       18.7310   -2.8480  -23.6440 C.ar  1275  4BZ1275     0.0077
      7  CE2       19.7930   -0.7100  -23.1920 C.ar  1275  4BZ1275     0.0077
      8  CZ        19.8650   -2.1090  -23.3030 C.ar  1275  4BZ1275     0.0975
      9  CH        21.1490   -2.8550  -23.0810 C.2   1275  4BZ1275     0.4766
     10  NQ1       21.2490   -4.1370  -23.4690 N.pl3 1275  4BZ1275     0.2047
     11  NQ2       22.1850   -2.2320  -22.5190 N.pl3 1275  4BZ1275     0.2047
@<TRIPOS>BOND
     1     1     2    1
     2     2     3    1
     3     4     3   ar
     4     4     6   ar
     5     3     5   ar
     6     6     8   ar
     7    10     9    2
     8     5     7   ar
     9     8     7   ar
    10     8     9    1
    11     9    11    1
