@<TRIPOS>MOLECULE
3mp8_MAL_A_1.pdb
 23 24 0 0 0
SMALL
GASTEIGER

@<TRIPOS>ATOM
      1  C1        14.8900    1.0190    4.8530 C.3     1  MAL1        0.2695
      2  C2        13.9370    2.1070    4.3480 C.3     1  MAL1        0.2406
      3  C3        13.7220    3.1370    5.4600 C.3     1  MAL1        0.2198
      4  C4        13.1870    2.4160    6.6940 C.3     1  MAL1        0.2144
      5  C5        14.1220    1.2700    7.1030 C.3     1  MAL1        0.1835
      6  C6        13.5470    0.4910    8.2820 C.3     1  MAL1        0.2142
      7  O1        16.1620    1.5820    5.1250 O.3     1  MAL1       -0.3257
      8  O2        14.4760    2.7090    3.1960 O.3     1  MAL1       -0.2149
      9  O3        12.8190    4.1550    5.0780 O.3     1  MAL1       -0.2174
     10  O4        13.0550    3.3490    7.7430 O.3     1  MAL1       -0.2176
     11  O5        14.3560    0.3950    6.0050 O.3     1  MAL1       -0.3256
     12  O6        14.5230   -0.3990    8.8030 O.3     1  MAL1       -0.2176
     13  C1'       20.1400    0.6740    4.2360 C.3     1  MAL1        0.3023
     14  C2'       19.1550    0.6900    3.0660 C.3     1  MAL1        0.2433
     15  C3'       17.8920    1.4600    3.4540 C.3     1  MAL1        0.2168
     16  C4'       17.2900    0.8390    4.7170 C.3     1  MAL1        0.1804
     17  C5'       18.3420    0.8080    5.8340 C.3     1  MAL1        0.1804
     18  C6'       17.8020    0.0980    7.0770 C.3     1  MAL1        0.2141
     19  O1'       20.6200    1.9840    4.4720 O.3     1  MAL1       -0.1869
     20  O2'       19.7560    1.2810    1.9360 O.3     1  MAL1       -0.2148
     21  O3'       16.9540    1.4380    2.3960 O.3     1  MAL1       -0.2175
     22  O5'       19.5220    0.1330    5.3970 O.3     1  MAL1       -0.3237
     23  O6'       18.7410    0.2590    8.1310 O.3     1  MAL1       -0.2176
@<TRIPOS>BOND
     1    20    14    1
     2    21    15    1
     3    14    15    1
     4    14    13    1
     5     8     2    1
     6    15    16    1
     7    13    19    1
     8    13    22    1
     9     2     1    1
    10     2     3    1
    11    16     7    1
    12    16    17    1
    13     1     7    1
    14     1    11    1
    15     9     3    1
    16    22    17    1
    17     3     4    1
    18    17    18    1
    19    11     5    1
    20     4     5    1
    21     4    10    1
    22    18    23    1
    23     5     6    1
    24     6    12    1
