@<TRIPOS>MOLECULE
3mpa_SB2_A_1.pdb
 27 30 0 0 0
SMALL
GASTEIGER

@<TRIPOS>ATOM
      1  O2         2.0620   -5.9260  -24.2070 O.2   361  SB2361     -0.2514
      2  C1         3.4310   -6.1300  -21.7260 C.3   361  SB2361      0.1110
      3  S1         1.8090   -6.3290  -22.4670 S.O   361  SB2361      0.0658
      4  CA1        0.1530   -2.6710  -21.8830 C.ar  361  SB2361      0.0126
      5  CA2        0.9830   -3.7040  -22.3110 C.ar  361  SB2361      0.0094
      6  CA3        0.7290   -5.0010  -21.8770 C.ar  361  SB2361      0.0562
      7  CA4       -0.3450   -5.2550  -21.0160 C.ar  361  SB2361      0.0094
      8  CA5       -1.1790   -4.2160  -20.5910 C.ar  361  SB2361      0.0126
      9  CA6       -0.9260   -2.9120  -21.0330 C.ar  361  SB2361      0.0856
     10  NB1       -3.1190    4.3250  -21.8910 N.ar  361  SB2361     -0.2423
     11  CB2       -3.1370    3.3510  -22.8050 C.ar  361  SB2361      0.0990
     12  CB3       -2.9550    2.0290  -22.4030 C.ar  361  SB2361      0.0233
     13  CB4       -2.8160    1.7210  -21.0430 C.ar  361  SB2361      0.0362
     14  CB5       -2.8030    2.7650  -20.1130 C.ar  361  SB2361      0.0233
     15  CB6       -2.9560    4.0780  -20.5700 C.ar  361  SB2361      0.0990
     16  NC1       -1.7470   -0.5260  -21.2730 N.2   361  SB2361     -0.3372
     17  CC2       -1.7370   -1.7160  -20.6370 C.1   361  SB2361      0.1379
     18  NC3       -2.5450   -1.7530  -19.5380 N.2   361  SB2361     -0.3372
     19  CC4       -3.1110   -0.5320  -19.5140 C.2   361  SB2361      0.1740
     20  CC5       -2.5860    0.3000  -20.6330 C.2   361  SB2361      0.1741
     21  CD1       -3.6440   -0.3930  -17.1040 C.ar  361  SB2361      0.0050
     22  CD2       -4.4690   -0.0020  -16.0660 C.ar  361  SB2361      0.0297
     23  CD3       -5.6550    0.6570  -16.3480 C.ar  361  SB2361      0.1401
     24  CD4       -6.0430    0.9160  -17.6600 C.ar  361  SB2361      0.0297
     25  CD5       -5.2160    0.5240  -18.7120 C.ar  361  SB2361      0.0050
     26  CD6       -4.0300   -0.1520  -18.4230 C.ar  361  SB2361      0.0333
     27  FD3       -6.4180    1.0480  -15.3250 F     361  SB2361     -0.2042
@<TRIPOS>BOND
     1     1     3    2
     2    11    12   ar
     3    11    10   ar
     4     3     6    1
     5     3     2    1
     6    12    13   ar
     7     5     4   ar
     8     5     6   ar
     9    10    15   ar
    10     4     9   ar
    11     6     7   ar
    12    16    17    2
    13    16    20    2
    14    13    20    1
    15    13    14   ar
    16     9    17    1
    17     9     8   ar
    18     7     8   ar
    19    17    18    2
    20    20    19    1
    21    15    14   ar
    22    18    19    2
    23    19    26    1
    24    25    26   ar
    25    25    24   ar
    26    26    21   ar
    27    24    23   ar
    28    21    22   ar
    29    23    22   ar
    30    23    27    1
