@<TRIPOS>MOLECULE
3mpb_FRU_A_1.pdb
 12 12 0 0 0
SMALL
GASTEIGER

@<TRIPOS>ATOM
      1  C1        40.8100   18.0580   36.6940 C.3   229  FRU229      0.2434
      2  C2        39.8180   19.0260   36.0460 C.3   229  FRU229      0.2807
      3  C3        38.3670   18.7280   36.4010 C.3   229  FRU229      0.2409
      4  C4        37.6570   19.3740   35.2290 C.3   229  FRU229      0.2168
      5  C5        38.5440   18.9140   34.0780 C.3   229  FRU229      0.1836
      6  C6        38.4210   19.8020   32.8630 C.3   229  FRU229      0.2142
      7  O1        42.0700   18.7440   36.7330 O.3   229  FRU229     -0.2148
      8  O2        40.1240   20.3740   36.4560 O.3   229  FRU229     -0.1896
      9  O3        37.9650   19.2990   37.6460 O.3   229  FRU229     -0.2149
     10  O4        36.3000   18.9460   35.1270 O.3   229  FRU229     -0.2175
     11  O5        39.8840   18.9420   34.6050 O.3   229  FRU229     -0.3253
     12  O6        37.2900   19.3480   32.1070 O.3   229  FRU229     -0.2176
@<TRIPOS>BOND
     1    12     6    1
     2     6     5    1
     3     5    11    1
     4     5     4    1
     5    11     2    1
     6    10     4    1
     7     4     3    1
     8     2     3    1
     9     2     8    1
    10     2     1    1
    11     3     9    1
    12     1     7    1
