@<TRIPOS>MOLECULE
3mpe_N2A_A_1.pdb
 46 51 0 0 0
SMALL
GASTEIGER

@<TRIPOS>ATOM
      1  C1        13.7970  -19.5210  -39.2860 C.ar  901  N2A901      0.0592
      2  C2        12.9870  -18.8040  -40.1480 C.ar  901  N2A901      0.0302
      3  C3        11.6850  -18.5280  -39.7760 C.ar  901  N2A901      0.0805
      4  C4        11.1690  -18.9980  -38.4660 C.ar  901  N2A901      0.0798
      5  C5        12.0240  -19.7120  -37.6310 C.ar  901  N2A901      0.0196
      6  C6        13.3320  -19.9770  -38.0460 C.ar  901  N2A901      0.0130
      7  N13        9.8940  -18.5810  -38.3900 N.ar  901  N2A901     -0.2779
      8  C14        9.6670  -17.9330  -39.5350 C.ar  901  N2A901      0.3315
      9  N15       10.7010  -17.8860  -40.3840 N.ar  901  N2A901     -0.2817
     10  C20       10.8420  -17.2630  -41.7200 C.3   901  N2A901      0.0926
     11  C22        8.9440  -18.7890  -37.2720 C.3   901  N2A901      0.1351
     12 CL24       15.4660  -19.8470  -39.8350 Cl    901  N2A901     -0.0822
     13  C26        9.5870  -17.3680  -42.5670 C.3   901  N2A901      0.0401
     14  C27        9.9290  -16.8500  -43.9510 C.3   901  N2A901      0.0740
     15  N28       10.5010  -15.5200  -43.7920 N.3   901  N2A901     -0.2725
     16  C29       10.6660  -14.8500  -42.5060 C.3   901  N2A901      0.0740
     17  C30       11.2650  -15.8200  -41.5050 C.3   901  N2A901      0.0401
     18  C37       10.9550  -14.8460  -44.9860 C.3   901  N2A901      0.0739
     19  C39       10.1890  -13.5340  -45.1070 C.3   901  N2A901      0.0389
     20  C41       10.6730  -12.7950  -46.3430 C.3   901  N2A901      0.0967
     21  N43       12.1330  -12.5660  -46.3190 N.am  901  N2A901     -0.2582
     22  C45       12.6700  -11.5330  -45.5220 C.2   901  N2A901      0.2364
     23  C46       14.1490  -11.3240  -45.5530 C.3   901  N2A901      0.1397
     24  C47       14.8970  -12.1760  -46.3630 C.2   901  N2A901      0.0820
     25  N48       14.2860  -13.1300  -47.0860 N.2   901  N2A901     -0.2503
     26  C49       12.9530  -13.3230  -47.0690 C.3   901  N2A901      0.2216
     27  O56       11.9050  -10.8280  -44.8200 O.2   901  N2A901     -0.2741
     28  O58        8.5250  -17.4020  -39.7870 O.2   901  N2A901     -0.2463
     29  C60       14.8130  -10.2600  -44.7430 C.ar  901  N2A901     -0.0084
     30  C62       14.1420   -9.0660  -44.4790 C.ar  901  N2A901     -0.0026
     31  C63       14.7230   -8.0530  -43.7250 C.ar  901  N2A901      0.0108
     32  C64       15.9990   -8.2060  -43.2210 C.ar  901  N2A901      0.0553
     33  C65       16.7300   -9.4640  -43.5010 C.ar  901  N2A901      0.0097
     34  C66       16.1090  -10.4530  -44.2530 C.ar  901  N2A901     -0.0051
     35 CL73       16.7330   -6.8920  -42.2550 Cl    901  N2A901     -0.0825
     36  C75       18.1290   -9.6890  -42.9880 C.3   901  N2A901      0.1426
     37  N77       18.0970  -10.6440  -41.9060 N.am  901  N2A901     -0.1968
     38  C79       19.0660  -11.5290  -41.7080 C.2   901  N2A901      0.2651
     39  O81       20.0310  -11.6070  -42.4490 O.2   901  N2A901     -0.2684
     40  C83       18.9670  -12.4430  -40.5250 C.ar  901  N2A901      0.0552
     41  C85       20.0960  -12.7170  -39.7540 C.ar  901  N2A901      0.0069
     42  C86       19.9950  -13.5660  -38.6520 C.ar  901  N2A901      0.0298
     43  C87       18.7630  -14.1260  -38.3220 C.ar  901  N2A901      0.1401
     44  C88       17.6390  -13.8480  -39.0890 C.ar  901  N2A901      0.0298
     45  C89       17.7420  -13.0090  -40.1870 C.ar  901  N2A901      0.0069
     46  F96       18.6510  -14.9390  -37.2630 F     901  N2A901     -0.2042
@<TRIPOS>BOND
     1    25    26    1
     2    25    24    2
     3    26    21    1
     4    24    23    1
     5    20    21    1
     6    20    19    1
     7    21    22   am
     8    23    22    1
     9    23    29    1
    10    22    27    2
    11    19    18    1
    12    18    15    1
    13    29    30   ar
    14    29    34   ar
    15    30    31   ar
    16    34    33   ar
    17    14    15    1
    18    14    13    1
    19    15    16    1
    20    31    32   ar
    21    33    32   ar
    22    33    36    1
    23    32    35    1
    24    36    37    1
    25    13    10    1
    26    16    17    1
    27    39    38    2
    28    37    38   am
    29    10    17    1
    30    10     9    1
    31    38    40    1
    32    40    45   ar
    33    40    41   ar
    34     9     3   ar
    35     9     8   ar
    36    45    44   ar
    37     2     3   ar
    38     2     1   ar
    39    12     1    1
    40    28     8    2
    41     3     4   ar
    42    41    42   ar
    43     8     7   ar
    44     1     6   ar
    45    44    43   ar
    46    42    43   ar
    47     4     7   ar
    48     4     5   ar
    49     7    11    1
    50    43    46    1
    51     6     5   ar
