@<TRIPOS>MOLECULE
3mpf_N2D_A_1.pdb
 45 50 0 0 0
SMALL
GASTEIGER

@<TRIPOS>ATOM
      1  C1        13.6350  -19.0700  -39.6250 C.ar  901  N2D901      0.0592
      2  C2        12.8250  -18.3130  -40.4720 C.ar  901  N2D901      0.0302
      3 CL2        15.3390  -19.3590  -40.0780 Cl    901  N2D901     -0.0822
      4  C3        11.4970  -18.0840  -40.1280 C.ar  901  N2D901      0.0805
      5 CL3        16.4150   -6.8980  -42.5170 Cl    901  N2D901     -0.0825
      6  C4        10.9860  -18.6580  -38.8520 C.ar  901  N2D901      0.0798
      7  C5        11.8340  -19.4060  -38.0420 C.ar  901  N2D901      0.0196
      8  C6        13.1540  -19.6110  -38.4310 C.ar  901  N2D901      0.0130
      9  N13        9.7040  -18.3010  -38.7490 N.ar  901  N2D901     -0.2779
     10  C14        9.4560  -17.5830  -39.8420 C.ar  901  N2D901      0.3315
     11  N15       10.4710  -17.4250  -40.6890 N.ar  901  N2D901     -0.2817
     12  C22        8.7730  -18.6400  -37.6440 C.3   901  N2D901      0.1351
     13  O24        8.3000  -17.0720  -40.0820 O.2   901  N2D901     -0.2463
     14  C26       10.4170  -16.6590  -41.9630 C.3   901  N2D901      0.0926
     15  C28       11.4630  -15.5610  -42.0010 C.3   901  N2D901      0.0401
     16  C29       11.1650  -14.6280  -43.1640 C.3   901  N2D901      0.0740
     17  N30       10.7870  -15.3710  -44.3740 N.3   901  N2D901     -0.2725
     18  C31       10.3980  -16.7860  -44.4590 C.3   901  N2D901      0.0740
     19  C32       10.6650  -17.5420  -43.1630 C.3   901  N2D901      0.0401
     20  C39       10.7560  -14.6170  -45.6180 C.3   901  N2D901      0.0742
     21  C41       12.1630  -14.6580  -46.2020 C.3   901  N2D901      0.0438
     22  C43       12.3340  -13.5980  -47.2870 C.3   901  N2D901      0.1322
     23  N45       13.6980  -13.0740  -47.2350 N.ar  901  N2D901     -0.2166
     24  N47       13.9850  -12.0170  -46.3580 N.ar  901  N2D901     -0.1668
     25  C48       15.2350  -11.5170  -46.2790 C.ar  901  N2D901      0.1011
     26  C49       16.2580  -12.0390  -47.0760 C.ar  901  N2D901      0.0258
     27  C50       16.0050  -13.0880  -47.9520 C.ar  901  N2D901      0.0638
     28  C51       14.7260  -13.6180  -48.0390 C.ar  901  N2D901      0.2765
     29  C58       15.5250  -10.3930  -45.3510 C.ar  901  N2D901      0.0191
     30  C60       14.5890   -9.3690  -45.1780 C.ar  901  N2D901      0.0024
     31  C61       14.8500   -8.3020  -44.3190 C.ar  901  N2D901      0.0112
     32  C62       16.0530   -8.2540  -43.6220 C.ar  901  N2D901      0.0554
     33  C63       17.0460   -9.3380  -43.8080 C.ar  901  N2D901      0.0101
     34  C64       16.7410  -10.3770  -44.6710 C.ar  901  N2D901     -0.0002
     35  O71       14.5050  -14.5610  -48.8300 O.2   901  N2D901     -0.2655
     36  C75       18.3690   -9.3430  -43.0820 C.3   901  N2D901      0.1426
     37  N77       18.3230  -10.3420  -42.0280 N.am  901  N2D901     -0.1968
     38  C79       19.2390  -11.3000  -41.8870 C.2   901  N2D901      0.2651
     39  C81       19.1340  -12.2460  -40.7240 C.ar  901  N2D901      0.0551
     40  C83       20.2680  -12.5430  -39.9680 C.ar  901  N2D901      0.0046
     41  C84       20.1820  -13.4170  -38.8870 C.ar  901  N2D901      0.0001
     42  C85       18.9600  -13.9980  -38.5580 C.ar  901  N2D901      0.0000
     43  C86       17.8270  -13.7030  -39.3130 C.ar  901  N2D901      0.0001
     44  C87       17.9120  -12.8270  -40.3920 C.ar  901  N2D901      0.0046
     45  O94       20.1720  -11.4240  -42.6660 O.2   901  N2D901     -0.2684
@<TRIPOS>BOND
     1    35    28    2
     2    28    27   ar
     3    28    23   ar
     4    27    26   ar
     5    22    23    1
     6    22    21    1
     7    23    24   ar
     8    26    25   ar
     9    24    25   ar
    10    25    29    1
    11    21    20    1
    12    20    17    1
    13    29    30   ar
    14    29    34   ar
    15    30    31   ar
    16    34    33   ar
    17    18    17    1
    18    18    19    1
    19    17    16    1
    20    31    32   ar
    21    33    32   ar
    22    33    36    1
    23    32     5    1
    24    16    15    1
    25    19    14    1
    26    36    37    1
    27    45    38    2
    28    37    38   am
    29    15    14    1
    30    14    11    1
    31    38    39    1
    32    39    44   ar
    33    39    40   ar
    34    11     4   ar
    35    11    10   ar
    36     2     4   ar
    37     2     1   ar
    38    44    43   ar
    39     4     6   ar
    40    13    10    2
    41     3     1    1
    42    40    41   ar
    43    10     9   ar
    44     1     8   ar
    45    43    42   ar
    46    41    42   ar
    47     6     9   ar
    48     6     7   ar
    49     9    12    1
    50     8     7   ar
