@<TRIPOS>MOLECULE
3mpm_5LK_A_1.pdb
 30 34 0 0 0
SMALL
GASTEIGER

@<TRIPOS>ATOM
      1  N1        24.6870    9.6500   51.4490 N.ar    1  5LK1       -0.1965
      2  N2        25.9150    9.3540   50.9360 N.2     1  5LK1       -0.1650
      3  C3        26.6370   10.3950   50.8150 C.2     1  5LK1        0.1058
      4  C5        25.8180   11.5150   51.3210 C.3     1  5LK1        0.1239
      5  C6        24.6630   10.9320   51.7140 C.ar    1  5LK1        0.1516
      6  N7        23.4910   11.5300   52.3120 N.ar    1  5LK1       -0.2283
      7  C8        22.5310   10.7910   52.7290 C.ar    1  5LK1        0.1033
      8  C10       22.6640    9.3290   52.4820 C.ar    1  5LK1        0.0568
      9  C11       23.7270    8.8310   51.7920 C.ar    1  5LK1        0.1877
     10  N12       23.9550    7.5550   51.5150 N.2     1  5LK1       -0.1269
     11  C15       21.5350    8.4950   53.0140 C.ar    1  5LK1        0.0047
     12  C16       21.8240    7.8230   54.2230 C.ar    1  5LK1        0.0034
     13  C18       20.8580    7.0210   54.8150 C.ar    1  5LK1        0.0420
     14  C20       19.5960    6.9170   54.2090 C.ar    1  5LK1        0.1957
     15  C21       19.2960    7.6000   53.0050 C.ar    1  5LK1        0.0420
     16  C23       20.2790    8.3910   52.4020 C.ar    1  5LK1        0.0034
     17  O25       18.6440    6.1160   54.8220 O.3     1  5LK1       -0.2866
     18  C27       26.2360   12.9720   51.3990 C.ar    1  5LK1       -0.0084
     19  C28       27.5350   13.3580   51.0020 C.ar    1  5LK1        0.0110
     20  C30       27.9680   14.6930   51.0920 C.ar    1  5LK1        0.0476
     21  C31       27.0660   15.6430   51.5830 C.ar    1  5LK1        0.0145
     22  C33       25.7780   15.2940   51.9940 C.ar    1  5LK1        0.0010
     23  C35       25.3650   13.9530   51.9010 C.ar    1  5LK1       -0.0034
     24  N37       29.2810   15.1130   50.6720 N.pl3   1  5LK1       -0.3047
     25  C38       30.3270   14.0690   50.5900 C.3     1  5LK1        0.1081
     26  C41       31.7380   14.6790   50.3250 C.3     1  5LK1        0.0938
     27  N44       31.7450   15.5040   49.0860 N.3     1  5LK1       -0.2686
     28  C45       30.7210   16.5760   49.1240 C.3     1  5LK1        0.0938
     29  C48       29.3230   15.9910   49.4720 C.3     1  5LK1        0.1081
     30  C51       33.1210   16.0000   48.8020 C.3     1  5LK1        0.0897
@<TRIPOS>BOND
     1    30    27    1
     2    27    28    1
     3    27    26    1
     4    28    29    1
     5    29    24    1
     6    26    25    1
     7    25    24    1
     8    24    20    1
     9     3     2    2
    10     3     4    1
    11     2     1    1
    12    19    20   ar
    13    19    18   ar
    14    20    21   ar
    15     4    18    1
    16     4     5    1
    17    18    23   ar
    18     1     5   ar
    19     1     9   ar
    20    10     9    2
    21    21    22   ar
    22     5     6   ar
    23     9     8   ar
    24    23    22   ar
    25     6     7   ar
    26    16    15   ar
    27    16    11   ar
    28     8     7   ar
    29     8    11    1
    30    15    14   ar
    31    11    12   ar
    32    14    13   ar
    33    14    17    1
    34    12    13   ar
