@<TRIPOS>MOLECULE
3mpn_MTN_A_1.pdb
 12 12 0 0 0
SMALL
GASTEIGER

@<TRIPOS>ATOM
      1  O1        47.4120   35.9240   26.9990 O.3   801  MTN801     -0.1175
      2  N1        47.6580   35.8040   25.6260 N.4   801  MTN801     -0.1311
      3  C1        48.9860   35.4720   25.0040 C.3   801  MTN801      0.0909
      4  C2        48.6870   35.5610   23.4890 C.2   801  MTN801     -0.0160
      5  C3        47.4080   35.9340   23.2770 C.2   801  MTN801     -0.0205
      6  C4        46.6450   36.1270   21.9330 C.3   801  MTN801      0.0917
      7  S1        47.6220   36.4950   20.3950 S.3   801  MTN801     -0.0773
      8  C5        46.6760   36.1380   24.6260 C.3   801  MTN801      0.0886
      9  C6        45.4480   35.2480   24.7320 C.3   801  MTN801      0.0227
     10  C7        46.3630   37.6110   24.8850 C.3   801  MTN801      0.0227
     11  C8        50.0260   36.5270   25.4490 C.3   801  MTN801      0.0230
     12  C9        49.4480   34.0410   25.3560 C.3   801  MTN801      0.0230
@<TRIPOS>BOND
     1     7     6    1
     2     6     5    1
     3     5     4    2
     4     5     8    1
     5     4     3    1
     6     8     9    1
     7     8    10    1
     8     8     2    1
     9     3    12    1
    10     3    11    1
    11     3     2    1
    12     2     1    1
