@<TRIPOS>MOLECULE
3mpq_MTN_A_1.pdb
 12 12 0 0 0
SMALL
GASTEIGER

@<TRIPOS>ATOM
      1  O1        29.2410   27.5300   -4.7490 O.3   801  MTN801     -0.1175
      2  N1        29.4230   28.8970   -4.5800 N.4   801  MTN801     -0.1311
      3  C1        30.7440   29.5670   -4.3090 C.3   801  MTN801      0.0909
      4  C2        30.3540   31.0500   -4.1870 C.2   801  MTN801     -0.0160
      5  C3        29.0330   31.2140   -4.3730 C.2   801  MTN801     -0.0205
      6  C4        28.3100   32.5650   -4.3680 C.3   801  MTN801      0.0917
      7  S1        27.6120   32.9750   -2.7360 S.3   801  MTN801     -0.0773
      8  C5        28.2790   29.8520   -4.5880 C.3   801  MTN801      0.0886
      9  C6        27.4930   29.8020   -5.9420 C.3   801  MTN801      0.0227
     10  C7        27.3850   29.4880   -3.3960 C.3   801  MTN801      0.0227
     11  C8        31.4750   29.0190   -3.0650 C.3   801  MTN801      0.0230
     12  C9        31.6540   29.4490   -5.5560 C.3   801  MTN801      0.0230
@<TRIPOS>BOND
     1     9     8    1
     2    12     3    1
     3     1     2    1
     4     8     2    1
     5     8     5    1
     6     8    10    1
     7     2     3    1
     8     5     6    1
     9     5     4    2
    10     6     7    1
    11     3     4    1
    12     3    11    1
