@<TRIPOS>MOLECULE
3mpt_1GK_A_1.pdb
 23 25 0 0 0
SMALL
GASTEIGER

@<TRIPOS>ATOM
      1  C1        40.6540   29.2610   33.2960 C.3   361  1GK361      0.0311
      2  C2        40.0080   29.8400   32.0830 C.ar  361  1GK361     -0.0188
      3  C3        38.6270   29.9010   32.0040 C.ar  361  1GK361     -0.0042
      4  C4        38.0200   30.4360   30.8920 C.ar  361  1GK361     -0.0003
      5  C5        38.7970   30.8950   29.8540 C.ar  361  1GK361      0.0001
      6  C6        40.1770   30.8330   29.9130 C.ar  361  1GK361      0.0029
      7  C7        40.7810   30.3050   31.0370 C.ar  361  1GK361      0.0347
      8  C8        42.2630   30.2400   31.1380 C.2   361  1GK361      0.1932
      9  O9        42.8540   29.2080   30.8740 O.2   361  1GK361     -0.2869
     10  C10       42.9530   31.4200   31.6040 C.2   361  1GK361      0.0419
     11  C11       42.3190   32.5620   32.0190 C.2   361  1GK361      0.0979
     12  N12       43.2650   33.4670   32.3960 N.2   361  1GK361     -0.2434
     13  C13       44.5190   32.9630   32.2500 C.2   361  1GK361      0.1183
     14  C14       44.3440   31.6830   31.7500 C.3   361  1GK361      0.0817
     15  C15       45.6790   33.7360   32.5930 C.2   361  1GK361      0.2791
     16  O16       45.6320   34.9020   32.9760 O.2   361  1GK361     -0.2670
     17  N17       46.8520   33.0540   32.4920 N.am  361  1GK361     -0.1924
     18  C18       48.0690   33.7370   32.8450 C.3   361  1GK361      0.1795
     19  C19       48.8530   33.9690   31.6430 C.ar  361  1GK361      0.1449
     20  C20       48.7230   34.8710   30.6120 C.ar  361  1GK361      0.0380
     21  C21       49.7860   34.5940   29.7220 C.ar  361  1GK361      0.0435
     22  C22       50.4790   33.5360   30.2740 C.ar  361  1GK361      0.1792
     23  O23       49.9170   33.1410   31.4540 O.2   361  1GK361     -0.4529
@<TRIPOS>BOND
     1    21    22   ar
     2    21    20   ar
     3     5     6   ar
     4     5     4   ar
     5     6     7   ar
     6    22    23   ar
     7    20    19   ar
     8     9     8    2
     9     4     3   ar
    10     7     8    1
    11     7     2   ar
    12     8    10    1
    13    23    19   ar
    14    10    14    1
    15    10    11    2
    16    19    18    1
    17    14    13    1
    18     3     2   ar
    19    11    12    1
    20     2     1    1
    21    13    12    2
    22    13    15    1
    23    17    15   am
    24    17    18    1
    25    15    16    2
