@<TRIPOS>MOLECULE
3mq2_SAH_A_1.pdb
 26 28 0 0 0
SMALL
GASTEIGER

@<TRIPOS>ATOM
      1  N          5.3970    0.0800   -1.7280 N.3   216  SAH216     -0.1208
      2  CA         5.9790   -1.2360   -1.5280 C.3   216  SAH216      0.1952
      3  CB         5.0000   -2.1710   -0.8200 C.3   216  SAH216      0.0422
      4  CG         3.5760   -2.1180   -1.3620 C.3   216  SAH216      0.0597
      5  SD         2.5790   -3.4970   -0.7440 S.3   216  SAH216     -0.1375
      6  C          6.3810   -1.8130   -2.8710 C.2   216  SAH216      0.3819
      7  O          6.9980   -2.8760   -2.9460 O.co2 216  SAH216     -0.2441
      8  OXT        6.0830   -1.2150   -3.9050 O.co2 216  SAH216     -0.2441
      9  C5'        1.6660   -2.2940    0.2560 C.3   216  SAH216      0.0899
     10  C4'        2.3290   -2.0610    1.6090 C.3   216  SAH216      0.1630
     11  O4'        1.5830   -1.0990    2.3250 O.3   216  SAH216     -0.3153
     12  C3'        2.3640   -3.3140    2.4860 C.3   216  SAH216      0.2168
     13  O3'        3.6770   -3.5170    2.9470 O.3   216  SAH216     -0.2175
     14  C2'        1.4910   -3.0160    3.6850 C.3   216  SAH216      0.2569
     15  O2'        2.0670   -3.5170    4.8780 O.3   216  SAH216     -0.2130
     16  C1'        1.4710   -1.5010    3.6770 C.3   216  SAH216      0.3185
     17  N9         0.2580   -0.9070    4.2520 N.pl3 216  SAH216     -0.1439
     18  C8        -1.0560   -1.1720    3.9670 C.3   216  SAH216      0.3377
     19  N7        -1.8260   -0.3570    4.7410 N.2   216  SAH216     -0.2095
     20  C5        -1.0020    0.4150    5.4970 C.2   216  SAH216      0.2526
     21  C6        -1.2330    1.4020    6.4440 C.2   216  SAH216      0.4393
     22  N6        -2.4730    1.7620    6.7650 N.pl3 216  SAH216      0.2180
     23  N1        -0.1570    2.0150    7.0430 N.2   216  SAH216      0.0021
     24  C2         1.1350    1.6590    6.7180 C.3   216  SAH216      0.5254
     25  N3         1.3670    0.6730    5.7860 N.2   216  SAH216     -0.0055
     26  C4         0.3060    0.0780    5.1900 C.2   216  SAH216      0.3518
@<TRIPOS>BOND
     1     8     6   ar
     2     7     6   ar
     3     6     2    1
     4     1     2    1
     5     2     3    1
     6     4     3    1
     7     4     5    1
     8     5     9    1
     9     9    10    1
    10    10    11    1
    11    10    12    1
    12    11    16    1
    13    12    13    1
    14    12    14    1
    15    16    14    1
    16    16    17    1
    17    14    15    1
    18    18    17    1
    19    18    19    1
    20    17    26    1
    21    19    20    2
    22    26    20    1
    23    26    25    2
    24    20    21    1
    25    25    24    1
    26    21    22    1
    27    21    23    2
    28    24    23    1
