@<TRIPOS>MOLECULE
3mq4_Z99_A_1.pdb
 26 29 0 0 0
SMALL
GASTEIGER

@<TRIPOS>ATOM
      1  NAA      -17.0840  -39.8000  -20.4590 N.3   514  Z99514     -0.1228
      2  OAB      -18.3470  -35.0440  -21.0170 O.co2 514  Z99514     -0.2457
      3  OAC      -16.3360  -39.4690  -24.3210 O.co2 514  Z99514     -0.2441
      4  OAD      -18.3010  -36.8770  -19.4210 O.co2 514  Z99514     -0.2457
      5  OAE      -15.1860  -40.2280  -22.6140 O.co2 514  Z99514     -0.2441
      6  CAF      -18.0600  -41.9720  -26.9300 C.ar  514  Z99514      0.0031
      7  CAG      -22.7710  -43.2400  -21.9680 C.ar  514  Z99514      0.0031
      8  CAH      -16.9810  -42.4960  -26.1150 C.ar  514  Z99514     -0.0001
      9  CAI      -21.7520  -43.7730  -21.0510 C.ar  514  Z99514     -0.0001
     10  CAJ      -19.2990  -41.4970  -26.3710 C.ar  514  Z99514      0.0372
     11  CAK      -22.4210  -42.3430  -23.0910 C.ar  514  Z99514      0.0372
     12  CAL      -17.0910  -42.5800  -24.7220 C.ar  514  Z99514     -0.0009
     13  CAM      -20.3580  -43.4180  -21.2030 C.ar  514  Z99514     -0.0009
     14  CAN      -18.5400  -40.5890  -22.1840 C.3   514  Z99514      0.0376
     15  CAO      -18.3000  -37.2880  -23.0520 C.3   514  Z99514      0.0138
     16  OAP      -20.7030  -41.1010  -24.3670 O.3   514  Z99514     -0.4541
     17  CAQ      -18.4440  -36.3070  -20.6000 C.2   514  Z99514      0.3644
     18  CAR      -16.2230  -39.7750  -23.0600 C.2   514  Z99514      0.3800
     19  CAS      -19.4700  -41.5590  -24.9680 C.ar  514  Z99514      0.1415
     20  CAT      -21.0530  -41.9640  -23.2970 C.ar  514  Z99514      0.1415
     21  CAU      -18.3150  -42.1170  -24.1160 C.ar  514  Z99514      0.0163
     22  CAV      -19.9810  -42.5330  -22.3140 C.ar  514  Z99514      0.0163
     23  CAW      -18.4930  -42.1400  -22.5360 C.3   514  Z99514      0.0525
     24  CAX      -18.7940  -37.3650  -21.6360 C.3   514  Z99514      0.1054
     25  CAY      -17.3560  -39.6130  -21.9600 C.3   514  Z99514      0.1709
     26  CAZ      -17.5180  -38.0490  -22.0070 C.3   514  Z99514      0.0380
@<TRIPOS>BOND
     1     6    10   ar
     2     6     8   ar
     3    10    19   ar
     4     8    12   ar
     5    19    16    1
     6    19    21   ar
     7    12    21   ar
     8    16    20    1
     9     3    18   ar
    10    21    23    1
    11    20    11   ar
    12    20    22   ar
    13    11     7   ar
    14    18     5   ar
    15    18    25    1
    16    15    26    1
    17    15    24    1
    18    23    22    1
    19    23    14    1
    20    22    13   ar
    21    14    25    1
    22    26    25    1
    23    26    24    1
    24     7     9   ar
    25    25     1    1
    26    24    17    1
    27    13     9   ar
    28     2    17   ar
    29    17     4   ar
