@<TRIPOS>MOLECULE
3mqd_3MQ_A_1.pdb
 12 13 0 0 0
SMALL
GASTEIGER

@<TRIPOS>ATOM
      1  C10       17.9270   -4.4300   21.5540 C.ar  499  3MQ499      0.0355
      2  C01       17.4920   -7.2890   24.1060 C.ar  499  3MQ499      0.1826
      3  C02       18.5380   -7.6710   24.9120 C.ar  499  3MQ499      0.0613
      4  C03       17.9820   -8.7900   25.6250 C.ar  499  3MQ499      0.1338
      5  N04       16.7450   -9.0360   25.2620 N.ar  499  3MQ499     -0.0787
      6  O05       16.4310   -8.1260   24.3120 O.2   499  3MQ499     -0.3531
      7  C06       18.8120   -9.5400   26.6560 C.3   499  3MQ499      0.2308
      8  O07       18.9010   -8.8590   27.8680 O.3   499  3MQ499     -0.2133
      9  C08       17.4310   -6.2210   23.1440 C.ar  499  3MQ499      0.0666
     10  S09       18.8390   -5.4630   22.5620 S.2   499  3MQ499     -0.0833
     11  C11       16.6140   -4.6450   21.6570 C.ar  499  3MQ499      0.0076
     12  C12       16.3080   -5.6890   22.5830 C.ar  499  3MQ499      0.0102
@<TRIPOS>BOND
     1     1    11   ar
     2     1    10   ar
     3    11    12   ar
     4    10     9   ar
     5    12     9   ar
     6     9     2    1
     7     2     6   ar
     8     2     3   ar
     9     6     5   ar
    10     3     4   ar
    11     5     4   ar
    12     4     7    1
    13     7     8    1
