@<TRIPOS>MOLECULE
3mqe_HEM_A_1.pdb
 43 50 0 0 0
SMALL
GASTEIGER

@<TRIPOS>ATOM
      1  CHA       17.4630  -33.3830  -69.7410 C.2   605  HEM605      0.0000
      2  CHB       13.9030  -33.2220  -72.9400 C.2   605  HEM605      0.0000
      3  CHC       14.1320  -28.4060  -73.0660 C.2   605  HEM605      0.0000
      4  CHD       16.7500  -28.5380  -69.0230 C.2   605  HEM605      0.0000
      5  C1A       16.5970  -33.7760  -70.7330 C.ar  605  HEM605      0.0000
      6  C2A       16.5780  -35.0460  -71.4390 C.ar  605  HEM605      0.0000
      7  C3A       15.5710  -34.9960  -72.3300 C.ar  605  HEM605      0.0000
      8  C4A       14.9490  -33.6980  -72.2080 C.ar  605  HEM605      0.0000
      9  CMA       15.1270  -36.0900  -73.3260 C.3   605  HEM605      0.0000
     10  CAA       17.5710  -36.2230  -71.1950 C.3   605  HEM605      0.0000
     11  CBA       18.3070  -36.6950  -72.4920 C.3   605  HEM605      0.0000
     12  CGA       19.3970  -35.8080  -73.1270 C.2   605  HEM605      0.0000
     13  O1A       20.4370  -35.4770  -72.4730 O.co2 605  HEM605      0.0000
     14  O2A       19.2450  -35.4690  -74.3430 O.co2 605  HEM605      0.0000
     15  C1B       13.7880  -31.9220  -73.3730 C.2   605  HEM605      0.0000
     16  C2B       13.2190  -31.4780  -74.6320 C.2   605  HEM605      0.0000
     17  C3B       13.2860  -30.1440  -74.6640 C.2   605  HEM605      0.0000
     18  C4B       13.8900  -29.7000  -73.4310 C.2   605  HEM605      0.0000
     19  CMB       12.6390  -32.3900  -75.7380 C.3   605  HEM605      0.0000
     20  CAB       12.7970  -29.2490  -75.8190 C.2   605  HEM605      0.0000
     21  CBB       12.0710  -28.1570  -75.5810 C.2   605  HEM605      0.0000
     22  C1C       14.7440  -28.0280  -71.9040 C.ar  605  HEM605      0.0000
     23  C2C       14.7110  -26.6980  -71.3550 C.ar  605  HEM605      0.0000
     24  C3C       15.4300  -26.7020  -70.2390 C.ar  605  HEM605      0.0000
     25  C4C       15.9460  -28.0610  -70.0440 C.ar  605  HEM605      0.0000
     26  CMC       13.9630  -25.5030  -71.9610 C.3   605  HEM605      0.0000
     27  CAC       15.6170  -25.4520  -69.3460 C.2   605  HEM605      0.0000
     28  CBC       16.7780  -25.1910  -68.7470 C.2   605  HEM605      0.0000
     29  C1D       17.3080  -29.8150  -68.9350 C.2   605  HEM605      0.0000
     30  C2D       18.4640  -30.1710  -68.1320 C.2   605  HEM605      0.0000
     31  C3D       18.6700  -31.6850  -68.3510 C.2   605  HEM605      0.0000
     32  C4D       17.6330  -32.0930  -69.2740 C.2   605  HEM605      0.0000
     33  CMD       19.2940  -29.2350  -67.2440 C.3   605  HEM605      0.0000
     34  CAD       19.7770  -32.5910  -67.7680 C.3   605  HEM605      0.0000
     35  CBD       20.8960  -32.6000  -68.8120 C.3   605  HEM605      0.0000
     36  CGD       22.1250  -33.3660  -68.3890 C.2   605  HEM605      0.0000
     37  O1D       22.3470  -33.5650  -67.1670 O.co2 605  HEM605      0.0000
     38  O2D       22.9100  -33.7800  -69.2850 O.co2 605  HEM605      0.0000
     39  NA        15.5980  -32.9770  -71.2350 N.ar  605  HEM605      0.0000
     40  NB        14.1970  -30.8070  -72.6760 N.2   605  HEM605      0.0000
     41  NC        15.5050  -28.8330  -71.0930 N.ar  605  HEM605      0.0000
     42  ND        16.8630  -30.9810  -69.5950 N.2   605  HEM605      0.0000
     43 FE         15.5670  -30.8890  -71.1640 Fe    605  HEM605      0.0000
@<TRIPOS>BOND
     1    20    21    2
     2    20    17    1
     3    19    16    1
     4    17    16    2
     5    17    18    1
     6    16    15    1
     7    14    12   ar
     8    18     3    2
     9    18    40    1
    10    15     2    1
    11    15    40    2
    12     9     7    1
    13    12    11    1
    14    12    13   ar
    15     3    22    1
    16     2     8    2
    17    40    43    1
    18    11    10    1
    19     7     8   ar
    20     7     6   ar
    21     8    39   ar
    22    26    23    1
    23    22    23   ar
    24    22    41   ar
    25     6    10    1
    26     6     5   ar
    27    23    24   ar
    28    39    43    1
    29    39     5   ar
    30    43    41    1
    31    43    42    1
    32    41    25   ar
    33     5     1    2
    34    24    25   ar
    35    24    27    1
    36    25     4    1
    37     1    32    1
    38    42    32    2
    39    42    29    1
    40    27    28    2
    41    38    36   ar
    42    32    31    1
    43     4    29    2
    44    29    30    1
    45    35    36    1
    46    35    34    1
    47    36    37   ar
    48    31    30    2
    49    31    34    1
    50    30    33    1
