@<TRIPOS>MOLECULE
3mqe_416_A_1.pdb
 22 23 0 0 0
SMALL
GASTEIGER

@<TRIPOS>ATOM
      1  C1        21.8030  -15.4080  -58.9120 C.ar  701  416701      0.0141
      2  F1        19.3900  -18.7090  -58.6580 F     701  416701     -0.1661
      3  O1        18.5800  -16.5340  -60.2400 O.3   701  416701     -0.4657
      4 CL1        22.5640  -13.6590  -57.0920 Cl    701  416701     -0.0826
      5  C2        19.1260  -14.9390  -58.5930 C.ar  701  416701      0.0335
      6  F2        19.1340  -20.1540  -60.3090 F     701  416701     -0.1661
      7  O2        19.8690  -19.2520  -63.0930 O.co2 701  416701     -0.2408
      8  C3        20.9070  -16.1250  -59.6750 C.ar  701  416701      0.0348
      9  F3        17.3970  -19.0740  -59.5790 F     701  416701     -0.1661
     10  O3        22.0080  -19.0430  -62.4840 O.co2 701  416701     -0.2408
     11  C4        21.3550  -14.4730  -57.9980 C.ar  701  416701      0.0539
     12  C5        20.0060  -14.2110  -57.8170 C.ar  701  416701     -0.0092
     13  C6        19.5630  -15.8740  -59.5060 C.ar  701  416701      0.1389
     14  C7        21.3270  -17.0930  -60.6780 C.2   701  416701      0.0091
     15  C8        19.4410  -13.1930  -56.8430 C.3   701  416701      0.0198
     16  C9        19.7610  -13.5270  -55.4060 C.3   701  416701      0.0044
     17  C10       17.9270  -13.1070  -56.9650 C.3   701  416701      0.0044
     18  C11       19.9890  -11.8180  -57.1820 C.3   701  416701      0.0044
     19  C12       20.3770  -17.8520  -61.2370 C.2   701  416701      0.1055
     20  C13       20.7890  -18.8060  -62.3540 C.2   701  416701      0.3875
     21  C14       18.9650  -17.8070  -60.7990 C.3   701  416701      0.2885
     22  C15       18.7270  -18.9440  -59.8250 C.3   701  416701      0.4385
@<TRIPOS>BOND
     1     7    20   ar
     2    10    20   ar
     3    20    19    1
     4    19    21    1
     5    19    14    2
     6    21     3    1
     7    21    22    1
     8    14     8    1
     9     6    22    1
    10     3    13    1
    11    22     9    1
    12    22     2    1
    13     8    13   ar
    14     8     1   ar
    15    13     5   ar
    16     1    11   ar
    17     5    12   ar
    18    11    12   ar
    19    11     4    1
    20    12    15    1
    21    18    15    1
    22    17    15    1
    23    15    16    1
