@<TRIPOS>MOLECULE
3mqf_20X_A_1.pdb
 24 25 0 0 0
SMALL
GASTEIGER

@<TRIPOS>ATOM
      1  C1        33.5430   22.8620   27.9700 C.3   998  20X998      0.2439
      2  F1        36.9070   27.8280   37.4020 F     998  20X998     -0.2042
      3  N1        34.5280   23.4260   28.8780 N.am  998  20X998     -0.1850
      4  S1        32.7620   24.5200   30.4360 S.2   998  20X998     -0.0134
      5  C2        33.9090   23.1250   26.5070 C.3   998  20X998      0.2326
      6  N2        35.3310   24.4320   30.6990 N.am  998  20X998     -0.0932
      7  O2        34.0940   24.5290   26.2760 O.3   998  20X998     -0.2157
      8  C3        32.8130   22.5390   25.5970 C.3   998  20X998      0.2190
      9  N3        35.3520   25.0540   31.8640 N.2   998  20X998     -0.1555
     10  O3        33.3420   18.6660   27.2770 O.3   998  20X998     -0.2176
     11  C4        32.5270   21.0700   25.9390 C.3   998  20X998      0.2144
     12  O4        31.3220   20.6550   25.2790 O.3   998  20X998     -0.2176
     13  C5        32.3640   20.8670   27.4560 C.3   998  20X998      0.1828
     14  O5        33.4810   21.4420   28.1460 O.3   998  20X998     -0.3315
     15  C6        32.2540   19.4010   27.8560 C.3   998  20X998      0.2142
     16  O6        33.1740   22.6510   24.2080 O.3   998  20X998     -0.2174
     17  C7        34.2430   24.1110   29.9970 C.2   998  20X998      0.1965
     18  C8        36.4780   25.2360   32.4300 C.2   998  20X998      0.1196
     19  C9        36.6080   25.9220   33.7350 C.ar  998  20X998      0.0209
     20  C10       37.8220   26.5150   34.1070 C.ar  998  20X998      0.0039
     21  C11       37.9410   27.1600   35.3430 C.ar  998  20X998      0.0297
     22  C12       36.8380   27.2070   36.2060 C.ar  998  20X998      0.1401
     23  C13       35.6320   26.6120   35.8300 C.ar  998  20X998      0.0297
     24  C14       35.5110   25.9680   34.6000 C.ar  998  20X998      0.0039
@<TRIPOS>BOND
     1    16     8    1
     2    12    11    1
     3     8    11    1
     4     8     5    1
     5    11    13    1
     6     7     5    1
     7     5     1    1
     8    10    15    1
     9    13    15    1
    10    13    14    1
    11     1    14    1
    12     1     3    1
    13     3    17    1
    14    17     4    2
    15    17     6    1
    16     6     9    1
    17     9    18    2
    18    18    19    1
    19    19    20   ar
    20    19    24   ar
    21    20    21   ar
    22    24    23   ar
    23    21    22   ar
    24    23    22   ar
    25    22     2    1
