@<TRIPOS>MOLECULE
3mqg_U5P_A_1.pdb
 21 22 0 0 0
SMALL
GASTEIGER

@<TRIPOS>ATOM
      1  N1        -8.6920    8.0620  -15.5980 N.am  192  U5P192     -0.1766
      2  C2        -8.0300    7.1320  -14.9070 C.1   192  U5P192      0.2845
      3  N3        -8.6780    6.3400  -14.0200 N.2   192  U5P192     -0.2452
      4  C4       -10.0040    6.4970  -13.8100 C.1   192  U5P192      0.2182
      5  C5       -10.6980    7.4810  -14.5050 C.2   192  U5P192      0.1242
      6  C6        -9.9910    8.2800  -15.4010 C.2   192  U5P192      0.0929
      7  O2        -6.8110    6.9790  -15.0960 O.2   192  U5P192     -0.1918
      8  O4       -10.5990    5.7670  -12.9910 O.2   192  U5P192     -0.2085
      9  C1'       -7.9540    8.9460  -16.5140 C.3   192  U5P192      0.2401
     10  C2'       -7.5010    8.4280  -17.8540 C.3   192  U5P192      0.2319
     11  O2'       -6.6220    9.4890  -18.2360 O.3   192  U5P192     -0.2157
     12  C3'       -8.7550    8.6300  -18.6860 C.3   192  U5P192      0.2158
     13  C4'       -9.1010   10.0570  -18.3140 C.3   192  U5P192      0.1801
     14  O3'       -8.3730    8.6260  -20.0570 O.3   192  U5P192     -0.2175
     15  O4'       -8.8700    9.9650  -16.9100 O.3   192  U5P192     -0.3320
     16  C5'      -10.5390   10.5300  -18.4660 C.3   192  U5P192      0.1859
     17  O5'      -11.4240    9.5100  -18.0250 O.3   192  U5P192     -0.2675
     18  P        -12.9930    9.8420  -18.1630 P.3   192  U5P192      0.5327
     19  O1P      -13.2180    9.9800  -19.6460 O.2   192  U5P192     -0.2224
     20  O2P      -13.6720    8.6570  -17.5060 O.3   192  U5P192     -0.1145
     21  O3P      -13.0950   11.1630  -17.4400 O.3   192  U5P192     -0.1145
@<TRIPOS>BOND
     1    14    12    1
     2    19    18    2
     3    12    13    1
     4    12    10    1
     5    16    13    1
     6    16    17    1
     7    13    15    1
     8    11    10    1
     9    18    17    1
    10    18    20    1
    11    18    21    1
    12    10     9    1
    13    15     9    1
    14     9     1    1
    15     1     6    1
    16     1     2   am
    17     6     5    2
    18     7     2    2
    19     2     3    2
    20     5     4    1
    21     3     4    2
    22     4     8    2
