@<TRIPOS>MOLECULE
3mqg_UDP_B_1.pdb
 25 26 0 0 0
SMALL
GASTEIGER

@<TRIPOS>ATOM
      1  N1         7.5100   23.9060  -23.5770 N.am  192  UDP192     -0.1766
      2  C2         7.0210   24.1280  -22.3520 C.1   192  UDP192      0.2845
      3  N3         7.0340   25.3620  -21.7840 N.2   192  UDP192     -0.2452
      4  C4         7.5340   26.4250  -22.4540 C.1   192  UDP192      0.2182
      5  C5         8.0620   26.2100  -23.7220 C.2   192  UDP192      0.1242
      6  C6         8.0540   24.9240  -24.2610 C.2   192  UDP192      0.0929
      7  O2         6.5410   23.1830  -21.6930 O.2   192  UDP192     -0.1918
      8  O4         7.5360   27.5700  -21.9370 O.2   192  UDP192     -0.2085
      9  C1'        7.5410   22.5460  -24.1670 C.3   192  UDP192      0.2401
     10  C2'        6.2060   21.9540  -24.5710 C.3   192  UDP192      0.2319
     11  O2'        6.3710   20.5270  -24.5000 O.3   192  UDP192     -0.2157
     12  C3'        6.1560   22.3750  -26.0300 C.3   192  UDP192      0.2158
     13  C4'        7.5700   22.0410  -26.4810 C.3   192  UDP192      0.1799
     14  O4'        8.3140   22.5200  -25.3590 O.3   192  UDP192     -0.3320
     15  O3'        5.2000   21.5360  -26.6860 O.3   192  UDP192     -0.2175
     16  C5'        8.0390   22.7600  -27.7350 C.3   192  UDP192      0.1813
     17  O5'        7.7780   24.1400  -27.5060 O.3   192  UDP192     -0.3111
     18  PA         8.1580   25.2330  -28.6270 P.3   192  UDP192      0.2231
     19  O1A        7.6560   24.8590  -30.0140 O.2   192  UDP192     -0.5169
     20  O2A        7.7820   26.5590  -27.9990 O.3   192  UDP192     -0.4370
     21  O3A        9.7290   24.8220  -28.7000 O.3   192  UDP192     -0.2261
     22  PB        11.1210   25.5910  -28.3650 P.3   192  UDP192      0.5373
     23  O1B       11.7390   25.8160  -29.7350 O.2   192  UDP192     -0.2221
     24  O2B       10.6500   26.8630  -27.6870 O.3   192  UDP192     -0.1143
     25  O3B       11.8790   24.6000  -27.4760 O.3   192  UDP192     -0.1143
@<TRIPOS>BOND
     1    19    18    2
     2    23    22    2
     3    21    18    1
     4    21    22    1
     5    18    20    1
     6    18    17    1
     7    22    24    1
     8    22    25    1
     9    16    17    1
    10    16    13    1
    11    15    12    1
    12    13    12    1
    13    13    14    1
    14    12    10    1
    15    14     9    1
    16    10    11    1
    17    10     9    1
    18     6     5    2
    19     6     1    1
    20     9     1    1
    21     5     4    1
    22     1     2   am
    23     4     8    2
    24     4     3    2
    25     2     3    2
    26     2     7    2
