@<TRIPOS>MOLECULE
3mqh_MJZ_A_1.pdb
 40 42 0 0 0
SMALL
GASTEIGER

@<TRIPOS>ATOM
      1  N1        -8.5900    8.0810  -15.3580 N.am  191  MJZ191     -0.1766
      2  C2        -7.8480    7.1490  -14.7300 C.1   191  MJZ191      0.2845
      3  O2        -6.6430    7.0450  -14.9980 O.2   191  MJZ191     -0.1918
      4  N3        -8.4220    6.3050  -13.8200 N.2   191  MJZ191     -0.2452
      5  C4        -9.7400    6.4160  -13.5210 C.1   191  MJZ191      0.2182
      6  O4       -10.2370    5.6290  -12.6680 O.2   191  MJZ191     -0.2085
      7  C5       -10.5250    7.3980  -14.1220 C.2   191  MJZ191      0.1242
      8  C6        -9.8880    8.2290  -15.0580 C.2   191  MJZ191      0.0929
      9  PA       -12.7810    9.8440  -17.6130 P.3   191  MJZ191      0.2189
     10  PB       -14.3150   11.5620  -19.5100 P.3   191  MJZ191      0.2208
     11  O'P      -19.1430   10.4600  -21.4900 O.co2 191  MJZ191     -0.2429
     12  O'Q      -18.8300   10.4840  -23.6890 O.co2 191  MJZ191     -0.2429
     13  C1'      -15.2970    9.4050  -20.6830 C.3   191  MJZ191      0.2626
     14  O1A      -12.9200   10.6720  -16.3800 O.3   191  MJZ191     -0.4371
     15  O1B      -15.5050   11.5710  -18.5580 O.3   191  MJZ191     -0.4371
     16  C1C       -7.8690    8.9700  -16.2840 C.3   191  MJZ191      0.2401
     17  C2'      -14.6270    8.4660  -21.6830 C.3   191  MJZ191      0.1718
     18  N2'      -13.2030    8.3930  -21.3730 N.am  191  MJZ191     -0.2004
     19  O2A      -13.6120    8.6210  -17.6820 O.2   191  MJZ191     -0.5170
     20  O2B      -13.7260   12.8120  -20.0360 O.2   191  MJZ191     -0.5170
     21  C2C       -7.4620    8.3100  -17.5960 C.3   191  MJZ191      0.2319
     22  O2C       -6.2510    8.8950  -18.0680 O.3   191  MJZ191     -0.2157
     23  C3'      -14.8650    8.9620  -23.1110 C.3   191  MJZ191      0.1500
     24  N3'      -14.2930    7.9200  -24.0560 N.3   191  MJZ191     -0.1281
     25  O3A      -13.0590   10.7610  -18.9030 O.3   191  MJZ191     -0.2703
     26  O3B      -14.6730   10.6760  -20.7790 O.3   191  MJZ191     -0.2864
     27  C3C       -8.6050    8.6810  -18.5280 C.3   191  MJZ191      0.2158
     28  O3C       -8.1470    8.6660  -19.8710 O.3   191  MJZ191     -0.2175
     29  C4'      -16.3580    9.1160  -23.3440 C.3   191  MJZ191      0.2094
     30  O4'      -16.5090    9.6460  -24.6920 O.3   191  MJZ191     -0.2183
     31  C4C       -8.9460   10.0810  -18.0790 C.3   191  MJZ191      0.1799
     32  O4C       -8.7760   10.0060  -16.6550 O.3   191  MJZ191     -0.3320
     33  C5'      -16.9280   10.1080  -22.3480 C.3   191  MJZ191      0.2518
     34  O5'      -16.6720    9.6550  -21.0030 O.3   191  MJZ191     -0.3173
     35  C5C      -10.3900   10.4660  -18.3620 C.3   191  MJZ191      0.1813
     36  O5C      -11.2830    9.4330  -17.9070 O.3   191  MJZ191     -0.3112
     37  C6'      -18.4080   10.3580  -22.5060 C.2   191  MJZ191      0.3941
     38  C7'      -12.5760    7.2240  -21.1920 C.2   191  MJZ191      0.2420
     39  O7'      -13.0920    6.1330  -21.4160 O.2   191  MJZ191     -0.2733
     40  C8'      -11.1660    7.2990  -20.6740 C.3   191  MJZ191      0.0964
@<TRIPOS>BOND
     1    30    29    1
     2    24    23    1
     3    12    37   ar
     4    29    23    1
     5    29    33    1
     6    23    17    1
     7    37    33    1
     8    37    11   ar
     9    33    34    1
    10    17    18    1
    11    17    13    1
    12    39    38    2
    13    18    38   am
    14    38    40    1
    15    34    13    1
    16    26    13    1
    17    26    10    1
    18    20    10    2
    19    28    27    1
    20    10    25    1
    21    10    15    1
    22    25     9    1
    23    27    31    1
    24    27    21    1
    25    35    31    1
    26    35    36    1
    27    31    32    1
    28    22    21    1
    29    36     9    1
    30    19     9    2
    31     9    14    1
    32    21    16    1
    33    32    16    1
    34    16     1    1
    35     1     8    1
    36     1     2   am
    37     8     7    2
    38     3     2    2
    39     2     4    2
    40     7     5    1
    41     4     5    2
    42     5     6    2
