@<TRIPOS>MOLECULE
3mqh_COA_A_1.pdb
 48 50 0 0 0
SMALL
GASTEIGER

@<TRIPOS>ATOM
      1  N1A       -5.0890   17.8630  -45.8430 N.2   192  COA192      0.0021
      2  C2A       -5.8680   17.6950  -46.9210 C.3   192  COA192      0.5254
      3  N3A       -6.1480   18.6450  -47.8320 N.2   192  COA192     -0.0055
      4  C4A       -5.5340   19.8380  -47.6920 C.2   192  COA192      0.3518
      5  C5A       -4.6810   20.1090  -46.5500 C.2   192  COA192      0.2526
      6  C6A       -4.4540   19.0230  -45.6050 C.2   192  COA192      0.4393
      7  N6A       -3.6510   19.2160  -44.5440 N.pl3 192  COA192      0.2180
      8  N7A       -4.2030   21.3820  -46.6550 N.2   192  COA192     -0.2095
      9  C8A       -4.7580   21.8820  -47.7920 C.3   192  COA192      0.3377
     10  N9A       -5.5530   20.9740  -48.4070 N.pl3 192  COA192     -0.1439
     11  C1B       -6.3140   21.1380  -49.6720 C.3   192  COA192      0.3185
     12  C2B       -7.2730   22.3050  -49.5200 C.3   192  COA192      0.2543
     13  O2B       -8.5110   21.8370  -48.9660 O.3   192  COA192     -0.2131
     14  C3B       -7.3250   22.7090  -50.9980 C.3   192  COA192      0.1928
     15  O3B       -8.1350   21.7740  -51.7120 O.3   192  COA192     -0.2673
     16  P3B       -9.7440   22.0210  -51.9080 P.3   192  COA192      0.5327
     17  O7A      -10.1930   20.7810  -52.6500 O.3   192  COA192     -0.1145
     18  O8A       -9.7610   23.2820  -52.7420 O.2   192  COA192     -0.2224
     19  O9A      -10.4200   22.2410  -50.5600 O.3   192  COA192     -0.1145
     20  C4B       -5.8760   22.5690  -51.4260 C.3   192  COA192      0.1795
     21  O4B       -5.3070   21.5090  -50.6150 O.3   192  COA192     -0.3136
     22  C5B       -5.0720   23.8670  -51.3580 C.3   192  COA192      0.1812
     23  O5B       -5.2160   24.3010  -50.0030 O.3   192  COA192     -0.3112
     24  P1A       -4.7020   25.7390  -49.5500 P.3   192  COA192      0.2189
     25  O1A       -5.2660   25.9220  -48.1660 O.3   192  COA192     -0.4371
     26  O2A       -4.9900   26.7620  -50.6250 O.2   192  COA192     -0.5170
     27  O3A       -3.1330   25.4630  -49.4470 O.3   192  COA192     -0.2703
     28  P2A       -1.9570   26.3230  -48.7330 P.3   192  COA192      0.2188
     29  O4A       -2.5510   27.4780  -48.0180 O.3   192  COA192     -0.4371
     30  O5A       -0.8990   26.5600  -49.7820 O.2   192  COA192     -0.5170
     31  O6A       -1.2990   25.2400  -47.7450 O.3   192  COA192     -0.3138
     32  CBP       -1.3190   23.9430  -45.7300 C.3   192  COA192      0.0645
     33  CCP       -2.1630   24.7960  -46.6850 C.3   192  COA192      0.1519
     34  CDP       -0.0820   24.7240  -45.3000 C.3   192  COA192      0.0056
     35  CEP       -0.8950   22.6550  -46.4530 C.3   192  COA192      0.0056
     36  CAP       -2.1060   23.7120  -44.4400 C.3   192  COA192      0.2312
     37  OAP       -3.4470   23.2480  -44.7820 O.3   192  COA192     -0.2131
     38  C9P       -1.5110   22.7110  -43.5200 C.2   192  COA192      0.2719
     39  O9P       -1.6880   21.4950  -43.5770 O.2   192  COA192     -0.2706
     40  N8P       -0.7220   23.2340  -42.5670 N.am  192  COA192     -0.2028
     41  C7P        0.0100   22.4740  -41.5480 C.3   192  COA192      0.1248
     42  C6P       -0.2430   22.9810  -40.1210 C.3   192  COA192      0.1102
     43  C5P        0.6300   22.2030  -39.1890 C.2   192  COA192      0.2432
     44  O5P        0.7820   20.9980  -39.2870 O.2   192  COA192     -0.2733
     45  N4P        1.2530   22.8970  -38.2200 N.am  192  COA192     -0.2044
     46  C3P        2.1420   22.2180  -37.2620 C.3   192  COA192      0.1276
     47  C2P        2.8270   23.1720  -36.2870 C.3   192  COA192      0.0920
     48  S1P        1.7390   23.8360  -34.9800 S.3   192  COA192     -0.0802
@<TRIPOS>BOND
     1    18    16    2
     2    17    16    1
     3    16    15    1
     4    16    19    1
     5    15    14    1
     6    20    22    1
     7    20    14    1
     8    20    21    1
     9    22    23    1
    10    14    12    1
    11    26    24    2
    12    21    11    1
    13    23    24    1
    14    30    28    2
    15    11    12    1
    16    11    10    1
    17    24    27    1
    18    24    25    1
    19    12    13    1
    20    27    28    1
    21    28    29    1
    22    28    31    1
    23    10     9    1
    24    10     4    1
    25     3     4    2
    26     3     2    1
    27     9     8    1
    28    31    33    1
    29     4     5    1
    30     2     1    1
    31    33    32    1
    32     8     5    2
    33     5     6    1
    34    35    32    1
    35     1     6    2
    36    32    34    1
    37    32    36    1
    38     6     7    1
    39    37    36    1
    40    36    38    1
    41    39    38    2
    42    38    40   am
    43    40    41    1
    44    41    42    1
    45    42    43    1
    46    44    43    2
    47    43    45   am
    48    45    46    1
    49    46    47    1
    50    47    48    1
