@<TRIPOS>MOLECULE
3mqr_III_B_1.pdb
 27 27 0 0 0
SMALL
GASTEIGER

@<TRIPOS>ATOM
      1  N         31.3640  -15.0200   -6.2080 N.3   398  ALA398     -0.1231
      2  CA        31.8620  -14.1300   -7.2990 C.3   398  ALA398      0.1694
      3  C         33.2690  -13.6190   -7.0020 C.2   398  ALA398      0.2592
      4  O         33.6640  -13.4850   -5.8420 O.2   398  ALA398     -0.2718
      5  CB        30.9080  -12.9590   -7.4880 C.3   398  ALA398      0.0304
      6  N         34.0220  -13.3290   -8.0590 N.am  399  HIS399     -0.1962
      7  CA        35.3860  -12.8420   -7.9140 C.3   399  HIS399      0.1784
      8  C         35.8580  -12.2100   -9.2180 C.2   399  HIS399      0.2621
      9  O         35.1060  -12.1400  -10.1910 O.2   399  HIS399     -0.2715
     10  CB        36.3090  -14.0030   -7.5390 C.3   399  HIS399      0.0745
     11  CG        36.3350  -15.0990   -8.5570 C.2   399  HIS399      0.0653
     12  ND1       37.1120  -15.0390   -9.6940 N.2   399  HIS399     -0.2310
     13  CD2       35.6370  -16.2560   -8.6380 C.3   399  HIS399      0.1683
     14  CE1       36.8900  -16.1120  -10.4330 C.2   399  HIS399      0.1939
     15  NE2       35.9990  -16.8660   -9.8140 N.2   399  HIS399     -0.2440
     16  N         37.1050  -11.7520   -9.2260 N.am  400  SER400     -0.1936
     17  CA        37.7020  -11.1320  -10.4050 C.3   400  SER400      0.2055
     18  C         38.1300  -12.2080  -11.3960 C.2   400  SER400      0.2643
     19  O         38.4410  -13.3320  -11.0000 O.2   400  SER400     -0.2714
     20  CB        38.9220  -10.3010  -10.0000 C.3   400  SER400      0.2130
     21  OG        39.6250   -9.8450  -11.1450 O.3   400  SER400     -0.2179
     22  N         38.1520  -11.8620  -12.6810 N.am  401  SER401     -0.1949
     23  CA        38.5450  -12.8110  -13.7190 C.3   401  SER401      0.1924
     24  C         40.0210  -13.1570  -13.5860 C.2   401  SER401      0.2314
     25  O         40.3910  -14.2930  -13.9530 O.2   401  SER401     -0.2863
     26  CB        38.2740  -12.2380  -15.1150 C.3   401  SER401      0.2116
     27  OG        39.1530  -11.1680  -15.4190 O.3   401  SER401     -0.2180
@<TRIPOS>BOND
     1    27    26    1
     2    26    23    1
     3    25    24    2
     4    23    24    1
     5    23    22    1
     6    22    18   am
     7    18    19    2
     8    18    17    1
     9    21    20    1
    10    14    15    2
    11    14    12    1
    12    17    20    1
    13    17    16    1
    14     9     8    2
    15    15    13    1
    16    12    11    2
    17    16     8   am
    18     8     7    1
    19    13    11    1
    20    11    10    1
    21     6     7    1
    22     6     3   am
    23     7    10    1
    24     5     2    1
    25     2     3    1
    26     2     1    1
    27     3     4    2
