@<TRIPOS>MOLECULE
3mqs_III_D_1.pdb
 47 47 0 0 0
SMALL
GASTEIGER

@<TRIPOS>ATOM
      1  N         28.7490  -21.0300   -7.8670 N.3   395  SER395     -0.1202
      2  CA        30.0130  -21.1220   -7.0880 C.3   395  SER395      0.2020
      3  C         30.2930  -19.7590   -6.4460 C.2   395  SER395      0.2619
      4  O         29.3870  -18.9300   -6.3300 O.2   395  SER395     -0.2717
      5  CB        31.1670  -21.5340   -8.0180 C.3   395  SER395      0.2103
      6  OG        32.3740  -21.7900   -7.2990 O.3   395  SER395     -0.2182
      7  N         31.5410  -19.5320   -6.0380 N.am  396  GLN396     -0.1965
      8  CA        31.9390  -18.2740   -5.4060 C.3   396  GLN396      0.1718
      9  C         32.3710  -17.2340   -6.4500 C.2   396  GLN396      0.2458
     10  O         33.0430  -17.5680   -7.4310 O.2   396  GLN396     -0.2730
     11  CB        33.0790  -18.5330   -4.4090 C.3   396  GLN396      0.0407
     12  CG        33.5350  -17.3040   -3.6210 C.3   396  GLN396      0.0908
     13  CD        34.7840  -17.5590   -2.7700 C.2   396  GLN396      0.2608
     14  OE1       34.7300  -18.2430   -1.7390 O.2   396  GLN396     -0.2717
     15  NE2       35.9190  -17.0140   -3.2110 N.am  396  GLN396     -0.0878
     16  N         31.9670  -15.9610   -6.2630 N.am  397  PRO397     -0.2716
     17  CA        32.2960  -14.8530   -7.1680 C.3   397  PRO397      0.1536
     18  C         33.7100  -14.2960   -6.9730 C.2   397  PRO397      0.2599
     19  O         34.3000  -14.4290   -5.9020 O.2   397  PRO397     -0.2715
     20  CB        31.2290  -13.8170   -6.8300 C.3   397  PRO397      0.0310
     21  CG        31.0710  -14.0070   -5.3580 C.3   397  PRO397      0.0237
     22  CD        31.0170  -15.5140   -5.2240 C.3   397  PRO397      0.0939
     23  N         34.2350  -13.6610   -8.0170 N.am  398  SER398     -0.1936
     24  CA        35.5580  -13.0540   -7.9780 C.3   398  SER398      0.2055
     25  C         35.7690  -12.2650   -9.2610 C.2   398  SER398      0.2644
     26  O         34.8200  -12.0020  -10.0060 O.2   398  SER398     -0.2714
     27  CB        36.6440  -14.1300   -7.8570 C.3   398  SER398      0.2130
     28  OG        36.7500  -14.9080   -9.0430 O.3   398  SER398     -0.2179
     29  N         37.0190  -11.8830   -9.5080 N.am  399  THR399     -0.1936
     30  CA        37.3850  -11.1510  -10.7130 C.3   399  THR399      0.2028
     31  C         37.9460  -12.2030  -11.6580 C.2   399  THR399      0.2643
     32  O         38.3770  -13.2620  -11.2100 O.2   399  THR399     -0.2714
     33  CB        38.4970  -10.1010  -10.4390 C.3   399  THR399      0.1808
     34  OG1       39.7410  -10.7710  -10.1850 O.3   399  THR399     -0.2208
     35  CG2       38.1410   -9.2370   -9.2310 C.3   399  THR399      0.0379
     36  N         37.9430  -11.9140  -12.9540 N.am  400  SER400     -0.1935
     37  CA        38.4540  -12.8500  -13.9450 C.3   400  SER400      0.2055
     38  C         39.9050  -13.2230  -13.6550 C.2   400  SER400      0.2643
     39  O         40.3660  -14.3020  -14.0220 O.2   400  SER400     -0.2714
     40  CB        38.3260  -12.2480  -15.3470 C.3   400  SER400      0.2130
     41  OG        38.9700  -10.9910  -15.4390 O.3   400  SER400     -0.2179
     42  N         40.6160  -12.3260  -12.9830 N.am  401  SER401     -0.1949
     43  CA        42.0130  -12.5540  -12.6370 C.3   401  SER401      0.1924
     44  C         42.1360  -13.5940  -11.5190 C.2   401  SER401      0.2314
     45  O         43.0040  -14.4910  -11.6420 O.2   401  SER401     -0.2863
     46  CB        42.6520  -11.2370  -12.1940 C.3   401  SER401      0.2116
     47  OG        42.3530  -10.1970  -13.1160 O.3   401  SER401     -0.2180
@<TRIPOS>BOND
     1    41    40    1
     2    40    37    1
     3    39    38    2
     4    37    38    1
     5    37    36    1
     6    38    42   am
     7    47    46    1
     8    42    43    1
     9    36    31   am
    10    43    46    1
    11    43    44    1
    12    31    32    2
    13    31    30    1
    14    45    44    2
    15    30    33    1
    16    30    29    1
    17    33    34    1
    18    33    35    1
    19    26    25    2
    20    29    25   am
    21    25    24    1
    22    28    27    1
    23     5     6    1
    24     5     2    1
    25    23    24    1
    26    23    18   am
    27    24    27    1
    28     1     2    1
    29    10     9    2
    30    17    18    1
    31    17    20    1
    32    17    16    1
    33     2     3    1
    34    18    19    2
    35    20    21    1
    36     9    16   am
    37     9     8    1
    38     3     4    2
    39     3     7   am
    40    16    22    1
    41     7     8    1
    42     8    11    1
    43    21    22    1
    44    11    12    1
    45    12    13    1
    46    15    13   am
    47    13    14    2
