@<TRIPOS>MOLECULE
3mr2_DZ4_A_1.pdb
 30 32 0 0 0
SMALL
GASTEIGER

@<TRIPOS>ATOM
      1  N1       -24.3040   49.6400    6.4720 N.2   433  DZ4433      0.0021
      2  C2       -23.1660   49.9920    5.8030 C.3   433  DZ4433      0.5254
      3  N3       -22.2820   49.0250    5.4070 N.2   433  DZ4433     -0.0055
      4  C4       -22.5190   47.7380    5.6900 C.2   433  DZ4433      0.3518
      5  C5       -23.7070   47.3620    6.4220 C.2   433  DZ4433      0.2526
      6  C6       -24.6020   48.3840    6.7960 C.2   433  DZ4433      0.4393
      7  N6       -25.7280   48.0780    7.4540 N.pl3 433  DZ4433      0.2180
      8  N7       -23.6640   45.9980    6.5740 N.2   433  DZ4433     -0.2095
      9  C8       -22.5740   45.5560    5.9850 C.3   433  DZ4433      0.3377
     10  N9       -21.8620   46.6350    5.4220 N.pl3 433  DZ4433     -0.1460
     11  PA       -21.5690   41.5130    5.8520 P.3   433  DZ4433      0.4623
     12  PB       -18.9410   41.2600    7.2380 P.3   433  DZ4433      0.4700
     13  PG       -19.1910   38.6860    8.2670 P.3   433  DZ4433      0.5397
     14  C1'      -20.6350   46.5880    4.6690 C.3   433  DZ4433      0.2873
     15  O1A      -21.2550   40.4670    5.0790 O.2   433  DZ4433     -0.2354
     16  O1B      -18.4970   40.8860    5.9650 O.2   433  DZ4433     -0.2350
     17  O1G      -19.8500   38.4980    7.0410 O.2   433  DZ4433     -0.2220
     18  C2'      -19.4200   46.4040    5.6270 C.3   433  DZ4433      0.1151
     19  O2A      -22.9070   41.6210    6.3830 O.3   433  DZ4433     -0.1255
     20  O2B      -18.3160   42.3140    7.6090 O.3   433  DZ4433     -0.1252
     21  O2G      -18.0650   37.8400    8.4990 O.3   433  DZ4433     -0.1143
     22  C3'      -19.0500   44.9250    5.6250 C.3   433  DZ4433      0.1883
     23  O3'      -17.7870   44.5020    5.8790 O.3   433  DZ4433     -0.2202
     24  N3A      -20.5530   41.5980    7.0760 N.3   433  DZ4433     -0.0179
     25  O3B      -18.6890   40.1530    8.3740 O.3   433  DZ4433     -0.1901
     26  O3G      -20.1000   38.5110    9.3140 O.3   433  DZ4433     -0.1143
     27  C4'      -19.6740   44.5620    4.2550 C.3   433  DZ4433      0.1796
     28  O4'      -20.6290   45.5060    3.8620 O.3   433  DZ4433     -0.3155
     29  C5'      -20.1480   43.0830    4.2860 C.3   433  DZ4433      0.1848
     30  O5'      -21.3590   42.7870    5.0460 O.3   433  DZ4433     -0.2775
@<TRIPOS>BOND
     1    28    27    1
     2    28    14    1
     3    27    29    1
     4    27    22    1
     5    29    30    1
     6    14    10    1
     7    14    18    1
     8    30    11    1
     9    15    11    2
    10     3     4    2
    11     3     2    1
    12    10     4    1
    13    10     9    1
    14    22    18    1
    15    22    23    1
    16     4     5    1
    17     2     1    1
    18    11    19    1
    19    11    24    1
    20    16    12    2
    21     9     8    1
    22     5     8    2
    23     5     6    1
    24     1     6    2
    25     6     7    1
    26    17    13    2
    27    24    12    1
    28    12    20    1
    29    12    25    1
    30    13    25    1
    31    13    21    1
    32    13    26    1
