@<TRIPOS>MOLECULE
3mr3_DZ4_A_1.pdb
 30 32 0 0 0
SMALL
GASTEIGER

@<TRIPOS>ATOM
      1  N1       -24.1780   49.6210    6.4610 N.2   433  DZ4433      0.0021
      2  C2       -23.0220   49.8300    5.7370 C.3   433  DZ4433      0.5254
      3  N3       -22.2410   48.9110    5.4060 N.2   433  DZ4433     -0.0055
      4  C4       -22.5510   47.5740    5.6280 C.2   433  DZ4433      0.3518
      5  C5       -23.6850   47.2280    6.4490 C.2   433  DZ4433      0.2526
      6  C6       -24.6140   48.3690    6.7890 C.2   433  DZ4433      0.4393
      7  N6       -25.6420   48.1160    7.4410 N.pl3 433  DZ4433      0.2180
      8  N7       -23.7230   45.9390    6.5230 N.2   433  DZ4433     -0.2095
      9  C8       -22.6640   45.5820    5.9330 C.3   433  DZ4433      0.3377
     10  N9       -21.9470   46.5180    5.4380 N.pl3 433  DZ4433     -0.1460
     11  PA       -21.5830   41.3680    5.7540 P.3   433  DZ4433      0.4623
     12  PB       -18.9120   41.1280    7.1430 P.3   433  DZ4433      0.4700
     13  PG       -19.1860   38.5040    8.0980 P.3   433  DZ4433      0.5397
     14  C1'      -20.6990   46.3990    4.6480 C.3   433  DZ4433      0.2873
     15  O1A      -21.2890   40.3930    5.1050 O.2   433  DZ4433     -0.2354
     16  O1B      -18.5520   40.7490    5.9890 O.2   433  DZ4433     -0.2350
     17  O1G      -19.7720   38.2960    6.9930 O.2   433  DZ4433     -0.2220
     18  C2'      -19.4600   46.2530    5.5880 C.3   433  DZ4433      0.1151
     19  O2A      -22.9000   41.5300    6.3010 O.3   433  DZ4433     -0.1255
     20  O2B      -18.3370   42.1850    7.5490 O.3   433  DZ4433     -0.1252
     21  O2G      -18.1140   37.7090    8.3590 O.3   433  DZ4433     -0.1143
     22  C3'      -19.1650   44.7680    5.6160 C.3   433  DZ4433      0.1883
     23  O3'      -17.9330   44.3690    5.8760 O.3   433  DZ4433     -0.2202
     24  N3A      -20.5690   41.4780    7.0240 N.3   433  DZ4433     -0.0179
     25  O3B      -18.6940   40.0130    8.2180 O.3   433  DZ4433     -0.1901
     26  O3G      -20.0320   38.3730    9.1590 O.3   433  DZ4433     -0.1143
     27  C4'      -19.6950   44.4610    4.2030 C.3   433  DZ4433      0.1796
     28  O4'      -20.6940   45.2970    3.8850 O.3   433  DZ4433     -0.3155
     29  C5'      -20.1790   42.9480    4.2140 C.3   433  DZ4433      0.1848
     30  O5'      -21.3820   42.6590    4.9280 O.3   433  DZ4433     -0.2775
@<TRIPOS>BOND
     1    28    27    1
     2    28    14    1
     3    27    29    1
     4    27    22    1
     5    29    30    1
     6    14    10    1
     7    14    18    1
     8    30    11    1
     9    15    11    2
    10     3     4    2
    11     3     2    1
    12    10     4    1
    13    10     9    1
    14    18    22    1
    15    22    23    1
    16     4     5    1
    17     2     1    1
    18    11    19    1
    19    11    24    1
    20     9     8    1
    21    16    12    2
    22     5     8    2
    23     5     6    1
    24     1     6    2
    25     6     7    1
    26    17    13    2
    27    24    12    1
    28    12    20    1
    29    12    25    1
    30    13    25    1
    31    13    21    1
    32    13    26    1
