@<TRIPOS>MOLECULE
3mr5_XG4_A_1.pdb
 31 33 0 0 0
SMALL
GASTEIGER

@<TRIPOS>ATOM
      1  N1       -43.7650   -4.7070   -7.6540 N.2   433  XG4433     -0.2485
      2  C2       -44.1950   -5.7520   -8.4450 C.1   433  XG4433      0.2531
      3  N2       -43.2930   -6.7180   -8.8260 N.pl3 433  XG4433     -0.0226
      4  N3       -45.4690   -5.8690   -8.8390 N.2   433  XG4433     -0.3074
      5  C4       -46.3870   -4.9230   -8.4830 C.2   433  XG4433      0.2299
      6  C5       -46.0110   -3.8350   -7.6540 C.2   433  XG4433      0.2182
      7  C6       -44.6420   -3.7310   -7.2700 C.1   433  XG4433      0.2372
      8  O6       -44.2420   -2.7830   -6.5600 O.2   433  XG4433     -0.2069
      9  N7       -47.1130   -3.0610   -7.4570 N.2   433  XG4433     -0.2322
     10  C8       -48.1330   -3.6230   -8.0750 C.3   433  XG4433      0.2245
     11  N9       -47.7430   -4.7810   -8.7180 N.pl3 433  XG4433     -0.2374
     12  PA       -52.2880   -2.3860   -8.3680 P.3   433  XG4433      0.4623
     13  PB       -53.8610   -4.5130   -6.9950 P.3   433  XG4433      0.4700
     14  PG       -55.9440   -3.0120   -5.9420 P.3   433  XG4433      0.5397
     15  C1'      -48.5360   -5.7360   -9.5440 C.3   433  XG4433      0.1981
     16  O1A      -53.3310   -2.0680   -9.0920 O.2   433  XG4433     -0.2354
     17  O1B      -54.3510   -4.6660   -8.1360 O.2   433  XG4433     -0.2350
     18  O1G      -55.8510   -2.3310   -7.0870 O.2   433  XG4433     -0.2220
     19  C2'      -49.2840   -6.7110   -8.5850 C.3   433  XG4433      0.0865
     20  O2A      -51.4940   -1.3540   -7.8960 O.3   433  XG4433     -0.1255
     21  O2B      -53.2200   -5.5530   -6.6090 O.3   433  XG4433     -0.1252
     22  O2G      -57.1710   -3.5130   -5.7110 O.3   433  XG4433     -0.1143
     23  C3'      -50.7080   -6.2420   -8.5820 C.3   433  XG4433      0.1857
     24  O3'      -51.6960   -7.1310   -8.3060 O.3   433  XG4433     -0.2203
     25  N3A      -52.7570   -3.2660   -7.1400 N.3   433  XG4433     -0.0179
     26  O3B      -54.9040   -4.1540   -5.9300 O.3   433  XG4433     -0.1901
     27  O3G      -55.6240   -2.1910   -4.9290 O.3   433  XG4433     -0.1143
     28  C4'      -50.7400   -5.5940   -9.9590 C.3   433  XG4433      0.1774
     29  O4'      -49.4800   -5.1690  -10.2950 O.3   433  XG4433     -0.3347
     30  C5'      -51.7220   -4.3830   -9.9230 C.3   433  XG4433      0.1848
     31  O5'      -51.2990   -3.2250   -9.2030 O.3   433  XG4433     -0.2775
@<TRIPOS>BOND
     1    29    28    1
     2    29    15    1
     3    28    30    1
     4    28    23    1
     5    30    31    1
     6    15    11    1
     7    15    19    1
     8    31    12    1
     9    16    12    2
    10     4     5    2
    11     4     2    2
    12     3     2    1
    13    11     5    1
    14    11    10    1
    15    19    23    1
    16    23    24    1
    17     5     6    1
    18     2     1    2
    19    12    20    1
    20    12    25    1
    21    17    13    2
    22    10     9    1
    23     6     9    2
    24     6     7    1
    25     1     7    2
    26     7     8    2
    27    25    13    1
    28    18    14    2
    29    13    21    1
    30    13    26    1
    31    14    26    1
    32    14    22    1
    33    14    27    1
