@<TRIPOS>MOLECULE
3mr6_XG4_A_1.pdb
 31 33 0 0 0
SMALL
GASTEIGER

@<TRIPOS>ATOM
      1  N1       -23.7390  -49.7660   -7.5920 N.2   433  XG4433     -0.2485
      2  C2       -22.6730  -50.0050   -6.7630 C.1   433  XG4433      0.2531
      3  N2       -22.4070  -51.2790   -6.4350 N.pl3 433  XG4433     -0.0226
      4  N3       -21.9280  -48.9950   -6.2660 N.2   433  XG4433     -0.3074
      5  C4       -22.1710  -47.6960   -6.6140 C.2   433  XG4433      0.2299
      6  C5       -23.3150  -47.4140   -7.4700 C.2   433  XG4433      0.2182
      7  C6       -24.0830  -48.5170   -8.0190 C.1   433  XG4433      0.2372
      8  O6       -25.0270  -48.3090   -8.7440 O.2   433  XG4433     -0.2069
      9  N7       -23.3620  -46.1010   -7.6730 N.2   433  XG4433     -0.2322
     10  C8       -22.4200  -45.5170   -6.9900 C.3   433  XG4433      0.2245
     11  N9       -21.6480  -46.4550   -6.2800 N.pl3 433  XG4433     -0.2374
     12  PA       -21.4790  -41.2020   -6.5430 P.3   433  XG4433      0.4623
     13  PB       -18.7800  -40.9560   -7.9510 P.3   433  XG4433      0.4700
     14  PG       -19.0050  -38.3450   -8.9170 P.3   433  XG4433      0.5397
     15  C1'      -20.4740  -46.2150   -5.4000 C.3   433  XG4433      0.1981
     16  O1A      -21.1380  -40.2230   -5.8420 O.3   433  XG4433     -0.1255
     17  O1B      -18.4100  -40.5290   -6.7800 O.3   433  XG4433     -0.1252
     18  O1G      -19.6240  -38.1330   -7.7620 O.3   433  XG4433     -0.1143
     19  C2'      -19.2200  -46.0340   -6.2920 C.3   433  XG4433      0.0865
     20  O2A      -22.8010  -41.3770   -7.0940 O.2   433  XG4433     -0.2354
     21  O2B      -18.2260  -42.0460   -8.3710 O.2   433  XG4433     -0.2350
     22  O2G      -17.9060  -37.5150   -9.1250 O.3   433  XG4433     -0.1143
     23  C3'      -18.9310  -44.5460   -6.3380 C.3   433  XG4433      0.1857
     24  O3'      -17.7050  -44.1250   -6.6000 O.3   433  XG4433     -0.2203
     25  N3A      -20.4460  -41.3290   -7.8340 N.3   433  XG4433     -0.0179
     26  O3B      -18.5350  -39.8150   -9.0220 O.3   433  XG4433     -0.1901
     27  O3G      -19.8890  -38.1610  -10.0310 O.2   433  XG4433     -0.2220
     28  C4'      -19.5500  -44.1800   -4.9550 C.3   433  XG4433      0.1774
     29  O4'      -20.5330  -45.0810   -4.6480 O.3   433  XG4433     -0.3347
     30  C5'      -20.1060  -42.7380   -4.9860 C.3   433  XG4433      0.1848
     31  O5'      -21.3450  -42.4580   -5.6870 O.3   433  XG4433     -0.2775
@<TRIPOS>BOND
     1    27    14    2
     2    22    14    1
     3    26    14    1
     4    26    13    1
     5    14    18    1
     6     8     7    2
     7    21    13    2
     8     7     1    2
     9     7     6    1
    10    13    25    1
    11    13    17    1
    12    25    12    1
    13     9     6    2
    14     9    10    1
    15     1     2    2
    16     6     5    1
    17    20    12    2
    18    10    11    1
    19     2     3    1
    20     2     4    2
    21     5    11    1
    22     5     4    2
    23    24    23    1
    24    12    16    1
    25    12    31    1
    26    23    19    1
    27    23    28    1
    28    19    15    1
    29    11    15    1
    30    31    30    1
    31    15    29    1
    32    30    28    1
    33    28    29    1
