@<TRIPOS>MOLECULE
3mrt_12E_A_1.pdb
 23 24 0 0 0
SMALL
GASTEIGER

@<TRIPOS>ATOM
      1  C1        19.2170   14.8630   55.6580 C.3   920  12E920      0.2439
      2  N1        18.8880   13.5550   55.1020 N.am  920  12E920     -0.1850
      3  S1        18.1140   12.6850   57.5030 S.2   920  12E920     -0.0134
      4  C2        20.6140   15.3230   55.1970 C.3   920  12E920      0.2326
      5  N2        18.0670   11.4130   55.1920 N.am  920  12E920     -0.0932
      6  O2        21.6480   14.5200   55.7920 O.3   920  12E920     -0.2157
      7  C3        20.8240   16.8040   55.5630 C.3   920  12E920      0.2190
      8  N3        18.0890   11.3500   53.9380 N.2   920  12E920     -0.1555
      9  O3        22.0730   17.2840   55.0420 O.3   920  12E920     -0.2174
     10  C4        19.6710   17.6650   55.0450 C.3   920  12E920      0.2144
     11  N4        17.8320    9.9150   49.0880 N.ar  920  12E920     -0.2423
     12  O4        19.7940   19.0140   55.4950 O.3   920  12E920     -0.2176
     13  C5        18.3450   17.0980   55.5400 C.3   920  12E920      0.1828
     14  O5        18.2270   15.7400   55.1020 O.3   920  12E920     -0.3315
     15  C6        17.1460   17.8820   55.0270 C.3   920  12E920      0.2142
     16  O6        15.9760   17.0970   55.2810 O.3   920  12E920     -0.2176
     17  C7        18.3720   12.5500   55.8200 C.2   920  12E920      0.1965
     18  C8        17.7870   10.2760   53.3350 C.2   920  12E920      0.1197
     19  C9        17.8100   10.1650   51.8490 C.ar  920  12E920      0.0238
     20  C10       18.4340   11.1300   51.0560 C.ar  920  12E920      0.0223
     21  C11       18.4300   10.9780   49.6640 C.ar  920  12E920      0.0989
     22  C12       17.2280    8.9620   49.8270 C.ar  920  12E920      0.0989
     23  C13       17.1990    9.0750   51.2210 C.ar  920  12E920      0.0223
@<TRIPOS>BOND
     1    11    21   ar
     2    11    22   ar
     3    21    20   ar
     4    22    23   ar
     5    20    19   ar
     6    23    19   ar
     7    19    18    1
     8    18     8    2
     9     8     5    1
    10    15    16    1
    11    15    13    1
    12     9     7    1
    13    10    12    1
    14    10    13    1
    15    10     7    1
    16     2     1    1
    17     2    17    1
    18    14    13    1
    19    14     1    1
    20     5    17    1
    21     4     7    1
    22     4     1    1
    23     4     6    1
    24    17     3    2
