@<TRIPOS>MOLECULE
3mrv_16F_A_1.pdb
 24 25 0 0 0
SMALL
GASTEIGER

@<TRIPOS>ATOM
      1  C1        19.1840   14.9040   55.8610 C.3   920  16F920      0.2439
      2  N1        18.7750   13.6190   55.2950 N.am  920  16F920     -0.1850
      3  S1        18.2150   12.6870   57.7310 S.2   920  16F920     -0.0134
      4  C2        20.5850   15.3640   55.3960 C.3   920  16F920      0.2326
      5  N2        17.9290   11.4760   55.3970 N.am  920  16F920     -0.0932
      6  O2        21.6350   14.5900   56.0150 O.3   920  16F920     -0.2157
      7  C3        20.7750   16.8640   55.7190 C.3   920  16F920      0.2190
      8  N3        17.9580   11.3500   54.1530 N.2   920  16F920     -0.1555
      9  O3        22.0410   17.3970   55.2670 O.3   920  16F920     -0.2174
     10  C4        19.6060   17.6990   55.1750 C.3   920  16F920      0.2144
     11  O4        19.7280   19.0430   55.6160 O.3   920  16F920     -0.2176
     12  C5        18.2950   17.1360   55.7100 C.3   920  16F920      0.1828
     13  O5        18.1960   15.7690   55.3020 O.3   920  16F920     -0.3315
     14  C6        17.0570   17.8790   55.2230 C.3   920  16F920      0.2142
     15  O6        15.9180   17.0130   55.3920 O.3   920  16F920     -0.2176
     16  C7        18.3040   12.5990   56.0240 C.2   920  16F920      0.1965
     17  O7        18.3600   11.4260   48.8960 O.3   920  16F920     -0.2866
     18  C8        17.5810   10.2610   53.6360 C.2   920  16F920      0.1197
     19  C9        17.5330   10.0030   52.1700 C.ar  920  16F920      0.0239
     20  C10       18.0210   10.9040   51.2180 C.ar  920  16F920      0.0436
     21  C11       17.8950   10.5850   49.8540 C.ar  920  16F920      0.1958
     22  C12       17.2750    9.4030   49.4450 C.ar  920  16F920      0.0420
     23  C13       16.7750    8.5160   50.3890 C.ar  920  16F920      0.0033
     24  C14       16.8920    8.8340   51.7430 C.ar  920  16F920      0.0018
@<TRIPOS>BOND
     1    17    21    1
     2    22    21   ar
     3    22    23   ar
     4    21    20   ar
     5    23    24   ar
     6    20    19   ar
     7    24    19   ar
     8    19    18    1
     9    18     8    2
    10     8     5    1
    11    10    11    1
    12    10    12    1
    13    10     7    1
    14    14    15    1
    15    14    12    1
    16     9     7    1
    17     2     1    1
    18     2    16    1
    19    13    12    1
    20    13     1    1
    21     4     7    1
    22     4     1    1
    23     4     6    1
    24     5    16    1
    25    16     3    2
