@<TRIPOS>MOLECULE
3mrx_17S_A_1.pdb
 25 26 0 0 0
SMALL
GASTEIGER

@<TRIPOS>ATOM
      1  C1        19.3590   15.2360   56.1620 C.3   920  17S920      0.2439
      2  N1        18.9160   13.9420   55.6700 N.am  920  17S920     -0.1850
      3  S1        18.4350   13.1230   58.1600 S.2   920  17S920     -0.0134
      4  C2        20.6970   15.5840   55.4940 C.3   920  17S920      0.2326
      5  N2        18.0590   11.8350   55.9170 N.am  920  17S920     -0.0932
      6  O2        21.7350   14.7060   55.9440 O.3   920  17S920     -0.2157
      7  C3        21.0550   17.0400   55.7940 C.3   920  17S920      0.2190
      8  N3        18.0790   11.7090   54.6820 N.2   920  17S920     -0.1555
      9  O3        22.2580   17.4080   55.1060 O.3   920  17S920     -0.2174
     10  C4        19.9250   17.9570   55.3320 C.3   920  17S920      0.2144
     11  O4        20.1820   19.3100   55.7230 O.3   920  17S920     -0.2176
     12  C5        18.5760   17.5310   55.9030 C.3   920  17S920      0.1828
     13  O5        18.3350   16.1300   55.7160 O.3   920  17S920     -0.3315
     14  C6        17.4770   18.2760   55.1650 C.3   920  17S920      0.2142
     15  O6        16.5110   18.6540   56.1410 O.3   920  17S920     -0.2176
     16  C7        18.4660   12.9680   56.4690 C.2   920  17S920      0.1965
     17  O7        17.5630    9.6100   48.6660 O.3   920  17S920     -0.4714
     18  C8        17.6910   10.6330   54.1800 C.2   920  17S920      0.1196
     19  C9        17.6890   10.4110   52.7220 C.ar  920  17S920      0.0210
     20  C10       18.3900   11.2440   51.8430 C.ar  920  17S920      0.0047
     21  C11       18.3540   10.9820   50.4760 C.ar  920  17S920      0.0370
     22  C12       17.6190    9.8870   50.0030 C.ar  920  17S920      0.1387
     23  C13       16.9210    9.0670   50.8860 C.ar  920  17S920      0.0370
     24  C14       16.9530    9.3350   52.2470 C.ar  920  17S920      0.0047
     25  C15       17.3370    8.2610   48.2620 C.3   920  17S920      0.2525
@<TRIPOS>BOND
     1    25    17    1
     2    17    22    1
     3    22    21   ar
     4    22    23   ar
     5    21    20   ar
     6    23    24   ar
     7    20    19   ar
     8    24    19   ar
     9    19    18    1
    10    18     8    2
    11     8     5    1
    12     9     7    1
    13    14    12    1
    14    14    15    1
    15    10    11    1
    16    10     7    1
    17    10    12    1
    18     4     7    1
    19     4     6    1
    20     4     1    1
    21     2     1    1
    22     2    16    1
    23    13    12    1
    24    13     1    1
    25     5    16    1
    26    16     3    2
