@<TRIPOS>MOLECULE
3mry_ADE_A_1.pdb
 10 11 0 0 0
SMALL
GASTEIGER

@<TRIPOS>ATOM
      1  N9       113.0880   14.4240   -4.5910 N.2   247  ADE247     -0.1914
      2  C8       114.3500   14.5430   -5.0860 C.3   247  ADE247      0.2618
      3  N7       115.1700   14.9600   -4.1340 N.2   247  ADE247     -0.2267
      4  C5       114.4240   15.1440   -2.9930 C.2   247  ADE247      0.2303
      5  C6       114.7300   15.5730   -1.6580 C.2   247  ADE247      0.4393
      6  N6       115.9750   15.9450   -1.2470 N.pl3 247  ADE247      0.2185
      7  N1       113.7200   15.6090   -0.7620 N.2   247  ADE247     -0.0265
      8  C2       112.4590   15.2470   -1.1130 C.3   247  ADE247      0.4008
      9  N3       112.0920   14.8380   -2.3670 N.2   247  ADE247     -0.1640
     10  C4       113.1130   14.8070   -3.2580 C.1   247  ADE247      0.0579
@<TRIPOS>BOND
     1     2     1    1
     2     2     3    1
     3     1    10    2
     4     3     4    2
     5    10     4    1
     6    10     9    2
     7     4     5    1
     8     9     8    1
     9     5     6    1
    10     5     7    2
    11     8     7    1
