@<TRIPOS>MOLECULE
3ms2_18S_A_1.pdb
 24 25 0 0 0
SMALL
GASTEIGER

@<TRIPOS>ATOM
      1  C1        19.3350   14.9500   56.0300 C.3   920  18S920      0.2439
      2  N1        18.8510   13.6940   55.4910 N.am  920  18S920     -0.1850
      3  S1        18.4110   12.8680   57.9660 S.2   920  18S920     -0.0134
      4  C2        20.6050   15.3410   55.2690 C.3   920  18S920      0.2326
      5  N2        17.9330   11.6030   55.6760 N.am  920  18S920     -0.0932
      6  O2        21.6850   14.4590   55.5860 O.3   920  18S920     -0.2157
      7  C3        20.9460   16.7850   55.6180 C.3   920  18S920      0.2190
      8  N3        17.9240   11.5120   54.4310 N.2   920  18S920     -0.1555
      9  O3        22.1210   17.2090   54.9230 O.3   920  18S920     -0.2174
     10  C4        19.7860   17.6680   55.1760 C.3   920  18S920      0.2144
     11  O4        20.0570   19.0310   55.4920 O.3   920  18S920     -0.2176
     12  C5        18.4500   17.2430   55.7890 C.3   920  18S920      0.1828
     13  O5        18.2440   15.8270   55.7350 O.3   920  18S920     -0.3315
     14  C6        17.3240   17.8390   54.9590 C.3   920  18S920      0.2142
     15  O6        16.7780   18.9530   55.6660 O.3   920  18S920     -0.2176
     16  C7        18.3920   12.7150   56.2660 C.2   920  18S920      0.1965
     17  C8        17.5070   10.4650   53.8810 C.2   920  18S920      0.1196
     18  C9        17.4810   10.2820   52.4130 C.ar  920  18S920      0.0207
     19  C10       18.1800   11.1320   51.5460 C.ar  920  18S920      0.0013
     20  C11       18.1250   10.9010   50.1690 C.ar  920  18S920     -0.0042
     21  C12       17.3800    9.8250   49.6590 C.ar  920  18S920     -0.0218
     22  C13       16.6870    8.9830   50.5240 C.ar  920  18S920     -0.0042
     23  C14       16.7410    9.2180   51.8980 C.ar  920  18S920      0.0013
     24  C15       17.2990    9.5630   48.1750 C.3   920  18S920      0.0310
@<TRIPOS>BOND
     1    24    21    1
     2    21    20   ar
     3    21    22   ar
     4    20    19   ar
     5    22    23   ar
     6    19    18   ar
     7    23    18   ar
     8    18    17    1
     9    17     8    2
    10     8     5    1
    11     9     7    1
    12    14    15    1
    13    14    12    1
    14    10    11    1
    15    10     7    1
    16    10    12    1
    17     4     6    1
    18     4     7    1
    19     4     1    1
    20     2     1    1
    21     2    16    1
    22     5    16    1
    23    13    12    1
    24    13     1    1
    25    16     3    2
