@<TRIPOS>MOLECULE
3ms4_21N_A_1.pdb
 27 28 0 0 0
SMALL
GASTEIGER

@<TRIPOS>ATOM
      1  C1        19.4790   15.4430   56.7550 C.3   920  21N920      0.2439
      2  F1        17.1570   10.7620   48.5730 F     920  21N920     -0.1659
      3  N1        18.9460   14.1430   56.3770 N.am  920  21N920     -0.1850
      4  S1        18.7300   13.3210   58.7910 S.2   920  21N920     -0.0134
      5  C2        20.7910   15.7260   55.9940 C.3   920  21N920      0.2326
      6  F2        16.8830    8.6720   49.0060 F     920  21N920     -0.1659
      7  N2        17.9850   12.0840   56.7430 N.am  920  21N920     -0.0932
      8  O2        21.8220   14.7890   56.3610 O.3   920  21N920     -0.2157
      9  C3        21.2320   17.1830   56.2030 C.3   920  21N920      0.2190
     10  F3        18.8500    9.4930   48.9190 F     920  21N920     -0.1659
     11  N3        18.0440   11.8660   55.4420 N.2   920  21N920     -0.1555
     12  O3        22.3600   17.4910   55.3860 O.3   920  21N920     -0.2174
     13  C4        20.0900   18.1280   55.8150 C.3   920  21N920      0.2144
     14  O4        20.4820   19.4980   55.9930 O.3   920  21N920     -0.2176
     15  C5        18.8320   17.8040   56.6230 C.3   920  21N920      0.1828
     16  O5        18.4830   16.4260   56.4260 O.3   920  21N920     -0.3315
     17  C6        17.6270   18.6860   56.2650 C.3   920  21N920      0.2142
     18  O6        17.5420   18.9410   54.8520 O.3   920  21N920     -0.2176
     19  C7        18.5530   13.1870   57.2320 C.2   920  21N920      0.1965
     20  C8        17.4640   10.8850   54.9360 C.2   920  21N920      0.1196
     21  C9        17.5270   10.6260   53.4880 C.ar  920  21N920      0.0207
     22  C10       18.4130   11.3180   52.6520 C.ar  920  21N920      0.0015
     23  C11       18.4460   11.0380   51.2870 C.ar  920  21N920      0.0039
     24  C12       17.5880   10.0660   50.7520 C.ar  920  21N920      0.0714
     25  C13       16.7040    9.3840   51.5930 C.ar  920  21N920      0.0039
     26  C14       16.6730    9.6590   52.9580 C.ar  920  21N920      0.0015
     27  C15       17.6100    9.7460   49.2760 C.3   920  21N920      0.4186
@<TRIPOS>BOND
     1     2    27    1
     2    10    27    1
     3     6    27    1
     4    27    24    1
     5    24    23   ar
     6    24    25   ar
     7    23    22   ar
     8    25    26   ar
     9    22    21   ar
    10    26    21   ar
    11    21    20    1
    12    18    17    1
    13    20    11    2
    14    12     9    1
    15    11     7    1
    16    13    14    1
    17    13     9    1
    18    13    15    1
    19     5     9    1
    20     5     8    1
    21     5     1    1
    22    17    15    1
    23     3     1    1
    24     3    19    1
    25    16    15    1
    26    16     1    1
    27     7    19    1
    28    19     4    2
