@<TRIPOS>MOLECULE
3ms5_REE_A_1.pdb
 10 9 0 0 0
SMALL
GASTEIGER

@<TRIPOS>ATOM
      1  C1        21.4780   27.2900   88.0700 C.2   391  REE391      0.3663
      2  N1        21.8490   30.5560   87.9770 N.3   391  REE391     -0.2830
      3  O1        22.7250   27.2920   88.0060 O.co2 391  REE391     -0.2456
      4  C2        20.7030   28.4420   87.4420 C.3   391  REE391      0.1308
      5  N2        22.4660   31.8070   87.5960 N.4   391  REE391      0.4025
      6  O2        20.7640   26.3200   88.4500 O.co2 391  REE391     -0.2456
      7  C3        21.4610   29.6580   86.9080 C.3   391  REE391      0.0804
      8  C4        22.6400   32.5730   88.8550 C.3   391  REE391     -0.0686
      9  C5        23.8320   31.5590   87.0470 C.3   391  REE391     -0.0686
     10  C6        21.6880   32.5620   86.6080 C.3   391  REE391     -0.0686
@<TRIPOS>BOND
     1    10     5    1
     2     7     4    1
     3     7     2    1
     4     9     5    1
     5     4     1    1
     6     5     2    1
     7     5     8    1
     8     3     1   ar
     9     1     6   ar
