@<TRIPOS>MOLECULE
3ms7_22S_A_1.pdb
 24 25 0 0 0
SMALL
GASTEIGER

@<TRIPOS>ATOM
      1  C1        19.2880   15.0630   56.0290 C.3   920  22S920      0.2439
      2  N1        18.8250   13.7930   55.4700 N.am  920  22S920     -0.1850
      3  S1        18.1290   12.8390   57.8680 S.2   920  22S920     -0.0134
      4 CL1        15.8410    8.4530   52.4250 Cl    920  22S920     -0.0822
      5  C2        20.7150   15.4200   55.5570 C.3   920  22S920      0.2326
      6  N2        17.8770   11.6780   55.5420 N.am  920  22S920     -0.0932
      7  O2        21.7140   14.5490   56.1200 O.3   920  22S920     -0.2157
      8  C3        21.0330   16.8970   55.8930 C.3   920  22S920      0.2190
      9  N3        17.9680   11.5900   54.3030 N.2   920  22S920     -0.1555
     10  O3        16.2430   17.4800   55.2520 O.3   920  22S920     -0.2176
     11  C4        19.9380   17.8380   55.3710 C.3   920  22S920      0.2144
     12  O4        20.1350   19.1730   55.8480 O.3   920  22S920     -0.2176
     13  C5        18.5630   17.3680   55.8280 C.3   920  22S920      0.1828
     14  O5        18.3760   16.0000   55.4540 O.3   920  22S920     -0.3315
     15  C6        17.4710   18.2090   55.1750 C.3   920  22S920      0.2142
     16  O6        22.2920   17.3170   55.3480 O.3   920  22S920     -0.2174
     17  C7        18.2840   12.7840   56.1760 C.2   920  22S920      0.1965
     18  C8        17.5810   10.5640   53.6870 C.2   920  22S920      0.1204
     19  C9        17.7050   10.4870   52.2070 C.ar  920  22S920      0.0313
     20  C10       16.9470    9.5440   51.5130 C.ar  920  22S920      0.0592
     21  C11       17.0420    9.4390   50.1230 C.ar  920  22S920      0.0114
     22  C12       17.8970   10.3030   49.4330 C.ar  920  22S920      0.0009
     23  C13       18.6600   11.2540   50.1220 C.ar  920  22S920      0.0001
     24  C14       18.5600   11.3530   51.5130 C.ar  920  22S920      0.0024
@<TRIPOS>BOND
     1    22    23   ar
     2    22    21   ar
     3    23    24   ar
     4    21    20   ar
     5    24    19   ar
     6    20    19   ar
     7    20     4    1
     8    19    18    1
     9    18     9    2
    10     9     6    1
    11    15    10    1
    12    15    13    1
    13    16     8    1
    14    11    13    1
    15    11    12    1
    16    11     8    1
    17    14    13    1
    18    14     1    1
    19     2     1    1
    20     2    17    1
    21     6    17    1
    22     5     8    1
    23     5     1    1
    24     5     7    1
    25    17     3    2
