@<TRIPOS>MOLECULE
3ms9_MS9_A_1.pdb
 12 12 0 0 0
SMALL
GASTEIGER

@<TRIPOS>ATOM
      1 CL1         0.7270   59.3390   30.6650 Cl    516  MS9516     -0.0822
      2  C2        -1.0090   59.5870   30.6490 C.ar  516  MS9516      0.0590
      3  C3        -1.5350   60.7680   31.1300 C.ar  516  MS9516      0.0297
      4  C5        -2.9460   61.0210   31.1330 C.ar  516  MS9516      0.0961
      5  C6        -3.8140   59.9850   30.6730 C.ar  516  MS9516      0.0924
      6  C7        -3.2540   58.7330   30.2470 C.ar  516  MS9516      0.0087
      7  C9        -1.8400   58.5370   30.1770 C.ar  516  MS9516      0.0117
      8  C11       -5.3180   60.1280   30.7220 C.2   516  MS9516      0.3426
      9  O12       -5.7870   61.2060   31.1880 O.2   516  MS9516     -0.2448
     10  O13       -6.0540   59.0040   30.3850 O.3   516  MS9516     -0.4413
     11  C14       -7.4530   59.3670   30.3020 C.3   516  MS9516      0.2560
     12  N18       -3.3820   62.2270   31.6190 N.pl3 516  MS9516     -0.1278
@<TRIPOS>BOND
     1     7     6   ar
     2     7     2   ar
     3     6     5   ar
     4    11    10    1
     5    10     8    1
     6     2     1    1
     7     2     3   ar
     8     5     8    1
     9     5     4   ar
    10     8     9    2
    11     3     4   ar
    12     4    12    1
