@<TRIPOS>MOLECULE
3ms9_STI_A_1.pdb
 37 41 0 0 0
SMALL
GASTEIGER

@<TRIPOS>ATOM
      1  C1        12.1890   62.3220   12.2330 C.ar    1  STI1        0.0208
      2  C6        13.2680   61.5350   12.5580 C.ar    1  STI1        0.0057
      3  C5        13.2690   60.1920   12.1410 C.ar    1  STI1        0.0497
      4  C4        12.1430   59.7020   11.3930 C.ar    1  STI1        0.1014
      5  N3        11.0580   60.4740   11.1050 N.ar    1  STI1       -0.2422
      6  C2        11.1200   61.7990   11.4860 C.ar    1  STI1        0.0989
      7  C7        14.4290   59.3300   12.5010 C.2     1  STI1        0.1472
      8  C12       15.5850   59.7190   13.1670 C.2     1  STI1        0.0546
      9  C11       16.5940   58.7810   13.4410 C.2     1  STI1        0.1144
     10  N10       16.4250   57.4910   13.0250 N.2     1  STI1       -0.1683
     11  C9        15.2980   57.1420   12.3980 C.1     1  STI1        0.1696
     12  N8        14.3100   58.0430   12.1120 N.2     1  STI1       -0.3361
     13  N13       15.1260   55.8510   12.0440 N.pl3   1  STI1       -0.1360
     14  C14       16.1460   54.9370   12.2620 C.ar    1  STI1        0.0799
     15  C19       17.1580   54.7290   11.3310 C.ar    1  STI1       -0.0057
     16  C18       18.1070   53.7150   11.5370 C.ar    1  STI1       -0.0016
     17  C17       18.0990   52.8690   12.6370 C.ar    1  STI1        0.0164
     18  C16       17.0710   53.0630   13.5670 C.ar    1  STI1        0.0750
     19  C15       16.0760   54.0290   13.3120 C.ar    1  STI1        0.0336
     20  N21       16.9880   52.1140   14.5980 N.am    1  STI1       -0.1754
     21  C22       16.0810   51.9280   15.5970 C.2     1  STI1        0.2690
     22  C23       16.1180   50.7370   16.4600 C.ar    1  STI1        0.0554
     23  C25       14.9330   50.4210   17.1300 C.ar    1  STI1        0.0043
     24  C26       14.9180   49.3580   17.9830 C.ar    1  STI1       -0.0028
     25  C27       16.0590   48.5440   18.1690 C.ar    1  STI1       -0.0061
     26  C28       17.2330   48.8510   17.5230 C.ar    1  STI1       -0.0028
     27  C29       17.2800   49.9760   16.6810 C.ar    1  STI1        0.0043
     28  C46       15.9410   47.3540   19.1380 C.3     1  STI1        0.0992
     29  N48       17.1580   47.2420   19.9840 N.3     1  STI1       -0.2665
     30  C53       17.3790   48.4880   20.8070 C.3     1  STI1        0.0899
     31  C52       18.6950   48.3570   21.5730 C.3     1  STI1        0.0897
     32  N51       18.7430   47.1270   22.4500 N.3     1  STI1       -0.2691
     33  C54       20.0740   47.0630   23.1310 C.3     1  STI1        0.0897
     34  C50       18.4660   45.8670   21.6380 C.3     1  STI1        0.0897
     35  C49       17.0950   46.0260   20.8830 C.3     1  STI1        0.0899
     36  O29       15.2210   52.7770   15.8220 O.2     1  STI1       -0.2680
     37  C20       17.2290   55.5810   10.0810 C.3     1  STI1        0.0324
@<TRIPOS>BOND
     1    37    15    1
     2     5     4   ar
     3     5     6   ar
     4    15    16   ar
     5    15    14   ar
     6     4     3   ar
     7     6     1   ar
     8    16    17   ar
     9    13    14    1
    10    13    11    1
    11    12    11    2
    12    12     7    2
    13     3     7    1
    14     3     2   ar
    15     1     2   ar
    16    14    19   ar
    17    11    10    2
    18     7     8    1
    19    17    18   ar
    20    10     9    1
    21     8     9    2
    22    19    18   ar
    23    18    20    1
    24    20    21   am
    25    21    36    2
    26    21    22    1
    27    22    27   ar
    28    22    23   ar
    29    27    26   ar
    30    23    24   ar
    31    26    25   ar
    32    24    25   ar
    33    25    28    1
    34    28    29    1
    35    29    30    1
    36    29    35    1
    37    30    31    1
    38    35    34    1
    39    31    32    1
    40    34    32    1
    41    32    33    1
