@<TRIPOS>MOLECULE
3msc_24S_A_1.pdb
 26 27 0 0 0
SMALL
GASTEIGER

@<TRIPOS>ATOM
      1  C1        33.7100   22.9610   27.8900 C.3   843  24S843      0.2439
      2  C2        34.0320   23.1690   26.4020 C.3   843  24S843      0.2326
      3  O2        34.2440   24.5650   26.1430 O.3   843  24S843     -0.2157
      4  C3        32.9080   22.5740   25.5240 C.3   843  24S843      0.2190
      5  O3        33.2130   22.6300   24.1190 O.3   843  24S843     -0.2174
      6  C4        32.6290   21.1200   25.9320 C.3   843  24S843      0.2144
      7  O4        31.4910   20.6370   25.2130 O.3   843  24S843     -0.2176
      8  C5        32.4190   20.9830   27.4570 C.3   843  24S843      0.1828
      9  O5        33.5250   21.5590   28.1530 O.3   843  24S843     -0.3315
     10  C6        32.2470   19.5420   27.9380 C.3   843  24S843      0.2142
     11  O6        33.2500   18.6960   27.3600 O.3   843  24S843     -0.2176
     12  NAL       34.8640   23.3790   28.6770 N.am  843  24S843     -0.1850
     13  CAM       34.7490   24.0220   29.8450 C.2   843  24S843      0.1965
     14  NAN       35.8930   24.3300   30.4740 N.am  843  24S843     -0.0932
     15  SAO       33.2160   24.4450   30.4870 S.2   843  24S843     -0.0134
     16  NAP       35.8980   24.9380   31.5600 N.2   843  24S843     -0.1555
     17  CAQ       36.9940   25.2090   32.1240 C.2   843  24S843      0.1213
     18  CAR       37.0710   25.9160   33.4310 C.ar  843  24S843      0.0432
     19  CAS       36.0060   25.9480   34.3540 C.ar  843  24S843      0.1444
     20  CAT       36.1740   26.6110   35.5780 C.ar  843  24S843      0.0241
     21  CAU       37.3780   27.2410   35.8900 C.ar  843  24S843      0.0017
     22  CAV       38.4340   27.1970   34.9760 C.ar  843  24S843      0.0002
     23  CAW       38.2810   26.5360   33.7560 C.ar  843  24S843      0.0033
     24  NAX       34.7540   25.3350   34.1070 N.pl3 843  24S843      0.0577
     25  OAY       34.6280   24.1240   34.2130 O.2   843  24S843     -0.1261
     26  OAZ       33.7750   26.0010   33.7950 O.2   843  24S843     -0.1261
@<TRIPOS>BOND
     1     5     4    1
     2     7     6    1
     3     4     6    1
     4     4     2    1
     5     6     8    1
     6     3     2    1
     7     2     1    1
     8    11    10    1
     9     8    10    1
    10     8     9    1
    11     1     9    1
    12     1    12    1
    13    12    13    1
    14    13    14    1
    15    13    15    2
    16    14    16    1
    17    16    17    2
    18    17    18    1
    19    18    23   ar
    20    18    19   ar
    21    23    22   ar
    22    26    24    2
    23    24    25    2
    24    24    19    1
    25    19    20   ar
    26    22    21   ar
    27    20    21   ar
