@<TRIPOS>MOLECULE
3msd_XYP_A_1.pdb
 10 10 0 0 0
SMALL
GASTEIGER

@<TRIPOS>ATOM
      1  O4A      -33.5600  -14.9890 -111.4440 O.3   450  XYP450     -0.1869
      2  C1B      -33.7270  -15.3900 -110.1320 C.3   450  XYP450      0.3024
      3  C2B      -32.7530  -16.5450 -109.8040 C.3   450  XYP450      0.2434
      4  C3B      -32.8210  -16.8630 -108.3060 C.3   450  XYP450      0.2199
      5  C4B      -32.5120  -15.5900 -107.5310 C.3   450  XYP450      0.2143
      6  C5B      -33.5570  -14.5390 -107.8920 C.3   450  XYP450      0.1804
      7  O2B      -33.0790  -17.7060 -110.5640 O.3   450  XYP450     -0.2148
      8  O3B      -31.8810  -17.8740 -107.9760 O.3   450  XYP450     -0.2174
      9  O4B      -32.5170  -15.8380 -106.1140 O.3   450  XYP450     -0.2176
     10  O5B      -33.4650  -14.2460 -109.3000 O.3   450  XYP450     -0.3237
@<TRIPOS>BOND
     1     1     2    1
     2     7     3    1
     3     2     3    1
     4     2    10    1
     5     3     4    1
     6    10     6    1
     7     4     8    1
     8     4     5    1
     9     6     5    1
    10     5     9    1
