@<TRIPOS>MOLECULE
3msg_XYP_A_1.pdb
 10 10 0 0 0
SMALL
GASTEIGER

@<TRIPOS>ATOM
      1  O4A      -34.4630   -8.8440 -112.6410 O.3   449  XYP449     -0.1869
      2  C1B      -33.7330  -10.0090 -112.4560 C.3   449  XYP449      0.3024
      3  C2B      -32.4450   -9.6970 -111.6890 C.3   449  XYP449      0.2434
      4  C3B      -31.6960  -10.9900 -111.3560 C.3   449  XYP449      0.2199
      5  C4B      -32.6250  -11.9850 -110.6530 C.3   449  XYP449      0.2143
      6  C5B      -33.8880  -12.1970 -111.4920 C.3   449  XYP449      0.1804
      7  O2B      -31.6150   -8.8530 -112.4740 O.3   449  XYP449     -0.2148
      8  O3B      -30.5860  -10.6980 -110.5200 O.3   449  XYP449     -0.2174
      9  O4B      -31.9560  -13.2260 -110.4730 O.3   449  XYP449     -0.2176
     10  O5B      -34.5470  -10.9350 -111.7170 O.3   449  XYP449     -0.3237
@<TRIPOS>BOND
     1     1     2    1
     2     7     3    1
     3     2    10    1
     4     2     3    1
     5    10     6    1
     6     3     4    1
     7     6     5    1
     8     4     5    1
     9     4     8    1
    10     5     9    1
