@<TRIPOS>MOLECULE
3msj_EV3_A_1.pdb
 15 16 0 0 0
SMALL
GASTEIGER

@<TRIPOS>ATOM
      1  C1       -15.6340  -89.6560   14.0260 C.2   393  EV3393      0.0424
      2  C2       -15.8830  -90.8130   14.7710 C.3   393  EV3393      0.0654
      3  C3       -16.2310  -89.4610   12.7880 C.2   393  EV3393      0.0408
      4  C4       -16.7300  -91.8010   14.2700 C.2   393  EV3393     -0.0030
      5  C5       -17.0620  -90.4490   12.3160 C.2   393  EV3393      0.1483
      6  C6       -17.3080  -91.5930   13.0300 C.2   393  EV3393      0.0806
      7  N7       -17.7180  -90.4790   11.1580 N.2   393  EV3393     -0.3691
      8  C8       -18.3760  -91.6460   11.1740 C.cat 393  EV3393      0.2818
      9  N9       -18.1390  -92.3430   12.3060 N.pl3 393  EV3393     -0.2460
     10  N10      -19.2000  -92.0490   10.1220 N.pl3 393  EV3393     -0.0777
     11  C11      -18.6910  -93.6610   12.6910 C.3   393  EV3393      0.1020
     12  C12      -20.1930  -93.5820   12.9780 C.3   393  EV3393      0.0574
     13  C13      -20.9330  -94.8750   12.6780 C.3   393  EV3393      0.1839
     14  O14      -20.4630  -95.9300   13.4960 O.3   393  EV3393     -0.2204
     15 CL15      -14.5810  -88.4500   14.6420 Cl    393  EV3393     -0.0865
@<TRIPOS>BOND
     1    10     8    1
     2     7     8    2
     3     7     5    2
     4     8     9    1
     5     9    11    1
     6     9     6    1
     7     5     3    1
     8     5     6    1
     9    13    12    1
    10    13    14    1
    11    11    12    1
    12     3     1    2
    13     6     4    2
    14     1    15    1
    15     1     2    1
    16     4     2    1
