@<TRIPOS>MOLECULE
3msk_EV4_A_1.pdb
 24 26 0 0 0
SMALL
GASTEIGER

@<TRIPOS>ATOM
      1  C1        16.4360  -40.4020   10.7990 C.2   396  EV4396     -0.0030
      2  C2        16.1270  -40.0880    9.4680 C.2   396  EV4396      0.0805
      3  C3        16.2950  -38.6630    8.9940 C.2   396  EV4396      0.1483
      4  C4        16.7320  -37.6900    9.8770 C.2   396  EV4396      0.0408
      5  C5        17.0050  -38.0750   11.2060 C.2   396  EV4396      0.0424
      6  C6        16.8850  -39.3950   11.6600 C.3   396  EV4396      0.0654
      7 CL7        17.5870  -36.8000   12.3120 Cl    396  EV4396     -0.0865
      8  N8        15.6600  -40.8290    8.4290 N.pl3 396  EV4396     -0.2461
      9  C9        15.5780  -39.9150    7.4020 C.cat 396  EV4396      0.2818
     10  N10       15.9450  -38.6290    7.6980 N.2   396  EV4396     -0.3691
     11  N11       15.1920  -40.2020    6.1240 N.pl3 396  EV4396     -0.0777
     12  C12       15.3910  -42.2880    8.4970 C.3   396  EV4396      0.0998
     13  C13       16.5360  -43.0620    7.8420 C.3   396  EV4396      0.0315
     14  C14       17.8880  -42.3610    7.8490 C.3   396  EV4396      0.0871
     15  C15       18.5540  -42.6200    9.2120 C.2   396  EV4396      0.2257
     16  O16       18.2180  -43.6410    9.8190 O.2   396  EV4396     -0.2749
     17  N17       19.4970  -41.7650    9.7100 N.am  396  EV4396     -0.2794
     18  C18       20.1760  -41.9210   11.0060 C.3   396  EV4396      0.1148
     19  C19       19.8440  -40.5630    8.9470 C.3   396  EV4396      0.0754
     20  C20       21.0020  -39.8530    9.6330 C.3   396  EV4396      0.0198
     21  C21       21.1580  -38.5200    8.9190 C.3   396  EV4396      0.0017
     22  C22       21.2570  -38.6860    7.4070 C.3   396  EV4396      0.0001
     23  C23       20.2680  -39.6870    6.7830 C.3   396  EV4396      0.0017
     24  C24       20.3040  -40.9910    7.5620 C.3   396  EV4396      0.0198
@<TRIPOS>BOND
     1    11     9    1
     2    23    22    1
     3    23    24    1
     4     9    10    2
     5     9     8    1
     6    22    21    1
     7    24    19    1
     8    10     3    2
     9    13    14    1
    10    13    12    1
    11    14    15    1
    12     8    12    1
    13     8     2    1
    14    21    20    1
    15    19    20    1
    16    19    17    1
    17     3     2    1
    18     3     4    1
    19    15    17   am
    20    15    16    2
    21     2     1    2
    22    17    18    1
    23     4     5    2
    24     1     6    1
    25     5     6    1
    26     5     7    1
