@<TRIPOS>MOLECULE
3msl_EV5_A_1.pdb
 25 27 0 0 0
SMALL
GASTEIGER

@<TRIPOS>ATOM
      1  C1        16.1240  -39.8010    9.4860 C.2   395  EV5395      0.0805
      2  C2        16.3290  -40.1780   10.8120 C.2   395  EV5395     -0.0030
      3  C3        16.7120  -39.2160   11.7480 C.3   395  EV5395      0.0654
      4  C4        16.8960  -37.8790   11.3850 C.2   395  EV5395      0.0424
      5  C5        16.7030  -37.4520   10.0710 C.2   395  EV5395      0.0408
      6  C6        16.3210  -38.3730    9.1020 C.2   395  EV5395      0.1483
      7  N7        16.0640  -38.2780    7.7840 N.2   395  EV5395     -0.3691
      8  C8        15.7430  -39.5300    7.4130 C.cat 395  EV5395      0.2818
      9  N9        15.7630  -40.4650    8.3790 N.pl3 395  EV5395     -0.2473
     10  N10       15.4230  -39.7900    6.1210 N.pl3 395  EV5395     -0.0777
     11 CL11       17.3890  -36.6830   12.6280 Cl    395  EV5395     -0.0865
     12  C12       15.4640  -41.9290    8.3070 C.3   395  EV5395      0.0900
     13  C13       14.0700  -42.1990    7.7390 C.3   395  EV5395      0.0207
     14  C14       12.9790  -41.6580    8.6390 C.3   395  EV5395      0.0018
     15  C15       16.5270  -42.6560    7.4810 C.3   395  EV5395      0.1069
     16  C16       17.9150  -42.3890    8.0250 C.2   395  EV5395      0.2431
     17  N17       18.7410  -41.7300    7.2110 N.am  395  EV5395     -0.2054
     18  O18       18.2320  -42.7680    9.1430 O.2   395  EV5395     -0.2733
     19  C19       20.1270  -41.3260    7.4290 C.3   395  EV5395      0.1151
     20  C20       20.0900  -39.9460    8.0830 C.3   395  EV5395      0.0217
     21  C21       19.5460  -38.9000    7.1070 C.3   395  EV5395      0.0018
     22  C22       19.5480  -37.5000    7.7230 C.3   395  EV5395      0.0001
     23  C23       20.9360  -37.1020    8.2270 C.3   395  EV5395      0.0000
     24  C24       21.5370  -38.1630    9.1510 C.3   395  EV5395      0.0001
     25  C25       21.5040  -39.5570    8.5210 C.3   395  EV5395      0.0018
@<TRIPOS>BOND
     1    10     8    1
     2    21    22    1
     3    21    20    1
     4    17    19    1
     5    17    16   am
     6     8     7    2
     7     8     9    1
     8    19    20    1
     9    15    16    1
    10    15    12    1
    11    22    23    1
    12    13    12    1
    13    13    14    1
    14     7     6    2
    15    16    18    2
    16    20    25    1
    17    23    24    1
    18    12     9    1
    19     9     1    1
    20    25    24    1
    21     6     1    1
    22     6     5    1
    23     1     2    2
    24     5     4    2
    25     2     3    1
    26     4     3    1
    27     4    11    1
