@<TRIPOS>MOLECULE
3mss_STI_A_1.pdb
 37 41 0 0 0
SMALL
GASTEIGER

@<TRIPOS>ATOM
      1  C1        12.1740   -7.7580  -12.2800 C.ar    1  STI1        0.0208
      2  C6        13.2420   -6.8940  -12.6080 C.ar    1  STI1        0.0057
      3  C5        13.2730   -5.5430  -12.1860 C.ar    1  STI1        0.0497
      4  C4        12.1580   -5.0120  -11.4650 C.ar    1  STI1        0.1014
      5  N3        11.1130   -5.8340  -11.1540 N.ar    1  STI1       -0.2422
      6  C2        11.1090   -7.1770  -11.5430 C.ar    1  STI1        0.0989
      7  C7        14.4360   -4.6660  -12.5470 C.2     1  STI1        0.1472
      8  C12       15.5680   -5.0910  -13.2020 C.2     1  STI1        0.0546
      9  C11       16.6010   -4.1910  -13.5170 C.2     1  STI1        0.1144
     10  N10       16.4580   -2.9130  -13.1430 N.2     1  STI1       -0.1683
     11  C9        15.3730   -2.4990  -12.4940 C.1     1  STI1        0.1696
     12  N8        14.3770   -3.3660  -12.2080 N.2     1  STI1       -0.3361
     13  N13       15.2200   -1.1850  -12.1490 N.pl3   1  STI1       -0.1360
     14  C14       16.2320   -0.2900  -12.3010 C.ar    1  STI1        0.0799
     15  C19       17.2530   -0.1650  -11.3470 C.ar    1  STI1       -0.0057
     16  C18       18.2610    0.7770  -11.5650 C.ar    1  STI1       -0.0016
     17  C17       18.2340    1.6420  -12.6630 C.ar    1  STI1        0.0164
     18  C16       17.2140    1.4930  -13.6000 C.ar    1  STI1        0.0750
     19  C15       16.1970    0.5760  -13.3820 C.ar    1  STI1        0.0336
     20  N21       17.0940    2.4560  -14.6380 N.am    1  STI1       -0.1754
     21  C22       16.1470    2.5670  -15.5750 C.2     1  STI1        0.2690
     22  C23       16.2030    3.7690  -16.4620 C.ar    1  STI1        0.0554
     23  C25       15.0180    4.0990  -17.1200 C.ar    1  STI1        0.0043
     24  C26       15.0260    5.2170  -17.9450 C.ar    1  STI1       -0.0028
     25  C27       16.1740    6.0130  -18.1110 C.ar    1  STI1       -0.0061
     26  C28       17.3550    5.6850  -17.4590 C.ar    1  STI1       -0.0028
     27  C29       17.3700    4.5500  -16.5990 C.ar    1  STI1        0.0043
     28  C46       16.0880    7.2240  -19.1170 C.3     1  STI1        0.0992
     29  N48       17.2130    7.2780  -20.1310 N.3     1  STI1       -0.2665
     30  C53       17.4420    6.0920  -21.0070 C.3     1  STI1        0.0899
     31  C52       18.8110    6.2720  -21.6850 C.3     1  STI1        0.0897
     32  N51       18.8990    7.5290  -22.4820 N.3     1  STI1       -0.2691
     33  C54       20.2810    7.4830  -23.0750 C.3     1  STI1        0.0897
     34  C50       18.6760    8.7440  -21.6280 C.3     1  STI1        0.0897
     35  C49       17.2780    8.5720  -20.9530 C.3     1  STI1        0.0899
     36  O29       15.2630    1.7440  -15.8230 O.2     1  STI1       -0.2680
     37  C20       17.3530   -1.1120  -10.1240 C.3     1  STI1        0.0324
@<TRIPOS>BOND
     1    33    32    1
     2    32    31    1
     3    32    34    1
     4    31    30    1
     5    34    35    1
     6    30    29    1
     7    35    29    1
     8    29    28    1
     9    28    25    1
    10    25    24   ar
    11    25    26   ar
    12    24    23   ar
    13    26    27   ar
    14    23    22   ar
    15    27    22   ar
    16    22    21    1
    17    36    21    2
    18    21    20   am
    19    20    18    1
    20    18    19   ar
    21    18    17   ar
    22     9     8    2
    23     9    10    1
    24    19    14   ar
    25     8     7    1
    26    10    11    2
    27    17    16   ar
    28     2     1   ar
    29     2     3   ar
    30     7    12    2
    31     7     3    1
    32    11    12    2
    33    11    13    1
    34    14    13    1
    35    14    15   ar
    36     1     6   ar
    37     3     4   ar
    38    16    15   ar
    39     6     5   ar
    40     4     5   ar
    41    15    37    1
