@<TRIPOS>MOLECULE
3mss_MS7_A_1.pdb
 21 22 0 0 0
SMALL
GASTEIGER

@<TRIPOS>ATOM
      1  N1       -11.2200   -3.2570  -32.8550 N.3   516  MS7516     -0.1227
      2  C4       -11.7960   -3.2280  -31.5030 C.3   516  MS7516      0.1736
      3  C6       -10.9210   -2.3020  -30.5940 C.3   516  MS7516      0.0548
      4  C9        -9.4190   -2.6690  -30.6740 C.ar  516  MS7516     -0.0200
      5  C10       -8.5230   -1.8830  -31.4210 C.ar  516  MS7516     -0.0011
      6  C12       -7.1530   -2.2020  -31.5140 C.ar  516  MS7516      0.0366
      7  C14       -6.6630   -3.3380  -30.8330 C.ar  516  MS7516      0.1390
      8  C15       -7.5440   -4.1240  -30.0780 C.ar  516  MS7516      0.0366
      9  C17       -8.9170   -3.7940  -29.9950 C.ar  516  MS7516     -0.0011
     10  O19       -5.3060   -3.6910  -30.8590 O.3   516  MS7516     -0.4706
     11  C20       -4.7980   -4.9980  -30.5120 C.3   516  MS7516      0.2320
     12  C23       -3.2950   -4.8830  -30.5210 C.ar  516  MS7516      0.0212
     13  C24       -2.6650   -3.6910  -30.1680 C.ar  516  MS7516     -0.0007
     14  C26       -1.2710   -3.6230  -30.1650 C.ar  516  MS7516     -0.0002
     15  C28       -0.5240   -4.7450  -30.5980 C.ar  516  MS7516     -0.0000
     16  C30       -1.1880   -5.8980  -31.0060 C.ar  516  MS7516     -0.0002
     17  C32       -2.5670   -5.9950  -30.9590 C.ar  516  MS7516     -0.0007
     18  C34      -13.2270   -2.7410  -31.5430 C.2   516  MS7516      0.2592
     19  O35      -13.3660   -1.5930  -31.9460 O.2   516  MS7516     -0.2718
     20  N36      -14.2810   -3.5390  -31.1410 N.am  516  MS7516     -0.2023
     21  C38      -15.6800   -3.0700  -31.1660 C.3   516  MS7516      0.1385
@<TRIPOS>BOND
     1     1     2    1
     2    19    18    2
     3    18     2    1
     4    18    20   am
     5     6     5   ar
     6     6     7   ar
     7     2     3    1
     8     5     4   ar
     9    21    20    1
    10    16    17   ar
    11    16    15   ar
    12    17    12   ar
    13    10     7    1
    14    10    11    1
    15     7     8   ar
    16     4     3    1
    17     4     9   ar
    18    15    14   ar
    19    12    11    1
    20    12    13   ar
    21    13    14   ar
    22     8     9   ar
