@<TRIPOS>MOLECULE
3msx_GDP_A_1.pdb
 28 30 0 0 0
SMALL
GASTEIGER

@<TRIPOS>ATOM
      1  PB        29.5050   33.3680   17.9470 P.3   181  GDP181      0.5373
      2  O1B       30.4960   34.3270   17.3320 O.3   181  GDP181     -0.1143
      3  O2B       28.2660   33.9950   18.5090 O.3   181  GDP181     -0.1143
      4  O3B       29.1740   32.2590   16.9540 O.2   181  GDP181     -0.2221
      5  O3A       30.2500   32.5880   19.1360 O.3   181  GDP181     -0.2261
      6  PA        31.6970   32.9160   19.7620 P.3   181  GDP181      0.2231
      7  O1A       31.7490   34.2800   20.4350 O.3   181  GDP181     -0.4370
      8  O2A       32.8500   32.6530   18.8320 O.2   181  GDP181     -0.5169
      9  O5'       31.7760   31.7650   20.8580 O.3   181  GDP181     -0.3111
     10  C5'       30.7300   31.6020   21.8740 C.3   181  GDP181      0.1813
     11  C4'       31.1590   30.7640   23.0610 C.3   181  GDP181      0.1799
     12  O4'       31.6520   29.5220   22.5700 O.3   181  GDP181     -0.3326
     13  C3'       32.2840   31.3970   23.8710 C.3   181  GDP181      0.2158
     14  O3'       32.0590   31.0610   25.2400 O.3   181  GDP181     -0.2175
     15  C2'       33.5250   30.7290   23.3040 C.3   181  GDP181      0.2310
     16  O2'       34.5760   30.6470   24.2670 O.3   181  GDP181     -0.2158
     17  C1'       32.9720   29.3390   23.0520 C.3   181  GDP181      0.2293
     18  N9        33.7340   28.6100   22.0490 N.pl3 181  GDP181     -0.2354
     19  C8        34.0040   29.0630   20.8010 C.3   181  GDP181      0.2246
     20  N7        34.7500   28.1520   20.1220 N.2   181  GDP181     -0.2322
     21  C5        34.9400   27.1030   20.9570 C.2   181  GDP181      0.2182
     22  C6        35.6440   25.8170   20.8470 C.1   181  GDP181      0.2372
     23  O6        36.2190   25.5100   19.7680 O.2   181  GDP181     -0.2069
     24  N1        35.6130   25.0230   21.9180 N.2   181  GDP181     -0.2485
     25  C2        35.0200   25.3290   23.0860 C.1   181  GDP181      0.2531
     26  N2        35.0340   24.4440   24.1170 N.pl3 181  GDP181     -0.0226
     27  N3        34.3470   26.4930   23.2540 N.2   181  GDP181     -0.3074
     28  C4        34.2960   27.4070   22.2400 C.2   181  GDP181      0.2300
@<TRIPOS>BOND
     1     4     1    2
     2     2     1    1
     3     1     3    1
     4     1     5    1
     5     8     6    2
     6     5     6    1
     7     6     7    1
     8     6     9    1
     9    23    22    2
    10    20    19    1
    11    20    21    2
    12    19    18    1
    13    22    21    1
    14    22    24    2
    15     9    10    1
    16    21    28    1
    17    10    11    1
    18    24    25    2
    19    18    28    1
    20    18    17    1
    21    28    27    2
    22    12    17    1
    23    12    11    1
    24    17    15    1
    25    11    13    1
    26    25    27    2
    27    25    26    1
    28    15    13    1
    29    15    16    1
    30    13    14    1
