@<TRIPOS>MOLECULE
3msz_GSH_A_1.pdb
 20 19 0 0 0
SMALL
GASTEIGER

@<TRIPOS>ATOM
      1  N1       -29.2840   13.7800    3.4450 N.3    92  GSH92      -0.1208
      2  CA1      -27.9690   13.3710    3.9090 C.3    92  GSH92       0.1948
      3  C1       -26.8710   13.5360    2.8820 C.2    92  GSH92       0.3819
      4  O11      -26.9870   13.0380    1.7350 O.co2  92  GSH92      -0.2441
      5  O12      -25.8150   14.1690    3.1790 O.co2  92  GSH92      -0.2441
      6  CB1      -27.5050   14.1900    5.1040 C.3    92  GSH92       0.0402
      7  CG1      -26.2110   13.4460    5.4360 C.3    92  GSH92       0.0889
      8  CD1      -25.6000   13.8730    6.7090 C.2    92  GSH92       0.2418
      9  OE1      -26.3950   14.0010    7.8730 O.2    92  GSH92      -0.2733
     10  N2       -24.2940   14.0600    6.5710 N.am   92  GSH92      -0.1968
     11  CA2      -23.5890   13.1180    5.7390 C.3    92  GSH92       0.1843
     12  C2       -23.6310   11.7450    6.3170 C.2    92  GSH92       0.2627
     13  O2       -22.5340   10.8550    6.1270 O.2    92  GSH92      -0.2714
     14  CB2      -22.1450   13.5500    5.6300 C.3    92  GSH92       0.0997
     15  SG2      -21.8600   14.5060    4.1220 S.3    92  GSH92      -0.0797
     16  N3       -24.7490   11.4480    7.0160 N.am   92  GSH92      -0.1917
     17  CA3      -25.5510   10.3140    6.6320 C.3    92  GSH92       0.2285
     18  C3       -25.8780   10.2660    5.1370 C.2    92  GSH92       0.3865
     19  O31      -25.7600   11.2450    4.3610 O.co2  92  GSH92      -0.2437
     20  O32      -26.2850    9.2250    4.6040 O.co2  92  GSH92      -0.2437
@<TRIPOS>BOND
     1     4     3   ar
     2     3     5   ar
     3     3     2    1
     4     1     2    1
     5     2     6    1
     6    15    14    1
     7    19    18   ar
     8    20    18   ar
     9     6     7    1
    10    18    17    1
    11     7     8    1
    12    14    11    1
    13    11    12    1
    14    11    10    1
    15    13    12    2
    16    12    16   am
    17    10     8   am
    18    17    16    1
    19     8     9    2
