@<TRIPOS>MOLECULE
3mt7_16O_A_1.pdb
 24 25 0 0 0
SMALL
GASTEIGER

@<TRIPOS>ATOM
      1  C1        19.4060   15.1210   56.1550 C.3   920  16O920      0.2439
      2  N1        18.9420   13.8410   55.6620 N.am  920  16O920     -0.1850
      3  S1        18.5840   13.0230   58.1690 S.2   920  16O920     -0.0134
      4 BR1        17.2930    9.4990   48.2620 Br    920  16O920     -0.0490
      5  C2        20.7350   15.4720   55.4670 C.3   920  16O920      0.2326
      6  N2        18.1020   11.7540   55.9480 N.am  920  16O920     -0.0932
      7  O2        21.7650   14.5700   55.9010 O.3   920  16O920     -0.2157
      8  C3        21.0660   16.9480   55.7510 C.3   920  16O920      0.2190
      9  N3        18.0700   11.6460   54.7170 N.2   920  16O920     -0.1555
     10  O3        22.2310   17.3610   55.0310 O.3   920  16O920     -0.2174
     11  C4        19.8820   17.8420   55.3630 C.3   920  16O920      0.2144
     12  O4        20.1450   19.2230   55.6380 O.3   920  16O920     -0.2176
     13  C5        18.6490   17.3850   56.1350 C.3   920  16O920      0.1828
     14  O5        18.3920   16.0370   55.7370 O.3   920  16O920     -0.3315
     15  C6        17.3940   18.2320   55.9030 C.3   920  16O920      0.2142
     16  O6        17.1900   18.4360   54.5000 O.3   920  16O920     -0.2176
     17  C7        18.5370   12.8740   56.4810 C.2   920  16O920      0.1965
     18  C8        17.6520   10.5710   54.2470 C.2   920  16O920      0.1196
     19  C9        17.5800   10.3450   52.8000 C.ar  920  16O920      0.0208
     20  C10       16.7510    9.3290   52.3420 C.ar  920  16O920      0.0021
     21  C11       16.6760    9.0840   50.9810 C.ar  920  16O920      0.0067
     22  C12       17.4220    9.8570   50.1050 C.ar  920  16O920      0.0346
     23  C13       18.2520   10.8890   50.5560 C.ar  920  16O920      0.0067
     24  C14       18.3320   11.1300   51.9180 C.ar  920  16O920      0.0021
@<TRIPOS>BOND
     1     4    22    1
     2    22    23   ar
     3    22    21   ar
     4    23    24   ar
     5    21    20   ar
     6    24    19   ar
     7    20    19   ar
     8    19    18    1
     9    18     9    2
    10    16    15    1
    11     9     6    1
    12    10     8    1
    13    11    12    1
    14    11     8    1
    15    11    13    1
    16     5     8    1
    17     5     7    1
    18     5     1    1
    19     2     1    1
    20     2    17    1
    21    14    13    1
    22    14     1    1
    23    15    13    1
    24     6    17    1
    25    17     3    2
