@<TRIPOS>MOLECULE
3mt8_17T_A_1.pdb
 24 25 0 0 0
SMALL
GASTEIGER

@<TRIPOS>ATOM
      1  C1        19.2280   15.2390   56.0780 C.3   920  17T920      0.2439
      2  N1        18.7520   13.9380   55.5770 N.am  920  17T920     -0.1850
      3  S1        18.3770   13.0950   58.1280 S.2   920  17T920     -0.0134
      4 CL1        17.3450    9.7220   48.2320 Cl    920  17T920     -0.0822
      5  C2        20.5900   15.5880   55.4290 C.3   920  17T920      0.2326
      6  N2        17.9410   11.7950   55.8330 N.am  920  17T920     -0.0932
      7  O2        21.6030   14.6850   55.8860 O.3   920  17T920     -0.2157
      8  C3        20.9820   17.0450   55.7320 C.3   920  17T920      0.2190
      9  N3        17.9190   11.6680   54.6080 N.2   920  17T920     -0.1555
     10  O3        22.1570   17.4110   54.9960 O.3   920  17T920     -0.2174
     11  C4        19.8270   17.9890   55.3710 C.3   920  17T920      0.2144
     12  O4        20.1660   19.3410   55.7000 O.3   920  17T920     -0.2176
     13  C5        18.5500   17.5660   56.1170 C.3   920  17T920      0.1828
     14  O5        18.2130   16.2090   55.7120 O.3   920  17T920     -0.3315
     15  C6        17.3400   18.4770   55.8600 C.3   920  17T920      0.2142
     16  O6        16.9610   18.3970   54.4830 O.3   920  17T920     -0.2176
     17  C7        18.3570   12.9380   56.3760 C.2   920  17T920      0.1965
     18  C8        17.5070   10.5430   54.0620 C.2   920  17T920      0.1196
     19  C9        17.4810   10.3770   52.6820 C.ar  920  17T920      0.0208
     20  C10       16.6920    9.3610   52.1450 C.ar  920  17T920      0.0025
     21  C11       16.6600    9.1660   50.7700 C.ar  920  17T920      0.0114
     22  C12       17.4090    9.9870   49.9350 C.ar  920  17T920      0.0577
     23  C13       18.2000   11.0100   50.4620 C.ar  920  17T920      0.0114
     24  C14       18.2350   11.2020   51.8410 C.ar  920  17T920      0.0025
@<TRIPOS>BOND
     1     4    22    1
     2    22    23   ar
     3    22    21   ar
     4    23    24   ar
     5    21    20   ar
     6    24    19   ar
     7    20    19   ar
     8    19    18    1
     9    18     9    2
    10    16    15    1
    11     9     6    1
    12    10     8    1
    13    11    12    1
    14    11     8    1
    15    11    13    1
    16     5     8    1
    17     5     7    1
    18     5     1    1
    19     2     1    1
    20     2    17    1
    21    14     1    1
    22    14    13    1
    23     6    17    1
    24    15    13    1
    25    17     3    2
