@<TRIPOS>MOLECULE
3mt9_18O_A_1.pdb
 26 27 0 0 0
SMALL
GASTEIGER

@<TRIPOS>ATOM
      1  C1        19.3190   15.2560   56.1900 C.3   920  18O920      0.2439
      2  N1        18.8600   13.9520   55.7230 N.am  920  18O920     -0.1850
      3  S1        18.6050   13.0120   58.2190 S.2   920  18O920     -0.0134
      4  C2        20.6560   15.5480   55.4780 C.3   920  18O920      0.2326
      5  N2        18.1110   11.7920   55.9720 N.am  920  18O920     -0.0932
      6  O2        21.6800   14.6140   55.8580 O.3   920  18O920     -0.2157
      7  C3        21.0790   16.9990   55.7390 C.3   920  18O920      0.2190
      8  N3        18.0460   11.6980   54.7370 N.2   920  18O920     -0.1555
      9  O3        22.2580   17.3340   55.0000 O.3   920  18O920     -0.2174
     10  C4        19.9550   17.9390   55.2980 C.3   920  18O920      0.2144
     11  N4        17.3780   10.2120   48.5600 N.pl3 920  18O920      0.0577
     12  O4        20.2590   19.3020   55.6000 O.3   920  18O920     -0.2176
     13  C5        18.6350   17.5950   55.9710 C.3   920  18O920      0.1828
     14  O5        18.3220   16.2070   55.7830 O.3   920  18O920     -0.3315
     15  C6        17.5510   18.4470   55.3250 C.3   920  18O920      0.2142
     16  O6        16.2890   18.0220   55.8330 O.3   920  18O920     -0.2176
     17  C7        18.5230   12.9310   56.5250 C.2   920  18O920      0.1965
     18  O7        17.5460   11.1880   47.8500 O.2   920  18O920     -0.1261
     19  C8        17.6660   10.6290   54.2010 C.2   920  18O920      0.1196
     20  O8        17.0900    9.1390   48.0510 O.2   920  18O920     -0.1261
     21  C9        17.5960   10.5330   52.7300 C.ar  920  18O920      0.0209
     22  C10       18.2750   11.4590   51.9300 C.ar  920  18O920      0.0033
     23  C11       18.2120   11.3610   50.5450 C.ar  920  18O920      0.0241
     24  C12       17.4710   10.3280   49.9610 C.ar  920  18O920      0.1429
     25  C13       16.7950    9.4050   50.7650 C.ar  920  18O920      0.0241
     26  C14       16.8520    9.5060   52.1530 C.ar  920  18O920      0.0033
@<TRIPOS>BOND
     1    18    11    2
     2    20    11    2
     3    11    24    1
     4    24    23   ar
     5    24    25   ar
     6    23    22   ar
     7    25    26   ar
     8    22    21   ar
     9    26    21   ar
    10    21    19    1
    11    19     8    2
    12     8     5    1
    13     9     7    1
    14    10    12    1
    15    10     7    1
    16    10    13    1
    17    15    16    1
    18    15    13    1
    19     4     7    1
    20     4     6    1
    21     4     1    1
    22     2     1    1
    23     2    17    1
    24    14    13    1
    25    14     1    1
    26     5    17    1
    27    17     3    2
