@<TRIPOS>MOLECULE
3mta_22O_A_1.pdb
 24 25 0 0 0
SMALL
GASTEIGER

@<TRIPOS>ATOM
      1  C1        19.1760   15.2700   56.0100 C.3   920  22O920      0.2439
      2  N1        18.7250   13.9240   55.5660 N.am  920  22O920     -0.1850
      3  S1        18.2710   13.2110   58.1530 S.2   920  22O920     -0.0134
      4 BR1        19.2410   11.6750   49.5480 Br    920  22O920     -0.0490
      5  C2        20.6180   15.6350   55.5780 C.3   920  22O920      0.2326
      6  N2        17.9100   11.7850   55.9480 N.am  920  22O920     -0.0932
      7  O2        21.5760   14.8180   56.2640 O.3   920  22O920     -0.2157
      8  C3        20.9080   17.1290   55.8340 C.3   920  22O920      0.2190
      9  N3        17.9090   11.5470   54.7430 N.2   920  22O920     -0.1555
     10  O3        22.1620   17.5200   55.2590 O.3   920  22O920     -0.2174
     11  C4        19.7760   17.9960   55.2650 C.3   920  22O920      0.2144
     12  O4        20.0150   19.3700   55.5560 O.3   920  22O920     -0.2176
     13  C5        18.4400   17.5620   55.8820 C.3   920  22O920      0.1828
     14  O5        18.2120   16.2000   55.4350 O.3   920  22O920     -0.3315
     15  C6        17.2250   18.4740   55.5830 C.3   920  22O920      0.2142
     16  O6        17.2160   18.9050   54.2160 O.3   920  22O920     -0.2176
     17  C7        18.3100   12.9690   56.4140 C.2   920  22O920      0.1965
     18  C8        17.5100   10.3680   54.3150 C.2   920  22O920      0.1196
     19  C9        17.5090   10.0800   52.9570 C.ar  920  22O920      0.0212
     20  C10       16.7860    8.9910   52.4720 C.ar  920  22O920      0.0016
     21  C11       16.7960    8.7010   51.1090 C.ar  920  22O920      0.0006
     22  C12       17.5270    9.5000   50.2350 C.ar  920  22O920      0.0067
     23  C13       18.2470   10.5850   50.7240 C.ar  920  22O920      0.0346
     24  C14       18.2440   10.8760   52.0810 C.ar  920  22O920      0.0083
@<TRIPOS>BOND
     1     4    23    1
     2    22    23   ar
     3    22    21   ar
     4    23    24   ar
     5    21    20   ar
     6    24    19   ar
     7    20    19   ar
     8    19    18    1
     9    16    15    1
    10    18     9    2
    11     9     6    1
    12    10     8    1
    13    11    12    1
    14    11     8    1
    15    11    13    1
    16    14    13    1
    17    14     1    1
    18     2     1    1
    19     2    17    1
    20     5     8    1
    21     5     1    1
    22     5     7    1
    23    15    13    1
    24     6    17    1
    25    17     3    2
