@<TRIPOS>MOLECULE
3mtb_23V_A_1.pdb
 24 25 0 0 0
SMALL
GASTEIGER

@<TRIPOS>ATOM
      1  C1        19.2530   15.1380   56.0450 C.3   920  23V920      0.2439
      2  N1        18.8210   13.8340   55.5510 N.am  920  23V920     -0.1850
      3  S1        18.2320   13.0110   58.0260 S.2   920  23V920     -0.0134
      4 CL1        19.2830   11.6320   49.3320 Cl    920  23V920     -0.0822
      5  C2        20.6610   15.4900   55.5110 C.3   920  23V920      0.2326
      6  N2        17.9490   11.7030   55.7790 N.am  920  23V920     -0.0932
      7  O2        21.6710   14.6010   56.0220 O.3   920  23V920     -0.2157
      8  C3        21.0010   16.9500   55.8590 C.3   920  23V920      0.2190
      9  N3        18.0010   11.5210   54.5460 N.2   920  23V920     -0.1555
     10  O3        16.2880   17.5560   55.1190 O.3   920  23V920     -0.2176
     11  C4        19.8890   17.8900   55.3770 C.3   920  23V920      0.2144
     12  O4        20.1100   19.2220   55.8410 O.3   920  23V920     -0.2176
     13  C5        18.5410   17.4320   55.9170 C.3   920  23V920      0.1828
     14  O5        18.3020   16.0770   55.5140 O.3   920  23V920     -0.3315
     15  C6        17.4350   18.3490   55.4090 C.3   920  23V920      0.2142
     16  O6        22.2470   17.3650   55.2830 O.3   920  23V920     -0.2174
     17  C7        18.3420   12.8520   56.3330 C.2   920  23V920      0.1965
     18  C8        17.6200   10.4170   54.0820 C.2   920  23V920      0.1196
     19  C9        17.6510   10.1090   52.6340 C.ar  920  23V920      0.0216
     20  C10       18.3660   10.9200   51.7720 C.ar  920  23V920      0.0130
     21  C11       18.3770   10.5820   50.4250 C.ar  920  23V920      0.0577
     22  C12       17.7060    9.4760   49.9050 C.ar  920  23V920      0.0114
     23  C13       16.9920    8.6650   50.7690 C.ar  920  23V920      0.0009
     24  C14       16.9670    8.9930   52.1290 C.ar  920  23V920      0.0017
@<TRIPOS>BOND
     1     4    21    1
     2    22    21   ar
     3    22    23   ar
     4    21    20   ar
     5    23    24   ar
     6    20    19   ar
     7    24    19   ar
     8    19    18    1
     9    18     9    2
    10     9     6    1
    11    10    15    1
    12    16     8    1
    13    11    12    1
    14    11     8    1
    15    11    13    1
    16    15    13    1
    17     5     8    1
    18     5     7    1
    19     5     1    1
    20    14    13    1
    21    14     1    1
    22     2     1    1
    23     2    17    1
    24     6    17    1
    25    17     3    2
