@<TRIPOS>MOLECULE
3mtc_PIF_A_1.pdb
 43 43 0 0 0
SMALL
GASTEIGER

@<TRIPOS>ATOM
      1  C1        54.8540    9.2020   57.1260 C.3   572  PIF572      0.1874
      2  O1        56.2120    9.3550   57.5210 O.3   572  PIF572     -0.3111
      3  P1        57.0100    8.7700   58.7910 P.3   572  PIF572      0.2142
      4  C2        54.4720    7.7650   56.7740 C.3   572  PIF572      0.2146
      5  O2        55.4010    7.1880   55.8340 O.3   572  PIF572     -0.2176
      6  C3        53.0220    7.7660   56.2450 C.3   572  PIF572      0.2147
      7  O3        52.6470    6.4460   55.8500 O.3   572  PIF572     -0.2176
      8  C4        52.7720    8.7220   55.0700 C.3   572  PIF572      0.1919
      9  O4        51.3730    8.9780   54.9080 O.3   572  PIF572     -0.2673
     10  P4        50.5190    8.2960   53.7160 P.3   572  PIF572      0.5327
     11  C5        53.3690   10.1050   55.2270 C.3   572  PIF572      0.2147
     12  O5        53.5010   10.6780   53.9060 O.3   572  PIF572     -0.2176
     13  C6        54.7280   10.1160   55.9140 C.3   572  PIF572      0.2146
     14  O6        54.9990   11.4600   56.3140 O.3   572  PIF572     -0.2176
     15  C7        58.4970    6.5160   58.6480 C.3   572  PIF572      0.1964
     16  C8        59.9470    6.8730   58.3250 C.3   572  PIF572      0.2420
     17  C9        60.8970    6.1740   59.2780 C.3   572  PIF572      0.2543
     18  C10       61.3920    3.8390   59.8920 C.2   572  PIF572      0.3171
     19  C11       62.4520    4.1040   60.9450 C.3   572  PIF572      0.1096
     20  O11       58.0730    9.8100   59.0630 O.2   572  PIF572     -0.5172
     21  C12       63.5420    3.0260   61.0070 C.3   572  PIF572      0.0116
     22  O12       56.1050    8.3290   59.9110 O.3   572  PIF572     -0.4373
     23  C13       64.2590    2.9890   62.3620 C.3   572  PIF572      0.0006
     24  O13       57.6320    7.4700   58.0430 O.3   572  PIF572     -0.3100
     25  C14       65.7080    3.4810   62.3190 C.3   572  PIF572      0.0000
     26  O14       60.3130    6.4770   57.0070 O.3   572  PIF572     -0.4457
     27  C15       66.2010    3.8610   63.7200 C.3   572  PIF572      0.0000
     28  O15       60.4290    4.8640   59.5460 O.3   572  PIF572     -0.4444
     29  C16       67.6050    4.4630   63.7000 C.3   572  PIF572      0.0000
     30  O16       61.2920    2.7780   59.2950 O.2   572  PIF572     -0.2501
     31  C17       67.7910    5.5240   64.7650 C.3   572  PIF572      0.0000
     32  O17       61.6640    8.3590   56.9160 O.2   572  PIF572     -0.2501
     33  C18       61.3710    7.2880   56.4160 C.2   572  PIF572      0.3171
     34  C19       62.0950    6.7970   55.1830 C.3   572  PIF572      0.1096
     35  C20       63.5710    6.5550   55.5100 C.3   572  PIF572      0.0116
     36  C21       63.7690    5.4630   56.5640 C.3   572  PIF572      0.0006
     37  C22       65.0270    4.6450   56.2720 C.3   572  PIF572      0.0000
     38  C23       65.4650    3.7600   57.4360 C.3   572  PIF572      0.0000
     39  C24       65.2900    2.2750   57.1390 C.3   572  PIF572      0.0000
     40  C25       66.0080    1.4300   58.1680 C.3   572  PIF572      0.0000
     41  O41       50.8430    6.8110   53.8840 O.3   572  PIF572     -0.1145
     42  O42       49.1200    8.7320   54.0830 O.3   572  PIF572     -0.1145
     43  O43       51.0500    8.9560   52.4630 O.2   572  PIF572     -0.2224
@<TRIPOS>BOND
     1    43    10    2
     2    10    41    1
     3    10    42    1
     4    10     9    1
     5    12    11    1
     6     9     8    1
     7     8    11    1
     8     8     6    1
     9    34    35    1
    10    34    33    1
    11    11    13    1
    12    35    36    1
    13     5     4    1
    14     7     6    1
    15    13    14    1
    16    13     1    1
    17     6     4    1
    18    37    36    1
    19    37    38    1
    20    33    32    2
    21    33    26    1
    22     4     1    1
    23    26    16    1
    24     1     2    1
    25    39    38    1
    26    39    40    1
    27     2     3    1
    28    24    15    1
    29    24     3    1
    30    16    15    1
    31    16    17    1
    32     3    20    2
    33     3    22    1
    34    17    28    1
    35    30    18    2
    36    28    18    1
    37    18    19    1
    38    19    21    1
    39    21    23    1
    40    25    23    1
    41    25    27    1
    42    29    27    1
    43    29    31    1
