@<TRIPOS>MOLECULE
3mtd_25E_A_1.pdb
 24 25 0 0 0
SMALL
GASTEIGER

@<TRIPOS>ATOM
      1  C1        33.5170   22.8360   27.8140 C.3   843  25E843      0.2439
      2  C2        33.8630   23.1060   26.3480 C.3   843  25E843      0.2326
      3  O2        34.0290   24.5190   26.1150 O.3   843  25E843     -0.2157
      4  C3        32.7270   22.5220   25.4910 C.3   843  25E843      0.2190
      5  O3        33.0140   22.6670   24.0900 O.3   843  25E843     -0.2174
      6  C4        32.4440   21.0480   25.8400 C.3   843  25E843      0.2144
      7  O4        31.2320   20.6480   25.2040 O.3   843  25E843     -0.2176
      8  C5        32.3130   20.8190   27.3620 C.3   843  25E843      0.1828
      9  O5        33.4230   21.4160   28.0350 O.3   843  25E843     -0.3315
     10  C6        32.2080   19.3500   27.7930 C.3   843  25E843      0.2142
     11  O6        33.2490   18.5370   27.2150 O.3   843  25E843     -0.2176
     12  NAL       34.5970   23.2930   28.6730 N.am  843  25E843     -0.1850
     13  CAM       34.3730   24.0010   29.7900 C.2   843  25E843      0.1965
     14  NAN       35.4520   24.3210   30.5150 N.am  843  25E843     -0.0932
     15  SAO       32.7890   24.4750   30.2480 S.2   843  25E843     -0.0134
     16  NAP       36.5770   23.9310   30.1040 N.2   843  25E843     -0.1555
     17  CAQ       37.6710   24.1590   30.6880 C.2   843  25E843      0.1196
     18  CAR       37.8420   24.9290   31.9580 C.ar  843  25E843      0.0210
     19  CAS       36.7480   25.3140   32.7460 C.ar  843  25E843      0.0049
     20  CAT       36.9470   26.0330   33.9260 C.ar  843  25E843      0.0421
     21  CAU       38.2450   26.3650   34.3230 C.ar  843  25E843      0.1957
     22  CAV       39.3420   25.9860   33.5450 C.ar  843  25E843      0.0421
     23  CAW       39.1360   25.2650   32.3680 C.ar  843  25E843      0.0049
     24  OAX       38.4490   27.0620   35.4750 O.3   843  25E843     -0.2866
@<TRIPOS>BOND
     1     5     4    1
     2     7     6    1
     3     4     6    1
     4     4     2    1
     5     6     8    1
     6     3     2    1
     7     2     1    1
     8    11    10    1
     9     8    10    1
    10     8     9    1
    11     1     9    1
    12     1    12    1
    13    12    13    1
    14    13    15    2
    15    13    14    1
    16    16    14    1
    17    16    17    2
    18    17    18    1
    19    18    23   ar
    20    18    19   ar
    21    23    22   ar
    22    19    20   ar
    23    22    21   ar
    24    20    21   ar
    25    21    24    1
