@<TRIPOS>MOLECULE
3mte_SAM_A_1.pdb
 26 28 0 0 0
SMALL
GASTEIGER

@<TRIPOS>ATOM
      1  N         32.3760   16.6490   24.5690 N.3   220  SAM220     -0.1245
      2  CA        32.2910   15.3280   23.9530 C.3   220  SAM220      0.1570
      3  C         33.6680   14.8280   23.5390 C.2   220  SAM220      0.2261
      4  OXT       34.6150   15.6100   23.4480 O.2   220  SAM220     -0.2867
      5  CB        31.3820   15.3480   22.7210 C.3   220  SAM220      0.0379
      6  CG        30.6780   14.0150   22.5110 C.3   220  SAM220      0.0502
      7  SD        29.4210   14.0770   21.2060 S.3   220  SAM220     -0.1761
      8  CE        30.3670   14.7660   19.8350 C.3   220  SAM220      0.0590
      9  C5'       28.3930   15.4970   21.6370 C.3   220  SAM220      0.0806
     10  C4'       27.6400   15.3220   22.9650 C.3   220  SAM220      0.1622
     11  O4'       26.7830   16.4340   23.1180 O.3   220  SAM220     -0.3153
     12  C3'       26.7680   14.0760   23.0400 C.3   220  SAM220      0.2168
     13  O3'       27.0730   13.3480   24.2030 O.3   220  SAM220     -0.2175
     14  C2'       25.3510   14.5900   23.2200 C.3   220  SAM220      0.2569
     15  O2'       24.5580   13.7640   24.0580 O.3   220  SAM220     -0.2130
     16  C1'       25.6000   15.9920   23.7660 C.3   220  SAM220      0.3185
     17  N9        24.4640   16.8720   23.4440 N.pl3 220  SAM220     -0.1439
     18  C8        23.7490   16.9280   22.2740 C.3   220  SAM220      0.3377
     19  N7        22.7860   17.8710   22.4220 N.2   220  SAM220     -0.2095
     20  C5        22.8860   18.4030   23.6600 C.2   220  SAM220      0.2526
     21  C6        22.1630   19.3760   24.3340 C.2   220  SAM220      0.4393
     22  N6        21.1380   19.9880   23.7370 N.pl3 220  SAM220      0.2180
     23  N1        22.5270   19.7100   25.6150 N.2   220  SAM220      0.0021
     24  C2        23.5790   19.0810   26.2550 C.3   220  SAM220      0.5254
     25  N3        24.2890   18.1110   25.5780 N.2   220  SAM220     -0.0055
     26  C4        23.9390   17.7830   24.3120 C.2   220  SAM220      0.3518
@<TRIPOS>BOND
     1     8     7    1
     2     7     9    1
     3     7     6    1
     4     9    10    1
     5    18    19    1
     6    18    17    1
     7    19    20    2
     8     6     5    1
     9     5     2    1
    10    10    12    1
    11    10    11    1
    12    12    14    1
    13    12    13    1
    14    11    16    1
    15    14    16    1
    16    14    15    1
    17    17    16    1
    18    17    26    1
    19     4     3    2
    20     3     2    1
    21    20    26    1
    22    20    21    1
    23    22    21    1
    24     2     1    1
    25    26    25    2
    26    21    23    2
    27    25    24    1
    28    23    24    1
