@<TRIPOS>MOLECULE
3mtf_A3F_A_1.pdb
 26 28 0 0 0
SMALL
GASTEIGER

@<TRIPOS>ATOM
      1  CAA      -16.9590  -18.3750   40.9130 C.3     1  A3F1        0.2526
      2  CAB      -21.1740  -14.7300   36.2670 C.3     1  A3F1        0.2526
      3  CAC      -20.2300  -19.0070   37.5000 C.3     1  A3F1        0.2528
      4  NAD      -14.8830  -15.3400   37.6410 N.pl3   1  A3F1       -0.1072
      5  OAE      -19.3290   -8.1690   37.8030 O.3     1  A3F1       -0.2866
      6  CAF      -16.1520   -7.9940   39.5560 C.ar    1  A3F1        0.0033
      7  CAG      -17.3770   -7.5810   39.0370 C.ar    1  A3F1        0.0420
      8  CAH      -15.7160   -9.3200   39.4190 C.ar    1  A3F1        0.0003
      9  CAI      -14.8200  -11.8520   38.2000 C.ar    1  A3F1        0.1004
     10  CAJ      -17.7300   -9.8370   38.2430 C.ar    1  A3F1        0.0421
     11  CAK      -17.3330  -16.1540   39.0680 C.ar    1  A3F1        0.0403
     12  CAL      -18.7730  -14.9250   37.5980 C.ar    1  A3F1        0.0403
     13  CAM      -17.0520  -12.6420   38.5550 C.ar    1  A3F1        0.0044
     14  NAN      -14.4580  -13.0850   37.9670 N.ar    1  A3F1       -0.2259
     15  OAO      -18.0390  -18.3480   39.9140 O.3     1  A3F1       -0.4683
     16  OAP      -20.8780  -15.9370   36.9840 O.3     1  A3F1       -0.4683
     17  OAQ      -20.4080  -18.0410   38.5210 O.3     1  A3F1       -0.4654
     18  CAR      -18.1530   -8.5250   38.3750 C.ar    1  A3F1        0.1957
     19  CAS      -15.2990  -14.1290   37.9930 C.ar    1  A3F1        0.1696
     20  CAT      -16.5330  -10.2580   38.7940 C.ar    1  A3F1        0.0047
     21  CAU      -16.1320  -11.5900   38.5690 C.ar    1  A3F1        0.0194
     22  CAV      -17.5640  -15.0190   38.2850 C.ar    1  A3F1        0.0090
     23  CAW      -18.2620  -17.1960   39.1580 C.ar    1  A3F1        0.1754
     24  CAX      -19.7020  -15.9550   37.6640 C.ar    1  A3F1        0.1754
     25  CAY      -16.6380  -13.9430   38.2660 C.ar    1  A3F1        0.0350
     26  CAZ      -19.4540  -17.0720   38.4590 C.ar    1  A3F1        0.2061
@<TRIPOS>BOND
     1     2    16    1
     2    16    24    1
     3     3    17    1
     4    12    24   ar
     5    12    22   ar
     6     4    19    1
     7    24    26   ar
     8     5    18    1
     9    14    19   ar
    10    14     9   ar
    11    19    25   ar
    12     9    21   ar
    13    10    18   ar
    14    10    20   ar
    15    25    22    1
    16    25    13   ar
    17    22    11   ar
    18    18     7   ar
    19    26    17    1
    20    26    23   ar
    21    13    21   ar
    22    21    20    1
    23    20     8   ar
    24     7     6   ar
    25    11    23   ar
    26    23    15    1
    27     8     6   ar
    28    15     1    1
