@<TRIPOS>MOLECULE
3mtg_NAD_A_1.pdb
 44 48 0 0 0
SMALL
GASTEIGER

@<TRIPOS>ATOM
      1  PA        37.3830   43.1170  -28.9150 P.3     1  NAD1        0.2189
      2  O1A       38.7540   43.6470  -28.7580 O.3     1  NAD1       -0.4371
      3  O2A       37.3030   42.0810  -29.9740 O.2     1  NAD1       -0.5170
      4  O5B       36.4280   44.3410  -29.2450 O.3     1  NAD1       -0.3112
      5  C5B       36.6220   45.5760  -28.6430 C.3     1  NAD1        0.1813
      6  C4B       36.2400   46.5760  -29.6990 C.3     1  NAD1        0.1821
      7  O4B       35.9270   47.8030  -29.0880 O.3     1  NAD1       -0.3135
      8  C3B       37.4190   46.8130  -30.6380 C.3     1  NAD1        0.2184
      9  O3B       37.0450   46.4440  -31.9560 O.3     1  NAD1       -0.2174
     10  C2B       37.6800   48.3160  -30.5150 C.3     1  NAD1        0.2570
     11  O2B       37.9820   48.9310  -31.7520 O.3     1  NAD1       -0.2130
     12  C1B       36.3730   48.8440  -29.9380 C.3     1  NAD1        0.3186
     13  N9A       36.5460   50.0990  -29.1820 N.pl3   1  NAD1       -0.1439
     14  C8A       37.5280   50.3650  -28.2410 C.3     1  NAD1        0.3377
     15  N7A       37.3190   51.6160  -27.7530 N.2     1  NAD1       -0.2095
     16  C5A       36.2230   52.1380  -28.3620 C.2     1  NAD1        0.2526
     17  C6A       35.5640   53.3450  -28.2020 C.2     1  NAD1        0.4393
     18  N6A       35.7640   53.9910  -27.0610 N.pl3   1  NAD1        0.2180
     19  N1A       34.4260   53.6200  -28.9460 N.2     1  NAD1        0.0021
     20  C2A       33.9570   52.6870  -29.8620 C.3     1  NAD1        0.5254
     21  N3A       34.6170   51.4760  -29.9890 N.2     1  NAD1       -0.0055
     22  C4A       35.7100   51.1900  -29.2390 C.2     1  NAD1        0.3518
     23  O3        36.9070   42.4800  -27.5250 O.3     1  NAD1       -0.2703
     24  PN        35.4710   41.8170  -27.2800 P.3     1  NAD1        0.2189
     25  O1N       35.5980   40.3370  -27.2790 O.3     1  NAD1       -0.4371
     26  O2N       34.4720   42.5400  -28.1120 O.2     1  NAD1       -0.5170
     27  O5D       35.1960   42.2410  -25.7520 O.3     1  NAD1       -0.3112
     28  C5D       35.1230   43.6000  -25.3510 C.3     1  NAD1        0.1813
     29  C4D       35.2870   43.6880  -23.8310 C.3     1  NAD1        0.1799
     30  O4D       34.2650   42.9040  -23.2560 O.3     1  NAD1       -0.3327
     31  C3D       36.6080   43.0820  -23.3720 C.3     1  NAD1        0.2158
     32  O3D       37.0760   43.7990  -22.2480 O.3     1  NAD1       -0.2175
     33  C2D       36.2260   41.6780  -22.9550 C.3     1  NAD1        0.2309
     34  O2D       37.0340   41.1690  -21.9180 O.3     1  NAD1       -0.2158
     35  C1D       34.8080   41.8720  -22.4660 C.3     1  NAD1        0.2263
     36  N1N       34.0220   40.6190  -22.5140 N.pl3   1  NAD1       -0.2787
     37  C2N       32.6590   40.6450  -22.6960 C.3     1  NAD1        0.1244
     38  C3N       31.9430   39.4430  -22.7050 C.2     1  NAD1        0.0544
     39  C7N       30.4530   39.3910  -22.8250 C.2     1  NAD1        0.2818
     40  O7N       29.8440   38.1400  -22.6280 O.2     1  NAD1       -0.2670
     41  N7N       29.7470   40.4790  -23.1280 N.am    1  NAD1       -0.0839
     42  C4N       32.6090   38.2330  -22.5140 C.2     1  NAD1        0.0033
     43  C5N       33.9810   38.2230  -22.3100 C.2     1  NAD1        0.0157
     44  C6N       34.6720   39.4290  -22.2940 C.2     1  NAD1        0.0633
@<TRIPOS>BOND
     1     9     8    1
     2    11    10    1
     3     8    10    1
     4     8     6    1
     5    10    12    1
     6    21    20    1
     7    21    22    2
     8     3     1    2
     9    12    13    1
    10    12     7    1
    11    20    19    1
    12     6     7    1
    13     6     5    1
    14     4     1    1
    15     4     5    1
    16    22    13    1
    17    22    16    1
    18    13    14    1
    19    19    17    2
    20     1     2    1
    21     1    23    1
    22    16    17    1
    23    16    15    2
    24    14    15    1
    25    17    18    1
    26    26    24    2
    27    23    24    1
    28    24    25    1
    29    24    27    1
    30    27    28    1
    31    28    29    1
    32    29    31    1
    33    29    30    1
    34    31    33    1
    35    31    32    1
    36    30    35    1
    37    41    39   am
    38    33    35    1
    39    33    34    1
    40    39    38    1
    41    39    40    2
    42    38    37    1
    43    38    42    2
    44    37    36    1
    45    36    35    1
    46    36    44    1
    47    42    43    1
    48    43    44    2
