@<TRIPOS>MOLECULE
3mtl_FEF_A_1.pdb
 27 30 0 0 0
SMALL
GASTEIGER

@<TRIPOS>ATOM
      1  OAV       -6.5720  -25.6270   12.5570 O.2   668  FEF668     -0.2092
      2  CAT       -7.6770  -25.0690   12.5090 C.1   668  FEF668      0.2067
      3  CAR       -8.6300  -25.0720   13.5270 C.2   668  FEF668      0.1242
      4  CAS       -9.6650  -24.2370   13.0860 C.2   668  FEF668      0.0233
      5  CAX      -10.9140  -23.8430   13.5950 C.3   668  FEF668      0.0551
      6  CAY      -11.7640  -23.0000   12.8640 C.2   668  FEF668     -0.0255
      7  CAZ      -11.3770  -22.5420   11.5980 C.2   668  FEF668     -0.0229
      8  CBA      -10.1370  -22.9390   11.0800 C.3   668  FEF668      0.0853
      9  CAW       -9.2810  -23.7760   11.8170 C.2   668  FEF668      0.1234
     10  NAU       -8.0540  -24.2400   11.5440 N.2   668  FEF668     -0.3372
     11  CAI       -8.4230  -25.7300   14.7620 C.2   668  FEF668      0.1637
     12  CAG       -9.2380  -25.7470   15.9040 C.2   668  FEF668      0.1516
     13  CAD       -8.5730  -26.4840   16.8860 C.2   668  FEF668      0.0490
     14  CAC       -8.8810  -26.8860   18.1910 C.2   668  FEF668     -0.0172
     15  CAA       -7.9570  -27.6170   18.9450 C.3   668  FEF668      0.0522
     16  CAB       -6.7320  -27.9940   18.3870 C.2   668  FEF668     -0.0188
     17  CAF       -6.4340  -27.6060   17.0800 C.2   668  FEF668      0.0279
     18  CAE       -7.3550  -26.8580   16.3290 C.2   668  FEF668      0.1325
     19  NAH       -7.2960  -26.3760   15.0830 N.2   668  FEF668     -0.3995
     20  NAJ      -10.4660  -25.2310   16.0350 N.2   668  FEF668     -0.0803
     21  OAK      -11.1740  -25.2950   17.2000 O.2   668  FEF668     -0.3772
     22  CAL      -11.6400  -24.0010   17.6180 C.3   668  FEF668      0.2412
     23  CAM      -13.0650  -24.1690   18.1790 C.3   668  FEF668      0.0859
     24  CAN      -13.5240  -22.9690   19.0210 C.3   668  FEF668      0.1886
     25  OAQ      -14.8910  -23.1390   19.4090 O.3   668  FEF668     -0.2202
     26  CAO      -12.6560  -22.8350   20.2730 C.3   668  FEF668      0.2148
     27  OAP      -12.7960  -23.9960   21.0920 O.3   668  FEF668     -0.2176
@<TRIPOS>BOND
     1     8     7    1
     2     8     9    1
     3    10     9    2
     4    10     2    2
     5     7     6    2
     6     9     4    1
     7     2     1    2
     8     2     3    1
     9     6     5    1
    10     4     3    2
    11     4     5    1
    12     3    11    1
    13    11    19    2
    14    11    12    1
    15    19    18    2
    16    12    20    2
    17    12    13    1
    18    20    21    1
    19    18    13    1
    20    18    17    1
    21    13    14    2
    22    17    16    2
    23    21    22    1
    24    22    23    1
    25    23    24    1
    26    14    15    1
    27    16    15    1
    28    24    25    1
    29    24    26    1
    30    26    27    1
