@<TRIPOS>MOLECULE
3mtw_M3R_A_1.pdb
 16 15 0 0 0
SMALL
GASTEIGER

@<TRIPOS>ATOM
      1  CP        26.8330  115.0640    9.5040 C.3   430  M3R430      0.1179
      2  P         27.7320  116.5770    9.2810 P.3   430  M3R430      0.3268
      3  OPA       28.1990  117.1880   10.6490 O.3   430  M3R430     -0.1502
      4  OPB       26.8770  117.6000    8.6010 O.2   430  M3R430     -0.2686
      5  N         29.1240  116.4370    8.4560 N.3   430  M3R430     -0.1344
      6  CA        29.7760  117.6810    7.9090 C.3   430  M3R430      0.1845
      7  C         29.5640  117.7860    6.4100 C.2   430  M3R430      0.3808
      8  OXT       29.5870  116.7750    5.7160 O.co2 430  M3R430     -0.2441
      9  CB        31.2730  117.7990    8.2400 C.3   430  M3R430      0.0332
     10  CG        31.9310  119.1310    7.8890 C.3   430  M3R430      0.0489
     11  CD        33.3250  118.5610    7.8140 C.3   430  M3R430      0.2205
     12  NE        34.3380  119.6160    7.6730 N.pl3 430  M3R430     -0.0865
     13  CZ        34.9490  120.7240    8.0870 C.cat 430  M3R430      0.5346
     14  NH2       34.5240  121.2910    9.2010 N.pl3 430  M3R430      0.1354
     15  NH1       35.9830  121.2500    7.4280 N.pl3 430  M3R430      0.1354
     16  O         29.3340  118.8510    5.8730 O.co2 430  M3R430     -0.2441
@<TRIPOS>BOND
     1     8     7   ar
     2    16     7   ar
     3     7     6    1
     4    15    13    1
     5    12    11    1
     6    12    13    2
     7    11    10    1
     8    10     9    1
     9     6     9    1
    10     6     5    1
    11    13    14    1
    12     5     2    1
    13     4     2    2
    14     2     1    1
    15     2     3    1
