@<TRIPOS>MOLECULE
3mu3_LP4_A_1.pdb
 45 45 0 0 0
SMALL
GASTEIGER

@<TRIPOS>ATOM
      1  O48        8.9450   -4.1030  -11.6440 O.2   300  LP4300     -0.2224
      2  P45        8.7670   -2.9360  -10.7640 P.3   300  LP4300      0.5327
      3  O46        9.9730   -1.8910  -10.7150 O.3   300  LP4300     -0.1145
      4  O47        7.5050   -2.0670  -11.2930 O.3   300  LP4300     -0.1145
      5  O4         8.5150   -3.4590   -9.2870 O.3   300  LP4300     -0.2664
      6  C4         8.5310   -2.6790   -8.1320 C.3   300  LP4300      0.1973
      7  C5         9.5530   -3.3060   -7.1810 C.3   300  LP4300      0.1793
      8  O5         9.4390   -2.9580   -5.7420 O.3   300  LP4300     -0.3490
      9  C6        10.9000   -2.8430   -7.8010 C.3   300  LP4300      0.2141
     10  O6        11.3710   -1.6310   -7.1890 O.3   300  LP4300     -0.2176
     11  C3         7.1180   -2.6810   -7.5700 C.3   300  LP4300      0.2209
     12  O3         6.3470   -1.8240   -8.4230 O.3   300  LP4300     -0.4477
     13  C28        5.2970   -2.4880   -9.0070 C.2   300  LP4300      0.3196
     14  O42        5.5200   -3.5970   -9.5330 O.2   300  LP4300     -0.2500
     15  C29        3.9130   -1.7530   -9.1520 C.3   300  LP4300      0.1423
     16  C30        4.1210   -0.2290   -9.3950 C.3   300  LP4300      0.1631
     17  O43        4.0990    0.5250   -8.1490 O.3   300  LP4300     -0.2225
     18  C31        3.0950    0.3270  -10.4010 C.3   300  LP4300      0.0335
     19  C32        2.5380    1.7210  -10.0530 C.3   300  LP4300      0.0026
     20  C33        1.2340    1.9900  -10.8410 C.3   300  LP4300      0.0001
     21  C34        1.4720    2.8420  -12.0940 C.3   300  LP4300      0.0000
     22  C35        0.4730    4.0060  -12.1740 C.3   300  LP4300      0.0000
     23  C36       -0.5670    3.8820  -13.3140 C.3   300  LP4300      0.0000
     24  C37       -1.6990    4.9620  -13.2100 C.3   300  LP4300      0.0000
     25  C38       -2.5370    4.8390  -11.9060 C.3   300  LP4300      0.0000
     26  C39       -3.5800    5.9630  -11.7460 C.3   300  LP4300      0.0000
     27  C40       -3.3490    6.9290  -10.5490 C.3   300  LP4300      0.0000
     28  C41       -4.1600    8.2470  -10.7010 C.3   300  LP4300      0.0000
     29  C2         7.1130   -1.9930   -6.2170 C.3   300  LP4300      0.1671
     30  C1         8.0840   -2.6780   -5.2150 C.3   300  LP4300      0.1676
     31  N2         5.7380   -1.8880   -5.6700 N.am  300  LP4300     -0.2007
     32  C7         5.2550   -0.7080   -5.2690 C.2   300  LP4300      0.2441
     33  O7         5.8660    0.3550   -5.4360 O.2   300  LP4300     -0.2733
     34  C8         3.8030   -0.7050   -4.7460 C.3   300  LP4300      0.1196
     35  C16        3.3360    0.7550   -4.5640 C.3   300  LP4300      0.1611
     36  O44        3.3690    1.2070   -3.1810 O.3   300  LP4300     -0.2226
     37  C17        1.9450    0.9570   -5.1100 C.3   300  LP4300      0.0334
     38  C18        1.5090    2.4230   -4.9140 C.3   300  LP4300      0.0026
     39  C19        0.7600    2.9390   -6.1430 C.3   300  LP4300      0.0001
     40  C20        1.1130    4.4060   -6.4190 C.3   300  LP4300      0.0000
     41  C21       -0.1700    5.1610   -6.6960 C.3   300  LP4300      0.0000
     42  C22       -0.7580    4.7150   -8.0340 C.3   300  LP4300      0.0000
     43  C23       -2.2790    4.5510   -7.9420 C.3   300  LP4300      0.0000
     44  C24       -2.7200    3.1260   -8.2870 C.3   300  LP4300      0.0000
     45  C25       -4.1690    3.1390   -8.7920 C.3   300  LP4300      0.0000
@<TRIPOS>BOND
     1    23    24    1
     2    23    22    1
     3    24    25    1
     4    22    21    1
     5    21    20    1
     6    25    26    1
     7    26    27    1
     8     1     2    2
     9     4     2    1
    10    20    19    1
    11     2     3    1
    12     2     5    1
    13    28    27    1
    14    18    19    1
    15    18    16    1
    16    14    13    2
    17    16    15    1
    18    16    17    1
    19     5     6    1
    20    15    13    1
    21    13    12    1
    22    45    44    1
    23    12    11    1
    24    44    43    1
    25     6    11    1
    26     6     7    1
    27    42    43    1
    28    42    41    1
    29     9    10    1
    30     9     7    1
    31    11    29    1
    32     7     8    1
    33    41    40    1
    34    40    39    1
    35    29    31    1
    36    29    30    1
    37    39    38    1
    38     8    30    1
    39    31    32   am
    40    33    32    2
    41    32    34    1
    42    37    38    1
    43    37    35    1
    44    34    35    1
    45    35    36    1
