@<TRIPOS>MOLECULE
3mu3_LP5_A_1.pdb
 48 48 0 0 0
SMALL
GASTEIGER

@<TRIPOS>ATOM
      1  O48       11.2050    1.0680    1.1510 O.3   301  LP5301     -0.1145
      2  P45       11.0810   -0.2810    0.5010 P.3   301  LP5301      0.5345
      3  O46       12.0180   -0.4910   -0.8480 O.2   301  LP5301     -0.2223
      4  O47       11.4580   -1.5320    1.4560 O.3   301  LP5301     -0.1145
      5  O1         9.5190   -0.4720    0.0630 O.3   301  LP5301     -0.2424
      6  C1         8.9180    0.4210   -0.8820 C.3   301  LP5301      0.2686
      7  C2         7.6130    1.0060   -0.3470 C.3   301  LP5301      0.1942
      8  N2         7.9230    1.4910    0.9980 N.am  301  LP5301     -0.1981
      9  C7         7.9080    2.7890    1.2850 C.2   301  LP5301      0.2442
     10  C8         8.2570    3.2110    2.7340 C.3   301  LP5301      0.1196
     11  C16        8.1850    2.0780    3.7520 C.3   301  LP5301      0.1611
     12  O44        8.9220    0.9550    3.2270 O.3   301  LP5301     -0.2226
     13  C17        6.7460    1.5990    3.9820 C.3   301  LP5301      0.0334
     14  C18        5.8040    2.6990    4.5010 C.3   301  LP5301      0.0026
     15  C19        4.4810    2.0710    5.0310 C.3   301  LP5301      0.0001
     16  C20        3.3650    2.1370    3.9840 C.3   301  LP5301      0.0000
     17  C21        1.9790    1.8850    4.6080 C.3   301  LP5301      0.0000
     18  C22        0.8830    2.4560    3.6790 C.3   301  LP5301      0.0000
     19  C23       -0.3340    1.5250    3.4870 C.3   301  LP5301      0.0000
     20  C24       -1.3410    2.1860    2.5210 C.3   301  LP5301      0.0000
     21  C25       -2.7920    1.6900    2.6390 C.3   301  LP5301      0.0000
     22  C26       -3.7820    2.8360    2.2900 C.3   301  LP5301      0.0000
     23  C27       -4.3200    2.7110    0.8510 C.3   301  LP5301      0.0000
     24  O7         7.5910    3.6290    0.4550 O.2   301  LP5301     -0.2733
     25  C3         6.4970   -0.0600   -0.2280 C.3   301  LP5301      0.2262
     26  C4         6.5790   -1.1030   -1.3740 C.3   301  LP5301      0.2231
     27  C5         8.0200   -1.5980   -1.6060 C.3   301  LP5301      0.1845
     28  O5         8.7130   -0.4000   -2.0010 O.3   301  LP5301     -0.3258
     29  C6         8.1500   -2.5890   -2.7980 C.3   301  LP5301      0.2142
     30  O6         8.1040   -1.8490   -4.0320 O.3   301  LP5301     -0.2176
     31  O4         5.7380   -2.2190   -1.0910 O.3   301  LP5301     -0.2165
     32  O3         5.1440    0.5680   -0.0190 O.3   301  LP5301     -0.4475
     33  C28        4.2060   -0.2950    0.5530 C.2   301  LP5301      0.3196
     34  O42        4.3640   -0.7270    1.7000 O.2   301  LP5301     -0.2500
     35  C29        2.9230   -0.6800   -0.2250 C.3   301  LP5301      0.1423
     36  C30        2.1790    0.5890   -0.6120 C.3   301  LP5301      0.1631
     37  O43        2.1570    1.4530    0.5210 O.3   301  LP5301     -0.2225
     38  C31        0.7660    0.2630   -1.1180 C.3   301  LP5301      0.0335
     39  C32       -0.3200    1.3110   -0.7410 C.3   301  LP5301      0.0026
     40  C33       -0.8990    2.0500   -1.9520 C.3   301  LP5301      0.0001
     41  C34       -2.3930    1.7720   -2.1640 C.3   301  LP5301      0.0000
     42  C35       -2.7740    2.1540   -3.6060 C.3   301  LP5301      0.0000
     43  C36       -4.0210    1.4120   -4.1490 C.3   301  LP5301      0.0000
     44  C37       -4.6740    2.3060   -5.2310 C.3   301  LP5301      0.0000
     45  C38       -5.7660    1.5760   -6.0190 C.3   301  LP5301      0.0000
     46  C39       -7.0520    1.5060   -5.1870 C.3   301  LP5301      0.0000
     47  C40       -8.2070    0.9640   -6.0150 C.3   301  LP5301      0.0000
     48  C41       -9.4920    1.5570   -5.4590 C.3   301  LP5301      0.0000
@<TRIPOS>BOND
     1    45    44    1
     2    45    46    1
     3    47    48    1
     4    47    46    1
     5    44    43    1
     6    43    42    1
     7    30    29    1
     8    42    41    1
     9    29    27    1
    10    41    40    1
    11    28    27    1
    12    28     6    1
    13    40    39    1
    14    27    26    1
    15    26    31    1
    16    26    25    1
    17    38    39    1
    18    38    36    1
    19     6     7    1
    20     6     5    1
    21     3     2    2
    22    36    35    1
    23    36    37    1
    24     7    25    1
    25     7     8    1
    26    25    32    1
    27    35    33    1
    28    32    33    1
    29     5     2    1
    30    24     9    2
    31     2     1    1
    32     2     4    1
    33    33    34    2
    34    23    22    1
    35     8     9   am
    36     9    10    1
    37    22    21    1
    38    20    21    1
    39    20    19    1
    40    10    11    1
    41    12    11    1
    42    19    18    1
    43    18    17    1
    44    11    13    1
    45    13    14    1
    46    16    17    1
    47    16    15    1
    48    14    15    1
