@<TRIPOS>MOLECULE
3mu6_BXL_A_1.pdb
 25 26 0 0 0
SMALL
GASTEIGER

@<TRIPOS>ATOM
      1  C1         0.4680  -23.0210   17.9690 C.ar  100  BXL100      0.0013
      2  N1        -3.1490  -22.6210   17.0520 N.am  100  BXL100     -0.1789
      3  O1        -3.2750  -22.6950   19.3690 O.2   100  BXL100     -0.2726
      4  C2         1.0090  -23.4390   16.7610 C.ar  100  BXL100      0.0001
      5  N2        -7.1020  -15.5520   21.7220 N.am  100  BXL100     -0.1776
      6  O2        -5.5370  -14.9050   23.2920 O.2   100  BXL100     -0.2726
      7  C3         0.1820  -23.5910   15.6570 C.ar  100  BXL100      0.0013
      8  N3        -9.5730  -15.4460   23.1340 N.pl3 100  BXL100     -0.1267
      9  C4        -1.1800  -23.3240   15.7570 C.ar  100  BXL100      0.0166
     10  C5        -1.7330  -22.9070   16.9640 C.ar  100  BXL100      0.0734
     11  C6        -0.8940  -22.7580   18.0650 C.ar  100  BXL100      0.0166
     12  C7        -3.8490  -22.4880   18.3070 C.2   100  BXL100      0.2500
     13  C8        -5.3000  -22.1090   18.3360 C.3   100  BXL100      0.1132
     14  C9        -5.7620  -21.1960   19.4350 C.2   100  BXL100     -0.0165
     15  C10       -4.8940  -20.0280   19.8050 C.2   100  BXL100     -0.0044
     16  C11       -5.1700  -19.2860   21.0810 C.2   100  BXL100     -0.0044
     17  C12       -5.2200  -17.7860   21.0390 C.2   100  BXL100     -0.0165
     18  C13       -5.1240  -17.0250   22.3290 C.3   100  BXL100      0.1132
     19  C14       -5.8790  -15.7340   22.4580 C.2   100  BXL100      0.2500
     20  C15       -7.8620  -14.3290   21.7870 C.ar  100  BXL100      0.0900
     21  C16       -7.3960  -13.1880   21.1400 C.ar  100  BXL100      0.0180
     22  C17       -8.1320  -12.0090   21.1660 C.ar  100  BXL100      0.0014
     23  C18       -9.3420  -11.9650   21.8470 C.ar  100  BXL100      0.0015
     24  C19       -9.8120  -13.1030   22.4930 C.ar  100  BXL100      0.0194
     25  C20       -9.0780  -14.2840   22.4620 C.ar  100  BXL100      0.1043
@<TRIPOS>BOND
     1     7     9   ar
     2     7     4   ar
     3     9    10   ar
     4     4     1   ar
     5    10     2    1
     6    10    11   ar
     7     2    12   am
     8     1    11   ar
     9    12    13    1
    10    12     3    2
    11    13    14    1
    12    14    15    2
    13    15    16    1
    14    17    16    2
    15    17    18    1
    16    21    22   ar
    17    21    20   ar
    18    22    23   ar
    19     5    20    1
    20     5    19   am
    21    20    25   ar
    22    23    24   ar
    23    18    19    1
    24    19     6    2
    25    25    24   ar
    26    25     8    1
