@<TRIPOS>MOLECULE
3muf_ADP_A_1.pdb
 27 29 0 0 0
SMALL
GASTEIGER

@<TRIPOS>ATOM
      1  PB        30.3360   26.0100   -4.5270 P.3   202  ADP202      0.5373
      2  O1B       30.3120   27.3200   -5.2380 O.2   202  ADP202     -0.2221
      3  O2B       31.5140   25.9560   -3.4220 O.3   202  ADP202     -0.1143
      4  O3B       28.9700   25.7280   -3.6860 O.3   202  ADP202     -0.1143
      5  PA        30.4440   24.8410   -7.0820 P.3   202  ADP202      0.2231
      6  O1A       30.6840   23.4780   -7.6210 O.2   202  ADP202     -0.5169
      7  O2A       29.2140   25.5810   -7.4570 O.3   202  ADP202     -0.4370
      8  O3A       30.5330   24.7310   -5.4820 O.3   202  ADP202     -0.2261
      9  O5'       31.6980   25.7880   -7.4530 O.3   202  ADP202     -0.3111
     10  C5'       31.7000   26.5280   -8.6820 C.3   202  ADP202      0.1813
     11  C4'       32.6850   25.9340   -9.7170 C.3   202  ADP202      0.1821
     12  O4'       33.7110   25.1160   -9.1150 O.3   202  ADP202     -0.3135
     13  C3'       32.0120   24.9260  -10.6500 C.3   202  ADP202      0.2184
     14  O3'       31.2650   25.6190  -11.6600 O.3   202  ADP202     -0.2174
     15  C2'       33.2230   24.1730  -11.2370 C.3   202  ADP202      0.2570
     16  O2'       33.5530   24.6720  -12.5410 O.3   202  ADP202     -0.2130
     17  C1'       34.3800   24.5270  -10.2720 C.3   202  ADP202      0.3186
     18  N9        35.3460   23.4080   -9.8800 N.pl3 202  ADP202     -0.1439
     19  C8        35.3750   22.1510  -10.3590 C.3   202  ADP202      0.3377
     20  N7        36.3710   21.4770   -9.7770 N.2   202  ADP202     -0.2095
     21  C5        36.9880   22.3030   -8.9220 C.2   202  ADP202      0.2526
     22  C6        38.0710   22.1790   -8.0460 C.2   202  ADP202      0.4393
     23  N6        38.7190   21.0290   -7.9410 N.pl3 202  ADP202      0.2180
     24  N1        38.4570   23.2360   -7.2970 N.2   202  ADP202      0.0021
     25  C2        37.8110   24.3910   -7.3830 C.3   202  ADP202      0.5254
     26  N3        36.7810   24.5510   -8.2070 N.2   202  ADP202     -0.0055
     27  C4        36.3410   23.5310   -8.9880 C.2   202  ADP202      0.3518
@<TRIPOS>BOND
     1    16    15    1
     2    14    13    1
     3    15    13    1
     4    15    17    1
     5    13    11    1
     6    19    18    1
     7    19    20    1
     8    17    18    1
     9    17    12    1
    10    18    27    1
    11    20    21    2
    12    11    12    1
    13    11    10    1
    14    27    21    1
    15    27    26    2
    16    21    22    1
    17    10     9    1
    18    26    25    1
    19    22    23    1
    20    22    24    2
    21     6     5    2
    22     7     5    1
    23     9     5    1
    24    25    24    1
    25     5     8    1
    26     8     1    1
    27     2     1    2
    28     1     4    1
    29     1     3    1
