@<TRIPOS>MOLECULE
3muf_S3P_A_1.pdb
 16 16 0 0 0
SMALL
GASTEIGER

@<TRIPOS>ATOM
      1  C1        27.2750   33.4150    0.5400 C.2   201  S3P201      0.0583
      2  C2        27.7070   32.4750   -0.4210 C.2   201  S3P201      0.0084
      3  C3        26.7640   31.8290   -1.4630 C.3   201  S3P201      0.1809
      4  C4        25.3130   32.0360   -0.9760 C.3   201  S3P201      0.2140
      5  C5        25.0180   33.5190   -0.6880 C.3   201  S3P201      0.1895
      6  C6        25.8350   33.9780    0.5550 C.3   201  S3P201      0.0684
      7  C7        28.2520   33.9460    1.5980 C.2   201  S3P201      0.3837
      8  O1        27.0040   30.3810   -1.5520 O.3   201  S3P201     -0.2655
      9  O2        25.1260   31.2940    0.2620 O.3   201  S3P201     -0.2174
     10  O3        25.2830   34.3650   -1.8620 O.3   201  S3P201     -0.2200
     11  O4        27.7890   34.7910    2.4030 O.co2 201  S3P201     -0.2409
     12  O5        29.4470   33.5400    1.6020 O.co2 201  S3P201     -0.2409
     13  P1        27.9840   29.5920   -2.6750 P.3   201  S3P201      0.5329
     14  O6        27.2910   28.4700   -3.3510 O.3   201  S3P201     -0.1145
     15  O7        28.4140   30.6100   -3.9020 O.2   201  S3P201     -0.2224
     16  O8        29.2840   29.1940   -1.6880 O.3   201  S3P201     -0.1145
@<TRIPOS>BOND
     1    15    13    2
     2    14    13    1
     3    13    16    1
     4    13     8    1
     5    10     5    1
     6     8     3    1
     7     3     4    1
     8     3     2    1
     9     4     5    1
    10     4     9    1
    11     5     6    1
    12     2     1    2
    13     1     6    1
    14     1     7    1
    15     7    12   ar
    16     7    11   ar
