@<TRIPOS>MOLECULE
3mui_XYP_A_1.pdb
 10 10 0 0 0
SMALL
GASTEIGER

@<TRIPOS>ATOM
      1  O4A      -37.9090   -4.9520 -115.3980 O.3   448  XYP448     -0.1869
      2  C1B      -37.7020   -5.6540 -114.2220 C.3   448  XYP448      0.3024
      3  C2B      -38.6710   -6.8360 -114.1470 C.3   448  XYP448      0.2434
      4  C3B      -38.3760   -7.7040 -112.9170 C.3   448  XYP448      0.2199
      5  C4B      -36.8920   -8.0880 -112.8780 C.3   448  XYP448      0.2143
      6  C5B      -36.0190   -6.8340 -113.0040 C.3   448  XYP448      0.1804
      7  O2B      -40.0050   -6.3570 -114.0850 O.3   448  XYP448     -0.2148
      8  O3B      -39.1710   -8.8820 -112.9610 O.3   448  XYP448     -0.2174
      9  O4B      -36.6000   -8.7680 -111.6400 O.3   448  XYP448     -0.2176
     10  O5B      -36.3470   -6.1220 -114.2170 O.3   448  XYP448     -0.3237
@<TRIPOS>BOND
     1     1     2    1
     2     2    10    1
     3     2     3    1
     4    10     6    1
     5     3     7    1
     6     3     4    1
     7     6     5    1
     8     8     4    1
     9     4     5    1
    10     5     9    1
