@<TRIPOS>MOLECULE
3muk_III_D_1.pdb
 49 48 0 0 0
SMALL
GASTEIGER

@<TRIPOS>ATOM
      1  N          2.5900  -15.0600   -3.2660 N.3     1  ALA1       -0.1231
      2  CA         1.1340  -14.7870   -3.4420 C.3     1  ALA1        0.1694
      3  C          0.9060  -13.4100   -4.0020 C.2     1  ALA1        0.2593
      4  O          1.6780  -12.5430   -3.7750 O.2     1  ALA1       -0.2718
      5  CB         0.3900  -14.8920   -2.0940 C.3     1  ALA1        0.0304
      6  N         -0.2540  -13.1540   -4.6200 N.am    2  THR2       -0.1939
      7  CA        -0.5860  -11.7890   -4.9730 C.3     2  THR2        0.2028
      8  C         -2.0990  -11.6010   -4.8790 C.2     2  THR2        0.2642
      9  O         -2.8560  -12.5920   -4.8580 O.2     2  THR2       -0.2714
     10  CB        -0.1320  -11.4490   -6.4400 C.3     2  THR2        0.1808
     11  OG1       -0.7710  -12.3530   -7.3540 O.3     2  THR2       -0.2208
     12  CG2        1.4030  -11.5190   -6.6370 C.3     2  THR2        0.0379
     13  C         -4.6930  -10.1530   -5.9940 C.2     3  LYS3        0.2616
     14  N         -2.5230  -10.3430   -4.8630 N.am    3  LYS3       -0.1963
     15  O         -5.9670  -10.2800   -5.9850 O.2     3  LYS3       -0.2715
     16  CA        -3.9440  -10.0260   -4.6850 C.3     3  LYS3        0.1728
     17  CB        -4.1130   -8.5980   -4.1340 C.3     3  LYS3        0.0312
     18  CD        -4.1390   -7.2640   -2.0160 C.3     3  LYS3        0.0235
     19  CE        -3.6040   -7.1770   -0.5820 C.3     3  LYS3        0.1151
     20  CG        -3.5180   -8.4410   -2.7340 C.3     3  LYS3        0.0041
     21  NZ        -4.3710   -6.0920    0.0640 N.am    3  LYS3       -0.2054
     22  CAA       -5.9540   -4.2420    1.4050 C.3     3  LYS3        0.0101
     23  OAD       -2.5500   -4.8380    0.2390 O.2     3  LYS3       -0.2733
     24  CAF       -4.5620   -3.8250    1.0660 C.3     3  LYS3        0.0868
     25  CAL       -3.7760   -4.9520    0.4290 C.2     3  LYS3        0.2414
     26  N         -3.9560  -10.0720   -7.1100 N.am    4  ALA4       -0.1963
     27  CA        -4.5680  -10.1410   -8.4490 C.3     4  ALA4        0.1728
     28  C         -3.5810  -10.7210   -9.4490 C.2     4  ALA4        0.2616
     29  O         -2.3900  -10.8390   -9.1320 O.2     4  ALA4       -0.2715
     30  CB        -5.0000   -8.7760   -8.8830 C.3     4  ALA4        0.0334
     31  N         -4.0630  -11.0750  -10.6540 N.am    5  ALA5       -0.1963
     32  CA        -3.1600  -11.4260  -11.7840 C.3     5  ALA5        0.1728
     33  C         -2.1620  -10.2780  -12.1410 C.2     5  ALA5        0.2616
     34  O         -2.4620   -9.0620  -12.0030 O.2     5  ALA5       -0.2715
     35  CB        -3.9670  -11.8530  -13.0280 C.3     5  ALA5        0.0334
     36  N         -0.9530  -10.6540  -12.5550 N.am    6  ARG6       -0.1963
     37  CA         0.0080   -9.6520  -13.0130 C.3     6  ARG6        0.1728
     38  C         -0.6020   -9.0030  -14.2730 C.2     6  ARG6        0.2616
     39  O         -0.9900   -9.7130  -15.2290 O.2     6  ARG6       -0.2715
     40  CB         1.4100  -10.2650  -13.3110 C.3     6  ARG6        0.0334
     41  N         -0.6950   -7.6660  -14.2430 N.am    7  LYS7       -0.1977
     42  CA        -1.1420   -6.8670  -15.3950 C.3     7  LYS7        0.1596
     43  C         -0.0260   -6.7560  -16.4380 C.2     7  LYS7        0.2287
     44  O          1.1450   -6.5080  -16.0880 O.2     7  LYS7       -0.2864
     45  CB        -1.5530   -5.4720  -14.9280 C.3     7  LYS7        0.0298
     46  CG        -2.7740   -5.4630  -14.0290 C.3     7  LYS7        0.0038
     47  CD        -3.1660   -4.0210  -13.7050 C.3     7  LYS7        0.0206
     48  CE        -4.4950   -3.9330  -12.9880 C.3     7  LYS7        0.1093
     49  NZ        -4.8650   -2.4960  -12.7200 N.3     7  LYS7       -0.1314
@<TRIPOS>BOND
     1    43    44    2
     2    43    42    1
     3    42    45    1
     4    42    41    1
     5    39    38    2
     6    45    46    1
     7    38    41   am
     8    38    37    1
     9    46    47    1
    10    47    48    1
    11    40    37    1
    12    35    32    1
    13    37    36    1
    14    48    49    1
    15    36    33   am
    16    33    34    2
    17    33    32    1
    18    32    31    1
    19    31    28   am
    20    28    29    2
    21    28    27    1
    22    30    27    1
    23    27    26    1
    24    11    10    1
    25    26    13   am
    26    12    10    1
    27    10     7    1
    28    13    15    2
    29    13    16    1
    30     7     8    1
    31     7     6    1
    32     8    14   am
    33     8     9    2
    34    14    16    1
    35    16    17    1
    36     6     3   am
    37    17    20    1
    38     3     4    2
    39     3     2    1
    40     2     1    1
    41     2     5    1
    42    20    18    1
    43    18    19    1
    44    19    21    1
    45    21    25   am
    46    23    25    2
    47    25    24    1
    48    24    22    1
