@<TRIPOS>MOLECULE
3mul_III_D_1.pdb
 18 17 0 0 0
SMALL
GASTEIGER

@<TRIPOS>ATOM
      1  N         -7.0730  -12.7740   -3.1380 N.3     1  GLY1       -0.1210
      2  CA        -5.8580  -12.7390   -3.8950 C.3     1  GLY1        0.1956
      3  C         -5.6480  -11.3210   -4.3730 C.2     1  GLY1        0.2611
      4  O         -6.5580  -10.5210   -4.3170 O.2     1  GLY1       -0.2717
      5  C         -3.3980   -9.6510   -6.5750 C.2     2  LYS2        0.2287
      6  N         -4.4630  -11.0160   -4.8720 N.am    2  LYS2       -0.1979
      7  O         -3.9630   -9.4910   -7.6720 O.2     2  LYS2       -0.2864
      8  CA        -4.1790   -9.6700   -5.2930 C.3     2  LYS2        0.1596
      9  CB        -3.3920   -9.0820   -4.1450 C.3     2  LYS2        0.0298
     10  CD        -3.3450   -7.4020   -2.3070 C.3     2  LYS2        0.0235
     11  CE        -3.5690   -7.6720   -0.8530 C.3     2  LYS2        0.1151
     12  CG        -4.2340   -8.2190   -3.2040 C.3     2  LYS2        0.0040
     13  NZ        -4.1660   -6.5450   -0.1860 N.am    2  LYS2       -0.2054
     14  CAA       -5.8490   -5.6320    0.9810 C.3     2  LYS2        0.0005
     15  OAD       -2.3810   -5.6280   -0.2720 O.2     2  LYS2       -0.2733
     16  CAF       -5.2850   -4.3120    1.3260 C.3     2  LYS2        0.0096
     17  CAJ       -3.8830   -4.2610    0.7990 C.3     2  LYS2        0.0868
     18  CAN       -3.4470   -5.5180    0.0830 C.2     2  LYS2        0.2414
@<TRIPOS>BOND
     1     7     5    2
     2     5     8    1
     3     8     6    1
     4     8     9    1
     5     6     3   am
     6     3     4    2
     7     3     2    1
     8     9    12    1
     9     2     1    1
    10    12    10    1
    11    10    11    1
    12    11    13    1
    13    15    18    2
    14    13    18   am
    15    18    17    1
    16    17    16    1
    17    14    16    1
