@<TRIPOS>MOLECULE
3muo_ZPR_A_1.pdb
 17 18 0 0 0
SMALL
GASTEIGER

@<TRIPOS>ATOM
      1  O17       67.5820   33.9630  124.0660 O.co2 701  ZPR701     -0.2223
      2  C15       67.3030   35.1590  123.5240 C.2   701  ZPR701      0.4476
      3  O16       67.6640   36.1830  124.0960 O.co2 701  ZPR701     -0.2223
      4  N14       66.6270   35.2180  122.3370 N.am  701  ZPR701     -0.2363
      5  C10       66.2460   36.4400  121.5970 C.3   701  ZPR701      0.1551
      6  C8        65.3040   37.3520  122.4050 C.2   701  ZPR701      0.2439
      7  O9        64.6050   36.8840  123.2940 O.2   701  ZPR701     -0.2731
      8  C11       65.5180   35.9760  120.3080 C.3   701  ZPR701      0.0311
      9  C12       65.0250   34.5570  120.6510 C.3   701  ZPR701      0.0238
     10  C13       66.1590   34.0410  121.5660 C.3   701  ZPR701      0.0973
     11  C4        65.0640   41.0780  122.5500 C.3   701  ZPR701      0.0243
     12  C5        65.6620   40.8530  121.1460 C.3   701  ZPR701      0.0233
     13  C1        62.9500   39.7450  122.2450 C.3   701  ZPR701      0.2017
     14  O2        62.8250   39.1410  120.9630 O.3   701  ZPR701     -0.2186
     15  N7        65.2510   38.6850  122.1270 N.am  701  ZPR701     -0.2772
     16  C6        66.0580   39.3750  121.0780 C.3   701  ZPR701      0.0935
     17  C3        64.3800   39.7090  122.8110 C.3   701  ZPR701      0.1083
@<TRIPOS>BOND
     1     8     9    1
     2     8     5    1
     3     9    10    1
     4    14    13    1
     5    16    12    1
     6    16    15    1
     7    12    11    1
     8    10     4    1
     9     5     4    1
    10     5     6    1
    11    15     6   am
    12    15    17    1
    13    13    17    1
    14     4     2   am
    15     6     7    2
    16    11    17    1
    17     2     1   ar
    18     2     3   ar
