@<TRIPOS>MOLECULE
3mup_SMK_A_1.pdb
 37 40 0 0 0
SMALL
GASTEIGER

@<TRIPOS>ATOM
      1  CAA       34.3140   -7.0650   10.3260 C.3   600  SMK600      0.0021
      2  CB        35.4390   -7.6400    9.4500 C.3   600  SMK600      0.0284
      3  CA        36.0510   -8.8800   10.0880 C.3   600  SMK600      0.1693
      4  N         37.1900   -9.4120    9.3020 N.3   600  SMK600     -0.1231
      5  C         34.9670   -9.9370   10.2310 C.2   600  SMK600      0.2592
      6  O         34.2560  -10.2660    9.2730 O.2   600  SMK600     -0.2718
      7  NAY       34.8830  -10.4570   11.4500 N.am  600  SMK600     -0.1966
      8  CBI       33.8720  -11.4520   11.7730 C.3   600  SMK600      0.1712
      9  CBB       32.8710  -10.9070   12.7840 C.2   600  SMK600      0.2458
     10  OAF       33.0840   -9.8030   13.2990 O.2   600  SMK600     -0.2730
     11  NBK       31.7380  -11.5520   13.0710 N.am  600  SMK600     -0.2732
     12  CBF       34.4910  -12.7940   12.1560 C.3   600  SMK600      0.0304
     13  CAS       35.2550  -12.7660   13.4750 C.3   600  SMK600      0.0227
     14  CAQ       36.7330  -12.4520   13.2130 C.3   600  SMK600      0.1094
     15  NAB       37.0030  -12.5370   11.7660 N.3   600  SMK600     -0.1314
     16  CAT       33.5340  -13.9830   12.0130 C.3   600  SMK600      0.0040
     17  CAU       32.3490  -13.9170   12.9720 C.3   600  SMK600      0.0199
     18  CBG       31.3010  -12.8670   12.5570 C.3   600  SMK600      0.0759
     19  CAV       29.9940  -13.1610   13.3210 C.3   600  SMK600      0.0220
     20  CAW       29.4710  -11.7740   13.6670 C.3   600  SMK600      0.0310
     21  CBJ       30.7480  -11.0170   14.0220 C.3   600  SMK600      0.1535
     22  CBA       31.1570  -11.2530   15.4960 C.2   600  SMK600      0.2600
     23  OAE       32.0410  -12.0610   15.8110 O.2   600  SMK600     -0.2715
     24  NAX       30.4810  -10.5020   16.3750 N.am  600  SMK600     -0.1967
     25  CBH       30.7100  -10.5930   17.8350 C.3   600  SMK600      0.1397
     26  CBC       29.7480  -11.6530   18.4110 C.ar  600  SMK600      0.0016
     27  CAM       30.2670  -12.8180   18.9770 C.ar  600  SMK600     -0.0023
     28  CAI       29.4340  -13.8330   19.4520 C.ar  600  SMK600     -0.0003
     29  CAG       28.0580  -13.7090   19.3070 C.ar  600  SMK600     -0.0000
     30  CAJ       27.5400  -12.5550   18.7150 C.ar  600  SMK600     -0.0003
     31  CAN       28.3760  -11.5500   18.2350 C.ar  600  SMK600     -0.0023
     32  CBD       30.6880   -9.1920   18.4850 C.ar  600  SMK600      0.0016
     33  CAO       31.4460   -8.1730   17.8930 C.ar  600  SMK600     -0.0023
     34  CAK       31.4650   -6.8850   18.4360 C.ar  600  SMK600     -0.0003
     35  CAH       30.7500   -6.6010   19.6020 C.ar  600  SMK600     -0.0000
     36  CAL       29.9940   -7.6210   20.2040 C.ar  600  SMK600     -0.0003
     37  CAP       29.9590   -8.9090   19.6430 C.ar  600  SMK600     -0.0023
@<TRIPOS>BOND
     1     6     5    2
     2     4     3    1
     3     2     3    1
     4     2     1    1
     5     3     5    1
     6     5     7   am
     7     7     8    1
     8    15    14    1
     9     8    12    1
    10     8     9    1
    11    16    12    1
    12    16    17    1
    13    12    13    1
    14    18    17    1
    15    18    11    1
    16    18    19    1
    17     9    11   am
    18     9    10    2
    19    11    21    1
    20    14    13    1
    21    19    20    1
    22    20    21    1
    23    21    22    1
    24    22    23    2
    25    22    24   am
    26    24    25    1
    27    25    26    1
    28    25    32    1
    29    33    34   ar
    30    33    32   ar
    31    31    26   ar
    32    31    30   ar
    33    26    27   ar
    34    34    35   ar
    35    32    37   ar
    36    30    29   ar
    37    27    28   ar
    38    29    28   ar
    39    35    36   ar
    40    37    36   ar
