@<TRIPOS>MOLECULE
3mus_HEM_A_1.pdb
 43 50 0 0 0
SMALL
GASTEIGER

@<TRIPOS>ATOM
      1  CHA       37.9550   38.2120   63.0290 C.2   201  HEM201      0.0000
      2  CHB       38.0130   34.0790   60.5250 C.2   201  HEM201      0.0000
      3  CHC       36.0650   31.7470   64.2660 C.2   201  HEM201      0.0000
      4  CHD       36.0950   35.8220   66.8500 C.2   201  HEM201      0.0000
      5  C1A       38.1260   37.2840   61.9920 C.ar  201  HEM201      0.0000
      6  C2A       38.5270   37.5980   60.6690 C.ar  201  HEM201      0.0000
      7  C3A       38.5900   36.4340   59.9780 C.ar  201  HEM201      0.0000
      8  C4A       38.1590   35.4000   60.8670 C.ar  201  HEM201      0.0000
      9  CMA       38.9780   36.2760   58.5980 C.3   201  HEM201      0.0000
     10  CAA       38.8120   39.0050   60.1080 C.3   201  HEM201      0.0000
     11  CBA       37.5410   39.8850   59.9330 C.3   201  HEM201      0.0000
     12  CGA       36.5030   39.2510   58.9800 C.2   201  HEM201      0.0000
     13  O1A       36.8630   38.9050   57.8310 O.co2 201  HEM201      0.0000
     14  O2A       35.3180   39.1290   59.3780 O.co2 201  HEM201      0.0000
     15  C1B       37.5020   33.1160   61.3510 C.2   201  HEM201      0.0000
     16  C2B       37.3610   31.7530   60.9620 C.2   201  HEM201      0.0000
     17  C3B       36.8190   31.0640   61.9840 C.2   201  HEM201      0.0000
     18  C4B       36.6310   32.0460   63.0330 C.2   201  HEM201      0.0000
     19  CMB       37.7500   31.1840   59.6040 C.3   201  HEM201      0.0000
     20  CAB       36.4940   29.6360   61.9560 C.3   201  HEM201      0.0000
     21  CBB       37.3640   28.8110   62.8620 C.3   201  HEM201      0.0000
     22  C1C       35.8750   32.6310   65.2770 C.ar  201  HEM201      0.0000
     23  C2C       35.2990   32.2980   66.5650 C.ar  201  HEM201      0.0000
     24  C3C       35.2990   33.4200   67.3180 C.ar  201  HEM201      0.0000
     25  C4C       35.8960   34.4840   66.4750 C.ar  201  HEM201      0.0000
     26  CMC       34.7690   30.9230   67.0220 C.3   201  HEM201      0.0000
     27  CAC       34.7930   33.5260   68.7520 C.2   201  HEM201      0.0000
     28  CBC       33.8550   34.3590   69.2090 C.2   201  HEM201      0.0000
     29  C1D       36.6350   36.8380   66.0190 C.2   201  HEM201      0.0000
     30  C2D       36.8190   38.2160   66.4380 C.2   201  HEM201      0.0000
     31  C3D       37.3140   38.9040   65.3800 C.2   201  HEM201      0.0000
     32  C4D       37.4590   37.9170   64.2910 C.2   201  HEM201      0.0000
     33  CMD       36.4920   38.8050   67.8180 C.3   201  HEM201      0.0000
     34  CAD       37.6360   40.4210   65.3440 C.3   201  HEM201      0.0000
     35  CBD       36.4740   41.1670   64.6300 C.3   201  HEM201      0.0000
     36  CGD       36.9390   42.3580   63.8470 C.2   201  HEM201      0.0000
     37  O1D       37.2670   42.2160   62.5980 O.co2 201  HEM201      0.0000
     38  O2D       37.2640   43.3330   64.5420 O.co2 201  HEM201      0.0000
     39  NA        37.8410   35.9320   62.1160 N.ar  201  HEM201      0.0000
     40  NB        37.0570   33.3100   62.6430 N.2   201  HEM201      0.0000
     41  NC        36.2480   33.9790   65.2150 N.ar  201  HEM201      0.0000
     42  ND        37.0430   36.6480   64.6880 N.2   201  HEM201      0.0000
     43 FE         37.0310   34.9860   63.6820 Fe    201  HEM201      0.0000
@<TRIPOS>BOND
     1    13    12   ar
     2     9     7    1
     3    12    14   ar
     4    12    11    1
     5    19    16    1
     6    11    10    1
     7     7     6   ar
     8     7     8   ar
     9    10     6    1
    10     2     8    2
    11     2    15    1
    12     6     5   ar
    13     8    39   ar
    14    16    15    1
    15    16    17    2
    16    15    40    2
    17    20    17    1
    18    20    21    1
    19    17    18    1
    20     5    39   ar
    21     5     1    2
    22    39    43    1
    23    37    36   ar
    24    40    18    1
    25    40    43    1
    26     1    32    1
    27    18     3    2
    28    43    42    1
    29    43    41    1
    30    36    38   ar
    31    36    35    1
    32     3    22    1
    33    32    42    2
    34    32    31    1
    35    35    34    1
    36    42    29    1
    37    41    22   ar
    38    41    25   ar
    39    22    23   ar
    40    34    31    1
    41    31    30    2
    42    29    30    1
    43    29     4    2
    44    30    33    1
    45    25     4    1
    46    25    24   ar
    47    23    26    1
    48    23    24   ar
    49    24    27    1
    50    27    28    2
