@<TRIPOS>MOLECULE
3muz_IPT_1_1.pdb
 15 15 0 0 0
SMALL
GASTEIGER

@<TRIPOS>ATOM
      1  C1        14.7350   27.5490   75.7920 C.3   2001  IPT2001     0.1955
      2  C2        13.4070   27.4730   76.5790 C.3   2001  IPT2001     0.2219
      3  O2        13.5070   26.4620   77.5770 O.3   2001  IPT2001    -0.2167
      4  C3        12.2680   27.1460   75.6090 C.3   2001  IPT2001     0.2181
      5  O3        11.0330   27.0700   76.3030 O.3   2001  IPT2001    -0.2175
      6  C4        12.1940   28.2410   74.5400 C.3   2001  IPT2001     0.2143
      7  O4        11.8580   29.5080   75.1420 O.3   2001  IPT2001    -0.2176
      8  C5        13.5690   28.2990   73.8160 C.3   2001  IPT2001     0.1820
      9  O5        14.6440   28.5660   74.7570 O.3   2001  IPT2001    -0.3398
     10  C6        13.5530   29.3980   72.7380 C.3   2001  IPT2001     0.2142
     11  O6        12.4340   29.2140   71.8720 O.3   2001  IPT2001    -0.2176
     12  S1        16.1090   27.9480   76.9120 S.3   2001  IPT2001    -0.1102
     13  C1'       17.5260   27.8860   75.7630 C.3   2001  IPT2001     0.0500
     14  C2'       17.6510   29.1890   74.9720 C.3   2001  IPT2001     0.0117
     15  C3'       18.8120   27.6660   76.5770 C.3   2001  IPT2001     0.0117
@<TRIPOS>BOND
     1    11    10    1
     2    10     8    1
     3     8     6    1
     4     8     9    1
     5     6     7    1
     6     6     4    1
     7     9     1    1
     8    14    13    1
     9     4     5    1
    10     4     2    1
    11    13    15    1
    12    13    12    1
    13     1     2    1
    14     1    12    1
    15     2     3    1
