@<TRIPOS>MOLECULE
3mv0_149_1_1.pdb
 12 12 0 0 0
SMALL
GASTEIGER

@<TRIPOS>ATOM
      1  C1       -10.8460  -27.5770  -26.2650 C.2   2001  1492001     0.3505
      2  C2        -9.8730  -28.6300  -25.7000 C.3   2001  1492001     0.2823
      3  C3        -8.9990  -29.2240  -26.8200 C.3   2001  1492001     0.2270
      4  C4        -9.8750  -29.6480  -28.0020 C.3   2001  1492001     0.2276
      5  C5       -10.4740  -28.3680  -28.6400 C.3   2001  1492001     0.2344
      6  C6       -11.5660  -28.7440  -29.6480 C.3   2001  1492001     0.2281
      7  O1       -11.4030  -26.8140  -25.5150 O.2   2001  1492001    -0.2472
      8  O2        -9.0230  -28.0130  -24.7230 O.3   2001  1492001    -0.2082
      9  O3        -8.2970  -30.3570  -26.3100 O.3   2001  1492001    -0.2169
     10  O4       -10.9390  -30.5040  -27.5440 O.3   2001  1492001    -0.2163
     11  O5       -11.0860  -27.4840  -27.6220 O.3   2001  1492001    -0.4450
     12  O6       -10.9720  -29.3830  -30.7770 O.3   2001  1492001    -0.2163
@<TRIPOS>BOND
     1    12     6    1
     2     6     5    1
     3     5     4    1
     4     5    11    1
     5     4    10    1
     6     4     3    1
     7    11     1    1
     8     3     9    1
     9     3     2    1
    10     1     2    1
    11     1     7    2
    12     2     8    1
