@<TRIPOS>MOLECULE
3mv5_XFE_A_1.pdb
 16 18 0 0 0
SMALL
GASTEIGER

@<TRIPOS>ATOM
      1  C1         7.7030    2.9450   19.0800 C.3   999  XFE999      0.1425
      2  C2         8.3500    4.1420   18.4140 C.3   999  XFE999      0.0740
      3  C3         7.1770    4.8100   17.6990 C.3   999  XFE999      0.2037
      4  N4         6.3720    3.6650   17.2890 N.pl3 999  XFE999     -0.1918
      5  C5         6.6440    2.4790   18.0890 C.3   999  XFE999      0.2211
      6  C6         5.0950    3.9220   16.7430 C.2   999  XFE999      0.3145
      7  N7         4.8810    5.2460   16.5710 N.2   999  XFE999     -0.0389
      8  C8         3.7070    5.7080   16.0980 C.3   999  XFE999      0.3998
      9  N9         2.6930    4.8490   15.7390 N.2   999  XFE999     -0.1687
     10  C10        4.0540    3.0000   16.3770 C.3   999  XFE999      0.2096
     11  C11        2.8290    3.5150   15.8680 C.1   999  XFE999      0.0263
     12  N12        1.9170    2.5540   15.5790 N.2   999  XFE999     -0.1965
     13  C13        2.4280    1.3250   15.8460 C.2   999  XFE999      0.1023
     14  C14        3.7330    1.5320   16.3170 C.2   999  XFE999      0.0009
     15  C15        4.5770    0.3460   16.7110 C.3   999  XFE999      0.0296
     16  N16        7.0470    3.3570   20.3150 N.3   999  XFE999     -0.1284
@<TRIPOS>BOND
     1    12    13    1
     2    12    11    2
     3     9    11    2
     4     9     8    1
     5    13    14    2
     6    11    10    1
     7     8     7    1
     8    14    10    1
     9    14    15    1
    10    10     6    1
    11     7     6    2
    12     6     4    1
    13     4     3    1
    14     4     5    1
    15     3     2    1
    16     5     1    1
    17     2     1    1
    18     1    16    1
