@<TRIPOS>MOLECULE
3mvc_HEM_A_1.pdb
 43 50 0 0 0
SMALL
GASTEIGER

@<TRIPOS>ATOM
      1  CHA       26.9900   -3.5960   42.8690 C.2   500  HEM500      0.0000
      2  CHB       25.3010   -1.4990   46.8850 C.2   500  HEM500      0.0000
      3  CHC       28.8900    1.7640   46.7760 C.2   500  HEM500      0.0000
      4  CHD       31.1400   -1.0200   43.4730 C.2   500  HEM500      0.0000
      5  C1A       26.1780   -3.2910   43.9360 C.2   500  HEM500      0.0000
      6  C2A       24.9090   -3.9140   44.2680 C.2   500  HEM500      0.0000
      7  C3A       24.4410   -3.3310   45.3800 C.2   500  HEM500      0.0000
      8  C4A       25.4020   -2.3230   45.7910 C.2   500  HEM500      0.0000
      9  CMA       23.1180   -3.6530   46.1160 C.3   500  HEM500      0.0000
     10  CAA       24.2150   -5.0310   43.4540 C.3   500  HEM500      0.0000
     11  CBA       24.4910   -6.3960   44.0630 C.3   500  HEM500      0.0000
     12  CGA       25.8080   -6.9250   43.5680 C.2   500  HEM500      0.0000
     13  O1A       26.6200   -7.3600   44.4180 O.co2 500  HEM500      0.0000
     14  O2A       26.0490   -6.9010   42.3350 O.co2 500  HEM500      0.0000
     15  C1B       26.0610   -0.3730   47.1230 C.ar  500  HEM500      0.0000
     16  C2B       25.6870    0.7110   48.0090 C.ar  500  HEM500      0.0000
     17  C3B       26.6630    1.6300   47.9810 C.ar  500  HEM500      0.0000
     18  C4B       27.6960    1.1410   47.0840 C.ar  500  HEM500      0.0000
     19  CMB       24.3730    0.7970   48.8200 C.3   500  HEM500      0.0000
     20  CAB       26.6680    2.9530   48.7830 C.2   500  HEM500      0.0000
     21  CBB       27.3120    4.0330   48.3490 C.2   500  HEM500      0.0000
     22  C1C       29.8590    1.2560   45.9340 C.2   500  HEM500      0.0000
     23  C2C       31.2140    1.7500   45.7800 C.2   500  HEM500      0.0000
     24  C3C       31.8410    0.9730   44.8900 C.2   500  HEM500      0.0000
     25  C4C       30.9000   -0.0330   44.4180 C.2   500  HEM500      0.0000
     26  CMC       31.8370    2.9420   46.5370 C.3   500  HEM500      0.0000
     27  CAC       33.3030    1.1640   44.4300 C.2   500  HEM500      0.0000
     28  CBC       34.0550    0.1080   44.0980 C.2   500  HEM500      0.0000
     29  C1D       30.2320   -1.9340   42.9530 C.ar  500  HEM500      0.0000
     30  C2D       30.4710   -2.8410   41.8470 C.ar  500  HEM500      0.0000
     31  C3D       29.1750   -3.6350   41.6670 C.ar  500  HEM500      0.0000
     32  C4D       28.2760   -3.1440   42.6790 C.ar  500  HEM500      0.0000
     33  CMD       31.7520   -2.9970   41.0080 C.3   500  HEM500      0.0000
     34  CAD       28.8930   -4.7530   40.6420 C.3   500  HEM500      0.0000
     35  CBD       29.1530   -6.0540   41.3960 C.3   500  HEM500      0.0000
     36  CGD       29.1540   -7.2480   40.4810 C.2   500  HEM500      0.0000
     37  O1D       28.6920   -7.1210   39.3210 O.co2 500  HEM500      0.0000
     38  O2D       29.6190   -8.3280   40.9260 O.co2 500  HEM500      0.0000
     39  NA        26.4590   -2.3310   44.8910 N.2   500  HEM500      0.0000
     40  NB        27.2960   -0.0830   46.5740 N.ar  500  HEM500      0.0000
     41  NC        29.7070    0.1680   45.0940 N.2   500  HEM500      0.0000
     42  ND        28.9260   -2.1420   43.4090 N.ar  500  HEM500      0.0000
     43 FE         28.1430   -1.1080   44.9880 Fe    500  HEM500      0.0000
@<TRIPOS>BOND
     1    37    36   ar
     2    36    38   ar
     3    36    35    1
     4    34    35    1
     5    34    31    1
     6    33    30    1
     7    31    30   ar
     8    31    32   ar
     9    30    29   ar
    10    14    12   ar
    11    32     1    2
    12    32    42   ar
    13     1     5    1
    14    29    42   ar
    15    29     4    2
    16    42    43    1
    17    10    11    1
    18    10     6    1
    19     4    25    1
    20    12    11    1
    21    12    13   ar
    22     5     6    1
    23     5    39    2
    24    28    27    2
    25     6     7    2
    26    25    24    1
    27    25    41    2
    28    27    24    1
    29    24    23    2
    30    39    43    1
    31    39     8    1
    32    43    41    1
    33    43    40    1
    34    41    22    1
    35     7     8    1
    36     7     9    1
    37    23    22    1
    38    23    26    1
    39     8     2    2
    40    22     3    2
    41    40    18   ar
    42    40    15   ar
    43     3    18    1
    44     2    15    1
    45    18    17   ar
    46    15    16   ar
    47    17    16   ar
    48    17    20    1
    49    16    19    1
    50    21    20    2
