@<TRIPOS>MOLECULE
3mvf_HEM_A_1.pdb
 43 50 0 0 0
SMALL
GASTEIGER

@<TRIPOS>ATOM
      1  CHA      -13.5470    6.4860   -8.5380 C.2   185  HEM185      0.0000
      2  CHB      -16.4650    2.9440  -10.2070 C.2   185  HEM185      0.0000
      3  CHC      -12.6320    0.6940  -12.0290 C.2   185  HEM185      0.0000
      4  CHD       -9.7210    3.7890   -9.7380 C.2   185  HEM185      0.0000
      5  C1A      -14.6920    5.7470   -8.8240 C.ar  185  HEM185      0.0000
      6  C2A      -16.0550    6.0910   -8.4960 C.ar  185  HEM185      0.0000
      7  C3A      -16.8480    5.1120   -8.9660 C.ar  185  HEM185      0.0000
      8  C4A      -16.0150    4.1230   -9.6070 C.ar  185  HEM185      0.0000
      9  CMA      -18.3730    4.9750   -8.8390 C.3   185  HEM185      0.0000
     10  CAA      -16.4550    7.3490   -7.7090 C.3   185  HEM185      0.0000
     11  CBA      -16.0470    7.2080   -6.2360 C.3   185  HEM185      0.0000
     12  CGA      -16.5050    8.3710   -5.4410 C.2   185  HEM185      0.0000
     13  O1A      -15.8860    9.4630   -5.4880 O.co2 185  HEM185      0.0000
     14  O2A      -17.5070    8.1740   -4.7090 O.co2 185  HEM185      0.0000
     15  C1B      -15.7170    2.0190  -10.8740 C.2   185  HEM185      0.0000
     16  C2B      -16.1690    0.8920  -11.6490 C.2   185  HEM185      0.0000
     17  C3B      -15.0980    0.3370  -12.1990 C.2   185  HEM185      0.0000
     18  C4B      -13.9480    1.0110  -11.7480 C.2   185  HEM185      0.0000
     19  CMB      -17.6420    0.4130  -11.8170 C.3   185  HEM185      0.0000
     20  CAB      -15.0610   -0.8920  -13.1230 C.2   185  HEM185      0.0000
     21  CBB      -15.8790   -0.9600  -14.2150 C.2   185  HEM185      0.0000
     22  C1C      -11.4980    1.3140  -11.5360 C.ar  185  HEM185      0.0000
     23  C2C      -10.1250    0.8180  -11.7040 C.ar  185  HEM185      0.0000
     24  C3C       -9.3140    1.6630  -11.0240 C.ar  185  HEM185      0.0000
     25  C4C      -10.1740    2.6810  -10.4290 C.ar  185  HEM185      0.0000
     26  CMC       -9.8060   -0.4740  -12.5140 C.3   185  HEM185      0.0000
     27  CAC       -7.7980    1.6560  -10.8540 C.2   185  HEM185      0.0000
     28  CBC       -6.9960    1.2610  -11.8410 C.2   185  HEM185      0.0000
     29  C1D      -10.5010    4.7950   -9.2810 C.2   185  HEM185      0.0000
     30  C2D       -9.9520    6.0430   -8.8120 C.2   185  HEM185      0.0000
     31  C3D      -11.1420    6.8490   -8.4110 C.2   185  HEM185      0.0000
     32  C4D      -12.2800    6.0620   -8.8010 C.2   185  HEM185      0.0000
     33  CMD       -8.4970    6.4250   -8.6420 C.3   185  HEM185      0.0000
     34  CAD      -11.1090    8.2790   -7.8640 C.3   185  HEM185      0.0000
     35  CBD      -10.7220    9.3170   -8.9850 C.3   185  HEM185      0.0000
     36  CGD      -10.7970   10.7550   -8.5070 C.2   185  HEM185      0.0000
     37  O1D      -10.0040   11.5210   -9.0780 O.co2 185  HEM185      0.0000
     38  O2D      -11.5780   11.0980   -7.5770 O.co2 185  HEM185      0.0000
     39  NA       -14.6970    4.4980   -9.4760 N.ar  185  HEM185      0.0000
     40  NB       -14.3300    2.0830  -10.9550 N.2   185  HEM185      0.0000
     41  NC       -11.4770    2.4440  -10.7730 N.ar  185  HEM185      0.0000
     42  ND       -11.9070    4.8340   -9.3340 N.2   185  HEM185      0.0000
     43 FE        -13.0730    3.4560  -10.1320 Fe    185  HEM185      0.0000
@<TRIPOS>BOND
     1    21    20    2
     2    20    17    1
     3    26    23    1
     4    17    18    1
     5    17    16    2
     6     3    18    2
     7     3    22    1
     8    28    27    2
     9    19    16    1
    10    18    40    1
    11    23    22   ar
    12    23    24   ar
    13    16    15    1
    14    22    41   ar
    15    24    27    1
    16    24    25   ar
    17    40    15    2
    18    40    43    1
    19    15     2    1
    20    41    25   ar
    21    41    43    1
    22    25     4    1
    23     2     8    2
    24    43    39    1
    25    43    42    1
    26     4    29    2
    27     8    39   ar
    28     8     7   ar
    29    39     5   ar
    30    42    29    1
    31    42    32    2
    32    29    30    1
    33    37    36   ar
    34    35    36    1
    35    35    34    1
    36     7     9    1
    37     7     6   ar
    38     5     1    2
    39     5     6   ar
    40    30    33    1
    41    30    31    2
    42    32     1    1
    43    32    31    1
    44    36    38   ar
    45     6    10    1
    46    31    34    1
    47    10    11    1
    48    11    12    1
    49    13    12   ar
    50    12    14   ar
