@<TRIPOS>MOLECULE
3mvh_WFE_A_1.pdb
 29 32 0 0 0
SMALL
GASTEIGER

@<TRIPOS>ATOM
      1  C1        16.3290   -0.7580   29.3170 C.3   999  WFE999      0.0048
      2  C2        15.3980   -1.3020   28.2480 C.3   999  WFE999      0.0252
      3  C3        14.6320   -2.4920   28.7780 C.2   999  WFE999      0.0006
      4  C4        13.3260   -2.4040   29.2320 C.2   999  WFE999      0.1023
      5  N5        12.9200   -3.6380   29.5790 N.2   999  WFE999     -0.1965
      6  C6        13.9460   -4.5060   29.4260 C.1   999  WFE999      0.0263
      7  N7        13.8940   -5.8380   29.7230 N.2   999  WFE999     -0.1687
      8  C8        14.9940   -6.5990   29.5520 C.3   999  WFE999      0.3998
      9  N9        16.0980   -6.0270   29.0160 N.2   999  WFE999     -0.0389
     10  C10       16.1680   -4.7240   28.6610 C.2   999  WFE999      0.3145
     11  N11       17.3910   -4.4220   28.1630 N.pl3 999  WFE999     -0.1918
     12  C12       18.4990   -5.4200   28.0240 C.3   999  WFE999      0.2037
     13  C13       19.5030   -4.7300   27.0680 C.3   999  WFE999      0.0743
     14  C14       18.6180   -3.7680   26.3580 C.3   999  WFE999      0.1437
     15  N15       17.9770   -4.7660   25.5010 N.3   999  WFE999     -0.1281
     16  C16       19.2290   -2.7400   25.3980 C.3   999  WFE999      0.1372
     17  N17       19.7190   -1.5480   26.0970 N.am  999  WFE999     -0.2000
     18  C18       20.9200   -1.4910   26.5970 C.2   999  WFE999      0.2670
     19  O19       21.6830   -2.4370   26.4770 O.2   999  WFE999     -0.2683
     20  C20       21.4250   -0.2890   27.3100 C.ar  999  WFE999      0.0826
     21  C21       21.0200    1.0060   26.9730 C.ar  999  WFE999      0.0091
     22  C22       21.5380    2.0900   27.6850 C.ar  999  WFE999      0.0299
     23  C23       22.4440    1.8360   28.7080 C.ar  999  WFE999      0.1424
     24  F24       22.9750    2.8300   29.4040 F     999  WFE999     -0.2041
     25  C25       22.8680    0.5560   29.0210 C.ar  999  WFE999      0.0594
     26  C26       22.3600   -0.5100   28.3070 C.ar  999  WFE999      0.1467
     27  F27       22.7360   -1.7570   28.6280 F     999  WFE999     -0.2039
     28  C28       17.8110   -3.1990   27.5850 C.3   999  WFE999      0.2213
     29  C29       15.0450   -3.8740   28.9040 C.3   999  WFE999      0.2096
@<TRIPOS>BOND
     1    16    17    1
     2    16    14    1
     3    15    14    1
     4    17    18   am
     5    14    13    1
     6    14    28    1
     7    19    18    2
     8    18    20    1
     9    21    20   ar
    10    21    22   ar
    11    13    12    1
    12    20    26   ar
    13    28    11    1
    14    22    23   ar
    15    12    11    1
    16    11    10    1
    17     2     3    1
    18     2     1    1
    19    26    27    1
    20    26    25   ar
    21    10    29    1
    22    10     9    2
    23    23    25   ar
    24    23    24    1
    25     3    29    1
    26     3     4    2
    27    29     6    1
    28     9     8    1
    29     4     5    1
    30     6     5    2
    31     6     7    2
    32     8     7    1
