@<TRIPOS>MOLECULE
3mvj_XFE_A_1.pdb
 16 18 0 0 0
SMALL
GASTEIGER

@<TRIPOS>ATOM
      1  C1        15.9820   14.2380   14.3730 C.3   351  XFE351      0.1425
      2  C2        16.6720   13.5410   15.5420 C.3   351  XFE351      0.0740
      3  C3        18.1660   13.8180   15.4410 C.3   351  XFE351      0.2037
      4  N4        18.2760   14.9270   14.4630 N.pl3 351  XFE351     -0.1918
      5  C5        16.9630   15.3250   13.9210 C.3   351  XFE351      0.2211
      6  C6        19.3080   15.8820   14.7100 C.2   351  XFE351      0.3145
      7  N7        20.1990   15.5920   15.6890 N.2   351  XFE351     -0.0389
      8  C8        21.2470   16.3890   16.0300 C.3   351  XFE351      0.3998
      9  N9        21.4860   17.5680   15.4410 N.2   351  XFE351     -0.1687
     10  C10       19.5440   17.1070   14.0420 C.3   351  XFE351      0.2096
     11  C11       20.6430   17.9380   14.4290 C.1   351  XFE351      0.0263
     12  N12       20.6570   19.0510   13.6620 N.2   351  XFE351     -0.1965
     13  C13       19.6320   19.0330   12.7630 C.2   351  XFE351      0.1023
     14  C14       18.9360   17.8850   12.9640 C.2   351  XFE351      0.0009
     15  C15       17.7390   17.5150   12.1420 C.3   351  XFE351      0.0296
     16  N16       14.7000   14.8250   14.7820 N.3   351  XFE351     -0.1284
@<TRIPOS>BOND
     1    15    14    1
     2    13    14    2
     3    13    12    1
     4    14    10    1
     5    12    11    2
     6     5     1    1
     7     5     4    1
     8    10    11    1
     9    10     6    1
    10     1    16    1
    11     1     2    1
    12    11     9    2
    13     4     6    1
    14     4     3    1
    15     6     7    2
    16     3     2    1
    17     9     8    1
    18     7     8    1
