@<TRIPOS>MOLECULE
3mvl_38P_A_1.pdb
 30 33 0 0 0
SMALL
GASTEIGER

@<TRIPOS>ATOM
      1  N1        -1.7750   -1.9400   37.3310 N.ar  361  38P361     -0.2241
      2  N2        -1.7500   -0.6890   37.5150 N.ar  361  38P361     -0.1422
      3  C3        -2.2500    0.1800   36.5750 C.ar  361  38P361      0.2211
      4  N4        -2.8010   -0.2780   35.3960 N.ar  361  38P361     -0.2043
      5  C5        -2.8770   -1.6300   35.0990 C.ar  361  38P361      0.1710
      6  C6        -2.3250   -2.5670   36.1360 C.ar  361  38P361      0.1123
      7  C7        -2.2020   -3.9020   36.2480 C.ar  361  38P361      0.0046
      8  C8        -1.5450   -4.1660   37.5710 C.ar  361  38P361      0.0718
      9  C9        -1.2990   -2.9960   38.2000 C.ar  361  38P361      0.1048
     10  C10       -1.1700   -5.4880   38.2030 C.2   361  38P361      0.2660
     11  O11       -0.9900   -6.4920   37.5130 O.2   361  38P361     -0.2683
     12  N12       -1.0470   -5.4900   39.5610 N.am  361  38P361     -0.2016
     13  C13        0.0070   -6.2580   40.2330 C.3   361  38P361      0.1155
     14  C14       -0.2600   -6.3140   41.7390 C.3   361  38P361      0.0234
     15  C15       -1.4400   -7.2210   42.0870 C.3   361  38P361      0.0019
     16  C16       -2.6070   -5.0050   35.3010 C.3   361  38P361      0.0329
     17  N17       -3.4470   -1.9540   33.8950 N.pl3 361  38P361     -0.1932
     18  C18       -3.6210   -1.0130   32.9090 C.ar  361  38P361      0.0683
     19  C19       -4.9180   -0.4780   32.5950 C.ar  361  38P361     -0.0065
     20  C20       -5.0170    0.4910   31.5610 C.ar  361  38P361     -0.0028
     21  C21       -3.8650    0.9270   30.8470 C.ar  361  38P361      0.0043
     22  C22       -2.5750    0.4000   31.1540 C.ar  361  38P361      0.0563
     23  C23       -2.4820   -0.5610   32.1800 C.ar  361  38P361      0.0208
     24  C24       -1.3060    0.7900   30.4660 C.2   361  38P361      0.2648
     25  O25       -0.2550    0.1860   30.7050 O.2   361  38P361     -0.2684
     26  N26       -1.3260    1.8300   29.5650 N.am  361  38P361     -0.2034
     27  C27       -0.5850    1.6810   28.3360 C.3   361  38P361      0.0957
     28  C28        0.0980    3.0220   28.4990 C.3   361  38P361      0.0234
     29  C29       -0.7810    2.7040   27.3370 C.3   361  38P361      0.0234
     30  C30       -6.1570   -0.9250   33.3370 C.3   361  38P361      0.0324
@<TRIPOS>BOND
     1    29    27    1
     2    29    28    1
     3    27    28    1
     4    27    26    1
     5    26    24   am
     6    24    25    2
     7    24    22    1
     8    21    22   ar
     9    21    20   ar
    10    22    23   ar
    11    20    19   ar
    12    23    18   ar
    13    19    18   ar
    14    19    30    1
    15    18    17    1
    16    17     5    1
    17     5     4   ar
    18     5     6   ar
    19    16     7    1
    20     4     3   ar
    21     6     7   ar
    22     6     1   ar
    23     7     8   ar
    24     3     2   ar
    25     1     2   ar
    26     1     9   ar
    27    11    10    2
    28     8     9   ar
    29     8    10    1
    30    10    12   am
    31    12    13    1
    32    13    14    1
    33    14    15    1
