@<TRIPOS>MOLECULE
3mvm_39P_A_1.pdb
 32 35 0 0 0
SMALL
GASTEIGER

@<TRIPOS>ATOM
      1  N1        -2.3400    5.8340   36.1510 N.ar  361  39P361     -0.2241
      2  N2        -2.2860    4.4170   35.8610 N.ar  361  39P361     -0.1422
      3  C3        -2.5880    3.4830   36.7760 C.ar  361  39P361      0.2211
      4  N4        -2.9720    3.8850   38.0660 N.ar  361  39P361     -0.2043
      5  C5        -3.0360    5.1870   38.3770 C.ar  361  39P361      0.1710
      6  C6        -2.7050    6.2700   37.3810 C.ar  361  39P361      0.1123
      7  C7        -2.6790    7.6480   37.4090 C.ar  361  39P361      0.0046
      8  C8        -2.2610    8.0400   36.0660 C.ar  361  39P361      0.0718
      9  C9        -2.0760    6.8980   35.3690 C.ar  361  39P361      0.1048
     10  C10       -2.0680    9.4300   35.5420 C.2   361  39P361      0.2660
     11  O11       -2.4650   10.4040   36.2250 O.2   361  39P361     -0.2683
     12  N12       -1.4580    9.5220   34.3260 N.am  361  39P361     -0.2016
     13  C13       -1.1510   10.7410   33.5530 C.3   361  39P361      0.1155
     14  C14       -2.3630   11.0320   32.6680 C.3   361  39P361      0.0234
     15  C15       -2.2770   10.1430   31.4460 C.3   361  39P361      0.0019
     16  C16       -3.0070    8.5880   38.5580 C.3   361  39P361      0.0329
     17  N17       -3.4060    5.5170   39.6110 N.pl3 361  39P361     -0.1932
     18  C18       -3.7680    4.5120   40.4930 C.ar  361  39P361      0.0683
     19  C19       -5.1570    4.0860   40.6630 C.ar  361  39P361     -0.0065
     20  C20       -5.4340    3.0580   41.5830 C.ar  361  39P361     -0.0028
     21  C21       -4.3800    2.4770   42.3030 C.ar  361  39P361      0.0043
     22  C22       -3.0310    2.9150   42.1140 C.ar  361  39P361      0.0567
     23  C23       -2.7390    3.9180   41.2230 C.ar  361  39P361      0.0208
     24  C24       -1.9020    2.3420   42.8410 C.2   361  39P361      0.2704
     25  O25       -0.7960    2.9320   42.7280 O.2   361  39P361     -0.2680
     26  N26       -2.1080    1.2310   43.5810 N.am  361  39P361     -0.1534
     27  C27       -1.2100    0.7670   44.4850 C.ar  361  39P361      0.1965
     28  N28       -0.2490    1.4480   45.1150 N.ar  361  39P361     -0.0598
     29  O29        0.4170    0.5310   45.9500 O.2   361  39P361     -0.3489
     30  C30       -0.1550   -0.6930   45.8090 C.ar  361  39P361      0.2153
     31  C31       -1.1290   -0.6170   44.9520 C.ar  361  39P361      0.0830
     32  C32       -6.3200    4.6970   39.8960 C.3   361  39P361      0.0324
@<TRIPOS>BOND
     1    15    14    1
     2    14    13    1
     3    13    12    1
     4    12    10   am
     5     9     8   ar
     6     9     1   ar
     7    10     8    1
     8    10    11    2
     9     2     1   ar
    10     2     3   ar
    11     8     7   ar
    12     1     6   ar
    13     3     4   ar
    14     6     7   ar
    15     6     5   ar
    16     7    16    1
    17     4     5   ar
    18     5    17    1
    19    17    18    1
    20    32    19    1
    21    18    19   ar
    22    18    23   ar
    23    19    20   ar
    24    23    22   ar
    25    20    21   ar
    26    22    21   ar
    27    22    24    1
    28    25    24    2
    29    24    26   am
    30    26    27    1
    31    27    31   ar
    32    27    28   ar
    33    31    30   ar
    34    28    29   ar
    35    30    29   ar
