@<TRIPOS>MOLECULE
3mvo_NDP_A_1.pdb
 48 52 0 0 0
SMALL
GASTEIGER

@<TRIPOS>ATOM
      1  PA        67.0770   25.4000   23.1410 P.3   552  NDP552      0.2189
      2  O1A       67.7900   25.7290   24.3960 O.3   552  NDP552     -0.4371
      3  O2A       65.5960   25.4400   23.2410 O.2   552  NDP552     -0.5170
      4  O5B       67.5090   26.4140   21.9690 O.3   552  NDP552     -0.3112
      5  C5B       68.8480   26.4680   21.5260 C.3   552  NDP552      0.1813
      6  C4B       69.2070   27.8860   21.0970 C.3   552  NDP552      0.1820
      7  O4B       69.4300   27.8550   19.7150 O.3   552  NDP552     -0.3136
      8  C3B       68.1270   28.9360   21.3640 C.3   552  NDP552      0.2157
      9  O3B       68.5880   29.9830   22.2220 O.3   552  NDP552     -0.2175
     10  C2B       67.7540   29.4900   19.9980 C.3   552  NDP552      0.2314
     11  O2B       67.8200   30.8850   20.0590 O.3   552  NDP552     -0.2630
     12  C1B       68.7920   28.9180   19.0620 C.3   552  NDP552      0.3158
     13  N9A       68.2110   28.4170   17.8150 N.pl3 552  NDP552     -0.1439
     14  C8A       67.1570   27.5700   17.6890 C.3   552  NDP552      0.3377
     15  N7A       66.9600   27.3560   16.3700 N.2   552  NDP552     -0.2095
     16  C5A       67.8800   28.0370   15.6660 C.2   552  NDP552      0.2526
     17  C6A       68.1090   28.1690   14.3030 C.2   552  NDP552      0.4393
     18  N6A       67.0710   28.0030   13.4720 N.pl3 552  NDP552      0.2180
     19  N1A       69.1600   28.9580   13.8590 N.2   552  NDP552      0.0021
     20  C2A       69.9490   29.6200   14.7680 C.3   552  NDP552      0.5254
     21  N3A       69.6990   29.4850   16.1140 N.2   552  NDP552     -0.0055
     22  C4A       68.6770   28.7090   16.5580 C.2   552  NDP552      0.3518
     23  O3        67.5910   24.0290   22.4890 O.3   552  NDP552     -0.2703
     24  PN        68.3810   22.9010   23.3000 P.3   552  NDP552      0.2189
     25  O1N       67.5030   22.3870   24.3880 O.3   552  NDP552     -0.4371
     26  O2N       69.7430   23.4260   23.5650 O.2   552  NDP552     -0.5170
     27  O5D       68.4470   21.8030   22.1590 O.3   552  NDP552     -0.3112
     28  C5D       68.3970   22.3360   20.8710 C.3   552  NDP552      0.1813
     29  C4D       68.9710   21.3420   19.8740 C.3   552  NDP552      0.1799
     30  O4D       69.7050   20.3610   20.5750 O.3   552  NDP552     -0.3327
     31  C3D       67.8250   20.6330   19.2130 C.3   552  NDP552      0.2158
     32  O3D       68.3830   20.0970   18.0510 O.3   552  NDP552     -0.2175
     33  C2D       67.5300   19.5800   20.2510 C.3   552  NDP552      0.2309
     34  O2D       66.7410   18.5140   19.7760 O.3   552  NDP552     -0.2158
     35  C1D       68.9540   19.1650   20.5910 C.3   552  NDP552      0.2263
     36  N1N       69.1050   18.3900   21.8480 N.pl3 552  NDP552     -0.2787
     37  C2N       68.6820   18.8160   23.0870 C.3   552  NDP552      0.1244
     38  C3N       69.0150   18.1140   24.2550 C.2   552  NDP552      0.0544
     39  C7N       68.5570   18.5200   25.6330 C.2   552  NDP552      0.2818
     40  O7N       67.6520   19.5900   25.8000 O.2   552  NDP552     -0.2670
     41  N7N       68.9890   17.8200   26.6890 N.am  552  NDP552     -0.0839
     42  C4N       69.8640   16.8710   24.1880 C.2   552  NDP552      0.0033
     43  C5N       70.2600   16.5160   22.7830 C.2   552  NDP552      0.0157
     44  C6N       69.8640   17.2770   21.7090 C.2   552  NDP552      0.0633
     45  P2B       66.5620   31.6890   20.6640 P.3   552  NDP552      0.5328
     46  O1X       66.2110   31.2850   22.1070 O.3   552  NDP552     -0.1145
     47  O2X       66.8980   33.1640   20.6950 O.3   552  NDP552     -0.1145
     48  O3X       65.4560   31.4230   19.6670 O.2   552  NDP552     -0.2224
@<TRIPOS>BOND
     1    18    17    1
     2    19    17    2
     3    19    20    1
     4    17    16    1
     5    20    21    1
     6    16    15    2
     7    16    22    1
     8    21    22    2
     9    15    14    1
    10    22    13    1
    11    14    13    1
    12    13    12    1
    13    32    31    1
    14    12     7    1
    15    12    10    1
    16    31    29    1
    17    31    33    1
    18    48    45    2
    19     7     6    1
    20    34    33    1
    21    29    30    1
    22    29    28    1
    23    10    11    1
    24    10     8    1
    25    11    45    1
    26    33    35    1
    27    30    35    1
    28    35    36    1
    29    45    47    1
    30    45    46    1
    31    28    27    1
    32     6     8    1
    33     6     5    1
    34     8     9    1
    35     5     4    1
    36    44    36    1
    37    44    43    2
    38    36    37    1
    39     4     1    1
    40    27    24    1
    41    23     1    1
    42    23    24    1
    43    43    42    1
    44    37    38    1
    45     1     3    2
    46     1     2    1
    47    24    26    2
    48    24    25    1
    49    42    38    2
    50    38    39    1
    51    39    40    2
    52    39    41   am
