@<TRIPOS>MOLECULE
3mvo_GLU_A_1.pdb
 10 9 0 0 0
SMALL
GASTEIGER

@<TRIPOS>ATOM
      1  N         65.7290   15.9280   24.2610 N.3   502  GLU502     -0.1208
      2  CA        67.0350   15.3340   24.4660 C.3   502  GLU502      0.1949
      3  C         67.3170   14.3830   23.3470 C.2   502  GLU502      0.3819
      4  O         68.4250   13.8740   23.2080 O.co2 502  GLU502     -0.2441
      5  CB        67.0660   14.5600   25.7660 C.3   502  GLU502      0.0424
      6  CG        66.0790   13.4040   25.8060 C.3   502  GLU502      0.1161
      7  CD        65.9280   12.8460   27.2020 C.2   502  GLU502      0.3649
      8  OE1       64.8720   12.2610   27.5130 O.co2 502  GLU502     -0.2457
      9  OE2       66.8750   12.9950   27.9920 O.co2 502  GLU502     -0.2457
     10  OXT       66.4150   14.1070   22.5740 O.co2 502  GLU502     -0.2441
@<TRIPOS>BOND
     1    10     3   ar
     2     4     3   ar
     3     3     2    1
     4     1     2    1
     5     2     5    1
     6     5     6    1
     7     6     7    1
     8     7     8   ar
     9     7     9   ar
