@<TRIPOS>MOLECULE
3mvq_GTP_A_1.pdb
 32 34 0 0 0
SMALL
GASTEIGER

@<TRIPOS>ATOM
      1  PG        80.1730   22.5870   36.1350 P.3   503  GTP503      0.5373
      2  O1G       81.4210   21.8070   36.4630 O.3   503  GTP503     -0.1143
      3  O2G       79.7040   22.2600   34.7410 O.2   503  GTP503     -0.2221
      4  O3G       80.4710   24.0570   36.1780 O.3   503  GTP503     -0.1143
      5  O3B       79.0160   22.1920   37.1960 O.3   503  GTP503     -0.2258
      6  PB        79.3510   21.6620   38.6920 P.3   503  GTP503      0.2277
      7  O1B       79.3600   20.1360   38.6400 O.2   503  GTP503     -0.5168
      8  O2B       80.6740   22.1890   39.2200 O.3   503  GTP503     -0.4368
      9  O3A       78.1110   22.1180   39.6200 O.3   503  GTP503     -0.2700
     10  PA        77.6070   23.5710   40.1070 P.3   503  GTP503      0.2189
     11  O1A       78.7260   24.5580   40.2960 O.2   503  GTP503     -0.5170
     12  O2A       76.8540   23.3540   41.4150 O.3   503  GTP503     -0.4371
     13  O5'       76.5720   24.1690   39.0140 O.3   503  GTP503     -0.3112
     14  C5'       75.2340   23.7010   38.9290 C.3   503  GTP503      0.1813
     15  C4'       74.8940   23.3740   37.4780 C.3   503  GTP503      0.1799
     16  O4'       74.6860   24.5950   36.8400 O.3   503  GTP503     -0.3326
     17  C3'       76.0140   22.6820   36.7100 C.3   503  GTP503      0.2158
     18  O3'       75.4490   21.8050   35.7630 O.3   503  GTP503     -0.2175
     19  C2'       76.6760   23.7720   35.9110 C.3   503  GTP503      0.2310
     20  O2'       77.0850   23.3270   34.6350 O.3   503  GTP503     -0.2158
     21  C1'       75.5370   24.7360   35.7420 C.3   503  GTP503      0.2293
     22  N9        76.0720   26.0910   35.7300 N.pl3 503  GTP503     -0.2354
     23  C8        77.1390   26.6360   36.4030 C.3   503  GTP503      0.2246
     24  N7        77.2400   27.9400   36.0430 N.2   503  GTP503     -0.2322
     25  C5        76.2600   28.1920   35.1520 C.2   503  GTP503      0.2182
     26  C6        75.8910   29.3220   34.4650 C.1   503  GTP503      0.2372
     27  O6        76.5580   30.3410   34.6590 O.2   503  GTP503     -0.2069
     28  N1        74.7970   29.2660   33.5930 N.2   503  GTP503     -0.2485
     29  C2        74.0850   28.0770   33.4180 C.1   503  GTP503      0.2531
     30  N2        73.0300   27.9550   32.6020 N.pl3 503  GTP503     -0.0226
     31  N3        74.4720   26.9620   34.1160 N.2   503  GTP503     -0.3074
     32  C4        75.5260   27.0410   34.9520 C.2   503  GTP503      0.2300
@<TRIPOS>BOND
     1    30    29    1
     2    29    28    2
     3    29    31    2
     4    28    26    2
     5    31    32    2
     6    26    27    2
     7    26    25    1
     8    20    19    1
     9     3     1    2
    10    32    25    1
    11    32    22    1
    12    25    24    2
    13    22    21    1
    14    22    23    1
    15    21    19    1
    16    21    16    1
    17    18    17    1
    18    19    17    1
    19    24    23    1
    20     1     4    1
    21     1     2    1
    22     1     5    1
    23    17    15    1
    24    16    15    1
    25     5     6    1
    26    15    14    1
    27     7     6    2
    28     6     8    1
    29     6     9    1
    30    14    13    1
    31    13    10    1
    32     9    10    1
    33    10    11    2
    34    10    12    1
