@<TRIPOS>MOLECULE
3mvq_NDP_A_1.pdb
 48 52 0 0 0
SMALL
GASTEIGER

@<TRIPOS>ATOM
      1  PA        66.3720   25.5550   22.8760 P.3   552  NDP552      0.2189
      2  O1A       67.0480   25.6640   24.1960 O.3   552  NDP552     -0.4371
      3  O2A       64.9190   25.7950   23.0130 O.2   552  NDP552     -0.5170
      4  O5B       66.9190   26.5530   21.7420 O.3   552  NDP552     -0.3112
      5  C5B       68.0720   26.2900   20.9880 C.3   552  NDP552      0.1813
      6  C4B       68.6530   27.5340   20.2850 C.3   552  NDP552      0.1820
      7  O4B       68.5290   27.4420   18.8730 O.3   552  NDP552     -0.3136
      8  C3B       68.0180   28.8650   20.6660 C.3   552  NDP552      0.2157
      9  O3B       69.0680   29.7730   20.9230 O.3   552  NDP552     -0.2175
     10  C2B       67.2920   29.3080   19.4220 C.3   552  NDP552      0.2314
     11  O2B       67.2890   30.6990   19.3320 O.3   552  NDP552     -0.2630
     12  C1B       68.1200   28.6790   18.3420 C.3   552  NDP552      0.3158
     13  N9A       67.3910   28.4860   17.0830 N.pl3 552  NDP552     -0.1439
     14  C8A       66.1930   27.8630   16.9160 C.3   552  NDP552      0.3377
     15  N7A       65.8790   27.8700   15.6060 N.2   552  NDP552     -0.2095
     16  C5A       66.8700   28.4830   14.9130 C.2   552  NDP552      0.2526
     17  C6A       67.0600   28.7660   13.5530 C.2   552  NDP552      0.4393
     18  N6A       66.2110   28.3070   12.6280 N.pl3 552  NDP552      0.2180
     19  N1A       68.2040   29.4230   13.1440 N.2   552  NDP552      0.0021
     20  C2A       69.1470   29.7880   14.0790 C.3   552  NDP552      0.5254
     21  N3A       68.9560   29.5170   15.4130 N.2   552  NDP552     -0.0055
     22  C4A       67.8320   28.8750   15.8350 C.2   552  NDP552      0.3518
     23  O3        66.6910   24.1370   22.2090 O.3   552  NDP552     -0.2703
     24  PN        67.6990   23.1490   22.9640 P.3   552  NDP552      0.2189
     25  O1N       67.1070   22.5860   24.1960 O.3   552  NDP552     -0.4371
     26  O2N       68.9840   23.8690   23.0880 O.2   552  NDP552     -0.5170
     27  O5D       67.7560   21.9920   21.8390 O.3   552  NDP552     -0.3112
     28  C5D       68.2350   22.3450   20.5540 C.3   552  NDP552      0.1813
     29  C4D       68.6040   21.1360   19.7160 C.3   552  NDP552      0.1799
     30  O4D       69.2850   20.1680   20.4960 O.3   552  NDP552     -0.3327
     31  C3D       67.3430   20.4920   19.1810 C.3   552  NDP552      0.2158
     32  O3D       67.5910   19.9550   17.9050 O.3   552  NDP552     -0.2175
     33  C2D       67.1090   19.3690   20.1610 C.3   552  NDP552      0.2309
     34  O2D       66.4310   18.3160   19.5380 O.3   552  NDP552     -0.2158
     35  C1D       68.5330   18.9710   20.4840 C.3   552  NDP552      0.2263
     36  N1N       68.6420   18.2230   21.7500 N.pl3 552  NDP552     -0.2787
     37  C2N       68.1600   18.7000   22.9560 C.3   552  NDP552      0.1244
     38  C3N       68.4690   18.0350   24.1520 C.2   552  NDP552      0.0544
     39  C7N       68.0110   18.5110   25.4710 C.2   552  NDP552      0.2818
     40  O7N       67.7370   19.8760   25.6460 O.2   552  NDP552     -0.2670
     41  N7N       67.9440   17.6210   26.4490 N.am  552  NDP552     -0.0839
     42  C4N       69.3270   16.7990   24.2050 C.2   552  NDP552      0.0033
     43  C5N       69.7790   16.3930   22.8330 C.2   552  NDP552      0.0157
     44  C6N       69.4240   17.1030   21.6910 C.2   552  NDP552      0.0633
     45  P2B       65.8730   31.4290   19.2320 P.3   552  NDP552      0.5328
     46  O1X       65.4000   31.8000   20.6160 O.3   552  NDP552     -0.1145
     47  O2X       66.0220   32.6930   18.4160 O.2   552  NDP552     -0.2224
     48  O3X       64.9200   30.4650   18.5740 O.3   552  NDP552     -0.1145
@<TRIPOS>BOND
     1    18    17    1
     2    19    17    2
     3    19    20    1
     4    17    16    1
     5    20    21    1
     6    16    15    2
     7    16    22    1
     8    21    22    2
     9    15    14    1
    10    22    13    1
    11    14    13    1
    12    13    12    1
    13    32    31    1
    14    12     7    1
    15    12    10    1
    16    47    45    2
    17    48    45    1
    18     7     6    1
    19    31    29    1
    20    31    33    1
    21    45    11    1
    22    45    46    1
    23    11    10    1
    24    10     8    1
    25    34    33    1
    26    29    30    1
    27    29    28    1
    28    33    35    1
    29     6     8    1
    30     6     5    1
    31    35    30    1
    32    35    36    1
    33    28    27    1
    34     8     9    1
    35     5     4    1
    36    44    36    1
    37    44    43    2
    38     4     1    1
    39    36    37    1
    40    27    24    1
    41    23     1    1
    42    23    24    1
    43    43    42    1
    44     1     3    2
    45     1     2    1
    46    37    38    1
    47    24    26    2
    48    24    25    1
    49    38    42    2
    50    38    39    1
    51    39    40    2
    52    39    41   am
