@<TRIPOS>MOLECULE
3mvq_GLU_A_1.pdb
 10 9 0 0 0
SMALL
GASTEIGER

@<TRIPOS>ATOM
      1  N         65.1670   15.4820   23.2640 N.3   502  GLU502     -0.1208
      2  CA        66.4010   15.1560   23.9660 C.3   502  GLU502      0.1949
      3  C         67.2010   14.0700   23.2280 C.2   502  GLU502      0.3819
      4  O         67.9950   13.3120   23.7990 O.co2 502  GLU502     -0.2441
      5  CB        66.1090   14.7380   25.4100 C.3   502  GLU502      0.0424
      6  CG        65.4720   13.3760   25.5570 C.3   502  GLU502      0.1161
      7  CD        65.4140   12.9250   27.0050 C.2   502  GLU502      0.3649
      8  OE1       64.6810   11.9640   27.3050 O.co2 502  GLU502     -0.2457
      9  OE2       66.0920   13.5360   27.8530 O.co2 502  GLU502     -0.2457
     10  OXT       67.0710   13.9290   22.0130 O.co2 502  GLU502     -0.2441
@<TRIPOS>BOND
     1    10     3   ar
     2     3     4   ar
     3     3     2    1
     4     1     2    1
     5     2     5    1
     6     5     6    1
     7     6     7    1
     8     7     8   ar
     9     7     9   ar
