@<TRIPOS>MOLECULE
3mvr_HEM_A_1.pdb
 43 50 0 0 0
SMALL
GASTEIGER

@<TRIPOS>ATOM
      1  CHA       25.3690  -45.5940  -34.1920 C.2   500  HEM500      0.0000
      2  CHB       23.1750  -44.0050  -30.1580 C.2   500  HEM500      0.0000
      3  CHC       18.8340  -44.7170  -32.2170 C.2   500  HEM500      0.0000
      4  CHD       21.0190  -45.8070  -36.4000 C.2   500  HEM500      0.0000
      5  C1A       25.1550  -45.1600  -32.8900 C.2   500  HEM500      0.0000
      6  C2A       26.1750  -44.9610  -31.8840 C.2   500  HEM500      0.0000
      7  C3A       25.5720  -44.5200  -30.7760 C.2   500  HEM500      0.0000
      8  C4A       24.1480  -44.4330  -31.0480 C.2   500  HEM500      0.0000
      9  CMA       26.2670  -44.1950  -29.4210 C.3   500  HEM500      0.0000
     10  CAA       27.6910  -45.2330  -32.0510 C.3   500  HEM500      0.0000
     11  CBA       28.3580  -44.0810  -32.8330 C.3   500  HEM500      0.0000
     12  CGA       29.8330  -44.3320  -32.8130 C.2   500  HEM500      0.0000
     13  O1A       30.3000  -45.2690  -33.5080 O.co2 500  HEM500      0.0000
     14  O2A       30.5830  -43.6130  -32.0810 O.co2 500  HEM500      0.0000
     15  C1B       21.8150  -44.0650  -30.3200 C.ar  500  HEM500      0.0000
     16  C2B       20.7870  -43.7030  -29.3650 C.ar  500  HEM500      0.0000
     17  C3B       19.5910  -43.9130  -29.9470 C.ar  500  HEM500      0.0000
     18  C4B       19.8210  -44.4170  -31.2880 C.ar  500  HEM500      0.0000
     19  CMB       21.0970  -43.1410  -27.9420 C.3   500  HEM500      0.0000
     20  CAB       18.1620  -43.7180  -29.3950 C.2   500  HEM500      0.0000
     21  CBB       17.8310  -43.0430  -28.2650 C.2   500  HEM500      0.0000
     22  C1C       19.0340  -44.9680  -33.5780 C.2   500  HEM500      0.0000
     23  C2C       18.0320  -45.0440  -34.6170 C.2   500  HEM500      0.0000
     24  C3C       18.6340  -45.3510  -35.7830 C.2   500  HEM500      0.0000
     25  C4C       20.0360  -45.5080  -35.4870 C.2   500  HEM500      0.0000
     26  CMC       16.5290  -44.7820  -34.4100 C.3   500  HEM500      0.0000
     27  CAC       17.9870  -45.5530  -37.1670 C.2   500  HEM500      0.0000
     28  CBC       16.8470  -44.9510  -37.5530 C.2   500  HEM500      0.0000
     29  C1D       22.3600  -45.9190  -36.1620 C.ar  500  HEM500      0.0000
     30  C2D       23.3080  -46.3720  -37.1430 C.ar  500  HEM500      0.0000
     31  C3D       24.6590  -46.2980  -36.4900 C.ar  500  HEM500      0.0000
     32  C4D       24.4000  -45.8030  -35.1370 C.ar  500  HEM500      0.0000
     33  CMD       22.9980  -46.8560  -38.5780 C.3   500  HEM500      0.0000
     34  CAD       26.0200  -46.6760  -37.0880 C.3   500  HEM500      0.0000
     35  CBD       26.6380  -45.3570  -37.6050 C.3   500  HEM500      0.0000
     36  CGD       27.9020  -45.6020  -38.3920 C.2   500  HEM500      0.0000
     37  O1D       28.1850  -44.8130  -39.3460 O.co2 500  HEM500      0.0000
     38  O2D       28.6330  -46.5680  -38.0750 O.co2 500  HEM500      0.0000
     39  NA        23.9240  -44.7870  -32.3770 N.2   500  HEM500      0.0000
     40  NB        21.1750  -44.4740  -31.4640 N.ar  500  HEM500      0.0000
     41  NC        20.2680  -45.1990  -34.1520 N.2   500  HEM500      0.0000
     42  ND        23.0480  -45.5660  -35.0140 N.ar  500  HEM500      0.0000
     43 FE         22.1140  -44.8980  -33.2780 Fe    500  HEM500      0.0000
@<TRIPOS>BOND
     1    37    36   ar
     2    33    30    1
     3    36    38   ar
     4    36    35    1
     5    35    34    1
     6    28    27    2
     7    27    24    1
     8    30    31   ar
     9    30    29   ar
    10    34    31    1
    11    31    32   ar
    12     4    29    2
    13     4    25    1
    14    29    42   ar
    15    24    25    1
    16    24    23    2
    17    25    41    2
    18    32    42   ar
    19    32     1    2
    20    42    43    1
    21    23    26    1
    22    23    22    1
    23     1     5    1
    24    41    22    1
    25    41    43    1
    26    22     3    2
    27    13    12   ar
    28    43    39    1
    29    43    40    1
    30     5    39    2
    31     5     6    1
    32    11    12    1
    33    11    10    1
    34    12    14   ar
    35    39     8    1
    36     3    18    1
    37    10     6    1
    38     6     7    2
    39    40    18   ar
    40    40    15   ar
    41    18    17   ar
    42     8     7    1
    43     8     2    2
    44     7     9    1
    45    15     2    1
    46    15    16   ar
    47    17    20    1
    48    17    16   ar
    49    20    21    2
    50    16    19    1
