@<TRIPOS>MOLECULE
3mvr_CM5_A_1.pdb
 34 36 0 0 0
SMALL
GASTEIGER

@<TRIPOS>ATOM
      1  C7        11.9570  -57.6580  -37.8210 C.3   601  CM5601      0.0000
      2  C8        12.8870  -57.5020  -36.5810 C.3   601  CM5601      0.0000
      3  C9        12.3510  -56.6080  -35.4350 C.3   601  CM5601      0.0000
      4  C10       10.8790  -56.9100  -35.1250 C.3   601  CM5601      0.0000
      5  C11       10.0600  -56.8050  -36.4170 C.3   601  CM5601      0.0000
      6  C6        10.4780  -57.8730  -37.4400 C.3   601  CM5601      0.0000
      7  C5         9.5060  -57.8650  -38.6690 C.3   601  CM5601      0.0000
      8  C4         8.6920  -59.2020  -38.6670 C.3   601  CM5601      0.0001
      9  C3         7.3270  -59.2080  -39.3620 C.3   601  CM5601      0.0026
     10  C2         6.7770  -60.6530  -39.4220 C.3   601  CM5601      0.0322
     11  C1         5.4030  -60.7290  -40.0840 C.3   601  CM5601      0.1449
     12  O12        5.6340  -60.5570  -41.4920 O.3   601  CM5601     -0.3286
     13  C13        4.4620  -60.8680  -42.2100 C.3   601  CM5601      0.2695
     14  C18        4.3190  -60.1520  -43.5810 C.3   601  CM5601      0.2404
     15  O22        5.4320  -59.3000  -43.9420 O.3   601  CM5601     -0.2149
     16  C17        4.0560  -61.1900  -44.6750 C.3   601  CM5601      0.2167
     17  O21        3.7610  -60.5070  -45.8970 O.3   601  CM5601     -0.2175
     18  O14        4.4190  -62.3260  -42.3680 O.3   601  CM5601     -0.3257
     19  C15        3.0870  -62.6890  -42.8310 C.3   601  CM5601      0.1803
     20  C19        2.7790  -64.2070  -42.6770 C.3   601  CM5601      0.2141
     21  O20        3.4590  -64.9860  -43.6730 O.3   601  CM5601     -0.2176
     22  C16        2.9000  -62.1410  -44.2670 C.3   601  CM5601      0.1804
     23  O23        1.6060  -61.4540  -44.2640 O.3   601  CM5601     -0.3257
     24  C24        0.5790  -61.9400  -45.2030 C.3   601  CM5601      0.2695
     25  O25        0.4110  -63.4170  -45.2330 O.3   601  CM5601     -0.3256
     26  C26        1.1000  -64.0750  -46.3330 C.3   601  CM5601      0.1835
     27  C30        1.0660  -65.6130  -46.1180 C.3   601  CM5601      0.2142
     28  O31       -0.0260  -66.2240  -46.8190 O.3   601  CM5601     -0.2176
     29  C27        0.5540  -63.5130  -47.6650 C.3   601  CM5601      0.2144
     30  O32       -0.8690  -63.6950  -47.7430 O.3   601  CM5601     -0.2176
     31  C28        0.8900  -62.0130  -47.8420 C.3   601  CM5601      0.2198
     32  O33        2.1840  -61.8670  -48.4650 O.3   601  CM5601     -0.2174
     33  C29        0.8310  -61.1770  -46.5330 C.3   601  CM5601      0.2406
     34  O34       -0.1450  -60.1270  -46.6390 O.3   601  CM5601     -0.2149
@<TRIPOS>BOND
     1    32    31    1
     2    31    29    1
     3    31    33    1
     4    30    29    1
     5    29    26    1
     6    28    27    1
     7    34    33    1
     8    33    24    1
     9    26    27    1
    10    26    25    1
    11    17    16    1
    12    25    24    1
    13    24    23    1
    14    16    22    1
    15    16    14    1
    16    22    23    1
    17    22    19    1
    18    15    14    1
    19    21    20    1
    20    14    13    1
    21    19    20    1
    22    19    18    1
    23    18    13    1
    24    13    12    1
    25    12    11    1
    26    11    10    1
    27    10     9    1
    28     9     8    1
    29     7     8    1
    30     7     6    1
    31     1     6    1
    32     1     2    1
    33     6     5    1
    34     2     3    1
    35     5     4    1
    36     3     4    1
