@<TRIPOS>MOLECULE
3mvv_THP_A_1.pdb
 25 26 0 0 0
SMALL
GASTEIGER

@<TRIPOS>ATOM
      1  P2        18.0510    9.3260    5.4560 P.3   150  THP150      0.5327
      2  O4P       17.8980    7.8790    5.6250 O.2   150  THP150     -0.2224
      3  O5P       16.8580   10.1510    6.0400 O.3   150  THP150     -0.1145
      4  O6P       19.3980    9.7660    6.2190 O.3   150  THP150     -0.1145
      5  P1        20.8050   13.6240    0.5030 P.3   150  THP150      0.5326
      6  O1P       20.6580   14.4500    1.6940 O.3   150  THP150     -0.1145
      7  O2P       22.3720   13.4000    0.2270 O.3   150  THP150     -0.1145
      8  O3P       20.0960   14.1700   -0.8100 O.2   150  THP150     -0.2224
      9  O5'       18.1780    9.5120    3.9060 O.3   150  THP150     -0.2675
     10  C5'       18.2380   10.8670    3.4840 C.3   150  THP150      0.1857
     11  C4'       18.8790   10.7480    2.1190 C.3   150  THP150      0.1748
     12  O4'       18.2740    9.7180    1.3110 O.3   150  THP150     -0.3340
     13  C3'       18.9160   12.0640    1.3030 C.3   150  THP150      0.1600
     14  O3'       20.2610   12.1020    0.7980 O.3   150  THP150     -0.2700
     15  C2'       17.9130   11.7580    0.1550 C.3   150  THP150      0.0847
     16  C1'       17.9590   10.2310    0.0230 C.3   150  THP150      0.2089
     17  N1        16.6320    9.8010   -0.3910 N.am  150  THP150     -0.1794
     18  C2        16.3610    9.7730   -1.7090 C.1   150  THP150      0.2844
     19  O2        17.2170   10.1340   -2.5630 O.2   150  THP150     -0.1918
     20  N3        15.1260    9.4310   -2.1720 N.2   150  THP150     -0.2455
     21  C4        14.1550    9.0770   -1.2760 C.1   150  THP150      0.2134
     22  O4        13.0480    8.8130   -1.7230 O.2   150  THP150     -0.2088
     23  C5        14.4270    9.1340    0.1060 C.2   150  THP150      0.0891
     24  C5M       13.3790    8.7210    1.1080 C.3   150  THP150      0.0462
     25  C6        15.6700    9.4610    0.5250 C.2   150  THP150      0.0877
@<TRIPOS>BOND
     1    19    18    2
     2    20    18    2
     3    20    21    2
     4    22    21    2
     5    18    17   am
     6    21    23    1
     7     8     5    2
     8    17    16    1
     9    17    25    1
    10    16    15    1
    11    16    12    1
    12    23    25    2
    13    23    24    1
    14    15    13    1
    15     7     5    1
    16     5    14    1
    17     5     6    1
    18    14    13    1
    19    13    11    1
    20    12    11    1
    21    11    10    1
    22    10     9    1
    23     9     1    1
    24     1     2    2
    25     1     3    1
    26     1     4    1
