@<TRIPOS>MOLECULE
3mvw_BHZ_A_1.pdb
 27 28 0 0 0
SMALL
GASTEIGER

@<TRIPOS>ATOM
      1  C1         4.1940   -2.6870   32.5620 C.ar  504  BHZ504      0.0328
      2  C2         5.3570   -2.1150   32.0420 C.ar  504  BHZ504      0.0003
      3  C3         5.8180   -0.8320   32.4500 C.ar  504  BHZ504     -0.0001
      4  C4         5.1240   -0.1590   33.4440 C.ar  504  BHZ504      0.0033
      5  C5         3.9790   -0.7270   33.9360 C.ar  504  BHZ504      0.0417
      6  C6         3.5430   -1.9880   33.5570 C.ar  504  BHZ504      0.1930
      7  O6         2.4750   -2.4660   34.2050 O.3   504  BHZ504     -0.2869
      8  C7         3.7210   -4.0670   32.0310 C.3   504  BHZ504      0.1028
      9  N8         3.3750   -4.9510   33.1200 N.3   504  BHZ504     -0.2581
     10  C9         2.7850   -6.1720   32.4780 C.3   504  BHZ504      0.0903
     11  C10        1.9370   -6.9650   33.4650 C.3   504  BHZ504      0.0903
     12  N11        0.9450   -6.2170   34.2730 N.3   504  BHZ504     -0.2581
     13  C12        0.5030   -6.7390   35.6080 C.3   504  BHZ504      0.0996
     14  C13       -0.1860   -8.1700   35.5340 C.ar  504  BHZ504     -0.0061
     15  C14        0.5990   -9.3430   35.5720 C.ar  504  BHZ504     -0.0029
     16  C15        0.0190  -10.6290   35.4530 C.ar  504  BHZ504     -0.0003
     17  C16       -1.3740  -10.6800   35.2420 C.ar  504  BHZ504     -0.0000
     18  C17       -2.1890   -9.5220   35.1560 C.ar  504  BHZ504     -0.0003
     19  C18       -1.5810   -8.2650   35.2780 C.ar  504  BHZ504     -0.0029
     20  C19        4.6550   -5.1750   33.8130 C.3   504  BHZ504      0.1881
     21  C20        4.3550   -5.4860   35.3230 C.2   504  BHZ504      0.3809
     22  O20        5.2920   -5.9790   35.9780 O.co2 504  BHZ504     -0.2441
     23  C21       -0.2820   -6.1350   33.3500 C.3   504  BHZ504      0.1881
     24  O21        3.2450   -5.1520   35.7970 O.co2 504  BHZ504     -0.2441
     25  C22       -0.2250   -4.8930   32.4430 C.2   504  BHZ504      0.3809
     26  O22        0.4320   -3.9000   32.8450 O.co2 504  BHZ504     -0.2441
     27  O23       -0.8360   -4.9910   31.3350 O.co2 504  BHZ504     -0.2441
@<TRIPOS>BOND
     1    27    25   ar
     2     8     1    1
     3     8     9    1
     4     2     3   ar
     5     2     1   ar
     6    25    26   ar
     7    25    23    1
     8     3     4   ar
     9    10     9    1
    10    10    11    1
    11     1     6   ar
    12     9    20    1
    13    23    12    1
    14     4     5   ar
    15    11    12    1
    16     6     5   ar
    17     6     7    1
    18    20    21    1
    19    12    13    1
    20    18    17   ar
    21    18    19   ar
    22    17    16   ar
    23    19    14   ar
    24    21    24   ar
    25    21    22   ar
    26    16    15   ar
    27    14    15   ar
    28    14    13    1
