@<TRIPOS>MOLECULE
3mvx_BHZ_A_1.pdb
 27 28 0 0 0
SMALL
GASTEIGER

@<TRIPOS>ATOM
      1  C1        -0.5380   -5.1800   32.1210 C.ar  504  BHZ504      0.0328
      2  C2        -1.1520   -5.3290   30.8350 C.ar  504  BHZ504      0.0003
      3  C3        -1.3710   -4.1600   30.0790 C.ar  504  BHZ504     -0.0001
      4  C4        -1.0000   -2.8890   30.5210 C.ar  504  BHZ504      0.0033
      5  C5        -0.4080   -2.7740   31.7980 C.ar  504  BHZ504      0.0417
      6  C6        -0.1930   -3.9410   32.6070 C.ar  504  BHZ504      0.1930
      7  O6         0.3600   -3.6990   33.8620 O.3   504  BHZ504     -0.2869
      8  C7        -0.3310   -6.3980   32.9710 C.3   504  BHZ504      0.1028
      9  N8         1.0700   -6.4650   33.5040 N.3   504  BHZ504     -0.2581
     10  C9         1.9430   -6.6860   32.3800 C.3   504  BHZ504      0.0903
     11  C10        3.4190   -6.3490   32.6880 C.3   504  BHZ504      0.0903
     12  N11        3.5010   -4.9650   33.3190 N.3   504  BHZ504     -0.2581
     13  C12        3.4360   -4.0490   32.1290 C.3   504  BHZ504      0.0996
     14  C13        3.8740   -2.6390   32.5190 C.ar  504  BHZ504     -0.0061
     15  C14        5.1420   -2.1470   32.1040 C.ar  504  BHZ504     -0.0029
     16  C15        5.4970   -0.8310   32.5140 C.ar  504  BHZ504     -0.0003
     17  C16        4.6050   -0.0370   33.2730 C.ar  504  BHZ504     -0.0000
     18  C17        3.3710   -0.5550   33.6520 C.ar  504  BHZ504     -0.0003
     19  C18        3.0170   -1.8760   33.3090 C.ar  504  BHZ504     -0.0029
     20  C19        1.1980   -7.6990   34.3940 C.3   504  BHZ504      0.1881
     21  C20        0.4170   -7.2600   35.6450 C.2   504  BHZ504      0.3809
     22  O20        0.5910   -6.0570   35.9780 O.co2 504  BHZ504     -0.2441
     23  C21        4.7870   -4.9470   34.0030 C.3   504  BHZ504      0.1881
     24  O21       -0.2680   -8.1430   36.2500 O.co2 504  BHZ504     -0.2441
     25  C22        4.5610   -5.5440   35.3990 C.2   504  BHZ504      0.3809
     26  O22        3.3860   -5.6910   35.7300 O.co2 504  BHZ504     -0.2441
     27  O23        5.5590   -5.9990   36.0230 O.co2 504  BHZ504     -0.2441
@<TRIPOS>BOND
     1     3     4   ar
     2     3     2   ar
     3     4     5   ar
     4     2     1   ar
     5     5     6   ar
     6    15    16   ar
     7    15    14   ar
     8     1     6   ar
     9     1     8    1
    10    13    14    1
    11    13    12    1
    12    10    11    1
    13    10     9    1
    14    16    17   ar
    15    14    19   ar
    16     6     7    1
    17    11    12    1
    18     8     9    1
    19    17    18   ar
    20    19    18   ar
    21    12    23    1
    22     9    20    1
    23    23    25    1
    24    20    21    1
    25    25    26   ar
    26    25    27   ar
    27    21    22   ar
    28    21    24   ar
