@<TRIPOS>MOLECULE
3mvy_BHZ_A_1.pdb
 27 28 0 0 0
SMALL
GASTEIGER

@<TRIPOS>ATOM
      1  C1        -0.5730   -5.2960   31.9850 C.ar  511  BHZ511      0.0328
      2  C2        -1.1860   -5.4500   30.7270 C.ar  511  BHZ511      0.0003
      3  C3        -1.4060   -4.3330   29.8980 C.ar  511  BHZ511     -0.0001
      4  C4        -0.9920   -3.0570   30.3290 C.ar  511  BHZ511      0.0033
      5  C5        -0.3660   -2.8920   31.5810 C.ar  511  BHZ511      0.0417
      6  C6        -0.1570   -4.0200   32.3970 C.ar  511  BHZ511      0.1930
      7  O6         0.4610   -3.8770   33.6080 O.3   511  BHZ511     -0.2869
      8  C7        -0.3590   -6.5550   32.8250 C.3   511  BHZ511      0.1028
      9  N8         1.0330   -6.5690   33.3220 N.3   511  BHZ511     -0.2581
     10  C9         1.9370   -6.8370   32.2040 C.3   511  BHZ511      0.0903
     11  C10        3.3520   -6.4900   32.6220 C.3   511  BHZ511      0.0903
     12  N11        3.4650   -5.1390   33.1750 N.3   511  BHZ511     -0.2581
     13  C12        3.6350   -4.2910   31.9990 C.3   511  BHZ511      0.0996
     14  C13        3.8980   -2.8600   32.4410 C.ar  511  BHZ511     -0.0061
     15  C14        5.1460   -2.2720   32.1740 C.ar  511  BHZ511     -0.0029
     16  C15        5.3930   -0.9650   32.6040 C.ar  511  BHZ511     -0.0003
     17  C16        4.4030   -0.2510   33.2570 C.ar  511  BHZ511     -0.0000
     18  C17        3.1610   -0.8460   33.5100 C.ar  511  BHZ511     -0.0003
     19  C18        2.8950   -2.1630   33.1100 C.ar  511  BHZ511     -0.0029
     20  C19        1.1890   -7.6290   34.3100 C.3   511  BHZ511      0.1881
     21  C20        0.4880   -7.2190   35.5930 C.2   511  BHZ511      0.3809
     22  O20        0.4890   -6.0030   35.8720 O.co2 511  BHZ511     -0.2441
     23  C21        4.7010   -5.0770   33.9470 C.3   511  BHZ511      0.1881
     24  O21       -0.0590   -8.1270   36.2530 O.co2 511  BHZ511     -0.2441
     25  C22        4.5170   -5.7350   35.3060 C.2   511  BHZ511      0.3809
     26  O22        3.3640   -5.7780   35.7640 O.co2 511  BHZ511     -0.2441
     27  O23        5.5500   -6.1710   35.8590 O.co2 511  BHZ511     -0.2441
@<TRIPOS>BOND
     1     3     4   ar
     2     3     2   ar
     3     4     5   ar
     4     2     1   ar
     5     5     6   ar
     6     1     6   ar
     7     1     8    1
     8    13    14    1
     9    13    12    1
    10    15    14   ar
    11    15    16   ar
    12    10    11    1
    13    10     9    1
    14     6     7    1
    15    14    19   ar
    16    16    17   ar
    17    11    12    1
    18     8     9    1
    19    19    18   ar
    20    12    23    1
    21    17    18   ar
    22     9    20    1
    23    23    25    1
    24    20    21    1
    25    25    26   ar
    26    25    27   ar
    27    21    22   ar
    28    21    24   ar
