@<TRIPOS>MOLECULE
3mvz_BHN_A_1.pdb
 28 29 0 0 0
SMALL
GASTEIGER

@<TRIPOS>ATOM
      1  C1        -0.4950   -5.3140   31.9070 C.ar  512  BHN512      0.0328
      2  C2        -1.1220   -5.4790   30.6680 C.ar  512  BHN512      0.0003
      3  C3        -1.3650   -4.3920   29.8290 C.ar  512  BHN512     -0.0001
      4  C4        -0.9610   -3.1180   30.2270 C.ar  512  BHN512      0.0033
      5  C5        -0.3210   -2.9410   31.4600 C.ar  512  BHN512      0.0417
      6  C6        -0.0840   -4.0430   32.2890 C.ar  512  BHN512      0.1930
      7  O6         0.5070   -3.8650   33.4950 O.3   512  BHN512     -0.2869
      8  C7        -0.2660   -6.5640   32.7510 C.3   512  BHN512      0.1028
      9  N8         1.1450   -6.6520   33.1950 N.3   512  BHN512     -0.2581
     10  C9         2.0510   -6.7950   32.0550 C.3   512  BHN512      0.0903
     11  C10        3.4670   -6.3550   32.4090 C.3   512  BHN512      0.0903
     12  N11        3.5030   -5.0570   33.1260 N.3   512  BHN512     -0.2581
     13  C12        3.6070   -4.1100   32.0040 C.3   512  BHN512      0.1028
     14  C13        4.0150   -2.7150   32.4460 C.ar  512  BHN512      0.0328
     15  C14        5.2540   -2.2210   32.0590 C.ar  512  BHN512      0.0003
     16  C15        5.6250   -0.9290   32.4190 C.ar  512  BHN512     -0.0001
     17  C16        4.7760   -0.1420   33.2020 C.ar  512  BHN512      0.0033
     18  C17        3.5390   -0.6300   33.5740 C.ar  512  BHN512      0.0417
     19  C18        3.1600   -1.9190   33.1950 C.ar  512  BHN512      0.1930
     20  O18        1.9600   -2.3820   33.6080 O.3   512  BHN512     -0.2869
     21  C19        1.2900   -7.8150   34.0750 C.3   512  BHN512      0.1881
     22  C20        0.5500   -7.5010   35.3560 C.2   512  BHN512      0.3809
     23  O20        0.6080   -6.3180   35.7410 O.co2 512  BHN512     -0.2441
     24  C21        4.8050   -5.1150   33.8090 C.3   512  BHN512      0.1881
     25  O21       -0.0750   -8.4300   35.9000 O.co2 512  BHN512     -0.2441
     26  C22        4.5610   -5.7440   35.1750 C.2   512  BHN512      0.3809
     27  O22        3.3900   -5.7590   35.5720 O.co2 512  BHN512     -0.2441
     28  O23        5.5280   -6.2160   35.7810 O.co2 512  BHN512     -0.2441
@<TRIPOS>BOND
     1     3     4   ar
     2     3     2   ar
     3     4     5   ar
     4     2     1   ar
     5     5     6   ar
     6     1     6   ar
     7     1     8    1
     8    13    14    1
     9    13    12    1
    10    10    11    1
    11    10     9    1
    12    15    16   ar
    13    15    14   ar
    14     6     7    1
    15    11    12    1
    16    16    17   ar
    17    14    19   ar
    18     8     9    1
    19    12    24    1
    20    19    18   ar
    21    19    20    1
    22     9    21    1
    23    17    18   ar
    24    24    26    1
    25    21    22    1
    26    26    27   ar
    27    26    28   ar
    28    22    23   ar
    29    22    25   ar
