@<TRIPOS>MOLECULE
3mw0_BHR_A_1.pdb
 29 30 0 0 0
SMALL
GASTEIGER

@<TRIPOS>ATOM
      1  C1         4.3700   -2.0170   33.1120 C.ar  504  BHR504      0.0361
      2  C2         5.3690   -1.1810   32.6070 C.ar  504  BHR504      0.0005
      3  C3         5.5610    0.0980   33.1300 C.ar  504  BHR504      0.0032
      4  C4         4.7540    0.5490   34.1800 C.ar  504  BHR504      0.0454
      5  C5         3.7510   -0.2790   34.6970 C.ar  504  BHR504      0.2340
      6  O5         2.9600    0.1710   35.7270 O.3   504  BHR504     -0.2832
      7  C6         3.5640   -1.5560   34.1580 C.ar  504  BHR504      0.2315
      8  O6         2.6070   -2.3650   34.6730 O.3   504  BHR504     -0.2834
      9  C7         4.2560   -3.3900   32.4510 C.3   504  BHR504      0.1029
     10  N8         3.8670   -4.4600   33.3820 N.3   504  BHR504     -0.2581
     11  C9         3.4900   -5.5810   32.4980 C.3   504  BHR504      0.0903
     12  C10        2.7680   -6.7250   33.2420 C.3   504  BHR504      0.0903
     13  N11        1.6410   -6.2470   34.0660 N.3   504  BHR504     -0.2581
     14  C12        1.5310   -7.1140   35.2530 C.3   504  BHR504      0.1028
     15  C13        0.3940   -6.6350   36.1690 C.ar  504  BHR504      0.0328
     16  C14       -0.4830   -7.6030   36.6680 C.ar  504  BHR504      0.0003
     17  C15       -1.5500   -7.2470   37.5060 C.ar  504  BHR504     -0.0001
     18  C16       -1.7290   -5.8970   37.8500 C.ar  504  BHR504      0.0033
     19  C17       -0.8480   -4.9250   37.3680 C.ar  504  BHR504      0.0417
     20  C18        0.2020   -5.2980   36.5320 C.ar  504  BHR504      0.1930
     21  O18        1.0500   -4.3600   36.0490 O.3   504  BHR504     -0.2869
     22  C19        5.1170   -4.8250   34.0810 C.3   504  BHR504      0.1881
     23  C20        4.8840   -5.2210   35.5460 C.2   504  BHR504      0.3809
     24  O20        3.7520   -5.0250   36.0480 O.co2 504  BHR504     -0.2441
     25  C21        0.4110   -6.3730   33.2500 C.3   504  BHR504      0.1881
     26  O21        5.8740   -5.6750   36.1480 O.co2 504  BHR504     -0.2441
     27  C22        0.1410   -5.0620   32.4990 C.2   504  BHR504      0.3809
     28  O22       -0.4250   -5.1700   31.3960 O.co2 504  BHR504     -0.2441
     29  O23        0.5290   -3.9950   33.0140 O.co2 504  BHR504     -0.2441
@<TRIPOS>BOND
     1    28    27   ar
     2     9     1    1
     3     9    10    1
     4    11    12    1
     5    11    10    1
     6    27    29   ar
     7    27    25    1
     8     2     1   ar
     9     2     3   ar
    10     1     7   ar
    11     3     4   ar
    12    12    13    1
    13    25    13    1
    14    10    22    1
    15    13    14    1
    16    22    23    1
    17     7     8    1
    18     7     5   ar
    19     4     5   ar
    20     5     6    1
    21    14    15    1
    22    23    24   ar
    23    23    26   ar
    24    21    20    1
    25    15    20   ar
    26    15    16   ar
    27    20    19   ar
    28    16    17   ar
    29    19    18   ar
    30    17    18   ar
