@<TRIPOS>MOLECULE
3mw1_MIH_A_1.pdb
 33 37 0 0 0
SMALL
GASTEIGER

@<TRIPOS>ATOM
      1  CAA       15.9660   12.2870   30.7970 C.ar    1  MIH1        0.1424
      2  CAB       16.7490   13.0010   29.8890 C.ar    1  MIH1        0.0298
      3  CAC       18.1390   12.9890   29.9890 C.ar    1  MIH1        0.0042
      4  CAD       18.7230   12.2390   30.9930 C.ar    1  MIH1        0.0241
      5  CAE       17.9260   11.5500   31.8870 C.ar    1  MIH1        0.1420
      6  CAF       16.5560   11.5610   31.7990 C.ar    1  MIH1        0.0592
      7  FAG       14.6320   12.2730   30.7310 F       1  MIH1       -0.2041
      8  FAH       18.4770   10.8320   32.8670 F       1  MIH1       -0.2041
      9  CAI       20.1800   12.1580   31.2270 C.2     1  MIH1       -0.0110
     10  CAJ       20.9030   10.9760   31.0510 C.2     1  MIH1        0.0257
     11  CAK       22.2700   10.9710   31.3360 C.2     1  MIH1        0.1349
     12  NAL       22.8780   12.0950   31.7890 N.2     1  MIH1       -0.4122
     13  CAM       22.1980   13.2450   31.9960 C.2     1  MIH1        0.0904
     14  CAN       20.8320   13.2940   31.7140 C.3     1  MIH1        0.0808
     15  CAO       20.3310    9.7920   30.5930 C.2     1  MIH1        0.0228
     16  CAP       21.1240    8.6580   30.4360 C.2     1  MIH1        0.1035
     17  NAQ       22.4300    8.6820   30.7070 N.4     1  MIH1       -0.1962
     18  CAR       23.0270    9.8120   31.1420 C.3     1  MIH1        0.1879
     19  CAS       24.4740    9.8390   31.5080 C.ar    1  MIH1        0.0283
     20  CAT       25.4640   10.4260   30.7560 C.ar    1  MIH1        0.0567
     21  CAU       26.7810   10.4150   31.1860 C.ar    1  MIH1        0.0112
     22  CAV       27.1140    9.8230   32.3970 C.ar    1  MIH1        0.0017
     23  CAW       26.1210    9.2430   33.1680 C.ar    1  MIH1        0.0112
     24  CAX       24.8050    9.2590   32.7270 C.ar    1  MIH1        0.0567
     25 CLAY       23.5270    8.5040   33.7500 Cl      1  MIH1       -0.0825
     26 CLAZ       25.0630   11.1930   29.2060 Cl      1  MIH1       -0.0825
     27  OBA       23.1690    7.4810   30.5010 O.3     1  MIH1       -0.0835
     28  CBB       22.9270   14.4410   32.4690 C.3     1  MIH1        0.0514
     29  CBC       24.2770   14.0460   33.0750 C.3     1  MIH1        0.0255
     30  CBD       25.1710   15.2600   33.3220 C.3     1  MIH1        0.0891
     31  NBE       25.2570   16.0940   32.1370 N.3     1  MIH1       -0.2180
     32  CBF       24.0520   16.4890   31.4340 C.3     1  MIH1        0.0891
     33  CBG       23.1100   15.3110   31.2290 C.3     1  MIH1        0.0255
@<TRIPOS>BOND
     1    26    20    1
     2     2     3   ar
     3     2     1   ar
     4     3     4   ar
     5    16    15    2
     6    16    17    1
     7    27    17    1
     8    15    10    1
     9    17    18    1
    10     7     1    1
    11    20    21   ar
    12    20    19   ar
    13     1     6   ar
    14     4     9    1
    15     4     5   ar
    16    10     9    2
    17    10    11    1
    18    18    11    1
    19    18    19    1
    20    21    22   ar
    21     9    14    1
    22    33    32    1
    23    33    28    1
    24    11    12    2
    25    32    31    1
    26    19    24   ar
    27    14    13    1
    28    12    13    2
    29     6     5   ar
    30     5     8    1
    31    13    28    1
    32    31    30    1
    33    22    23   ar
    34    28    29    1
    35    24    23   ar
    36    24    25    1
    37    29    30    1
