@<TRIPOS>MOLECULE
3mw3_BMA_A_1.pdb
 11 11 0 0 0
SMALL
GASTEIGER

@<TRIPOS>ATOM
      1  C1        -7.9720   -1.6930   16.6360 C.3   293  BMA293      0.1777
      2  C2        -6.9810   -2.8590   16.6670 C.3   293  BMA293      0.2141
      3  C3        -5.6420   -2.5410   17.3510 C.3   293  BMA293      0.2173
      4  C4        -5.6380   -1.2170   18.1230 C.3   293  BMA293      0.2142
      5  C5        -6.9950   -0.7560   18.6530 C.3   293  BMA293      0.1810
      6  C6        -6.9980    0.7460   18.8510 C.3   293  BMA293      0.2141
      7  O2        -6.8260   -3.3430   15.3560 O.3   293  BMA293     -0.2176
      8  O3        -4.5520   -2.5710   16.4470 O.3   293  BMA293     -0.2175
      9  O4        -4.8740   -1.3780   19.2930 O.3   293  BMA293     -0.2176
     10  O5        -8.1380   -1.1410   17.9150 O.3   293  BMA293     -0.3481
     11  O6        -6.1730    0.9730   19.9640 O.3   293  BMA293     -0.2176
@<TRIPOS>BOND
     1     7     2    1
     2     8     3    1
     3     1     2    1
     4     1    10    1
     5     2     3    1
     6     3     4    1
     7    10     5    1
     8     4     5    1
     9     4     9    1
    10     5     6    1
    11     6    11    1
