@<TRIPOS>MOLECULE
3mw7_5FU_A_1.pdb
 22 23 0 0 0
SMALL
GASTEIGER

@<TRIPOS>ATOM
      1  F5        16.8070    5.5240    8.6540 F     292  5FU292     -0.1891
      2  C5        16.8750    6.7350    8.0640 C.2   292  5FU292      0.2499
      3  C4        17.5240    7.7810    8.6950 C.1   292  5FU292      0.2454
      4  O4        18.0480    7.5830    9.8070 O.2   292  5FU292     -0.2062
      5  N3        17.6090    8.9910    8.0870 N.2   292  5FU292     -0.2430
      6  C2        17.0190    9.1590    6.8690 C.1   292  5FU292      0.2846
      7  O2        17.0750   10.2570    6.2890 O.2   292  5FU292     -0.1918
      8  C6        16.3070    6.9420    6.8040 C.2   292  5FU292      0.1222
      9  N1        16.3840    8.1610    6.2410 N.am  292  5FU292     -0.1744
     10  C1'       15.8020    8.3600    4.9030 C.3   292  5FU292      0.2401
     11  O4'       16.8530    8.6390    3.9770 O.3   292  5FU292     -0.3319
     12  C2'       14.8210    9.5110    4.8050 C.3   292  5FU292      0.2319
     13  O2'       13.5170    8.9610    4.9000 O.3   292  5FU292     -0.2157
     14  C3'       15.1120   10.1200    3.4470 C.3   292  5FU292      0.2158
     15  O3'       14.2480    9.5650    2.4450 O.3   292  5FU292     -0.2175
     16  C4'       16.5230    9.7050    3.0970 C.3   292  5FU292      0.1801
     17  C5'       17.5500   10.8190    3.2520 C.3   292  5FU292      0.1859
     18  O5'       17.1270   11.9790    2.5460 O.3   292  5FU292     -0.2675
     19  P         18.0220   13.3120    2.4270 P.3   292  5FU292      0.5327
     20  O1P       17.2090   14.1350    1.4800 O.2   292  5FU292     -0.2224
     21  O2P       19.3380   12.8410    1.8480 O.3   292  5FU292     -0.1145
     22  O3P       18.1290   13.8050    3.8570 O.3   292  5FU292     -0.1145
@<TRIPOS>BOND
     1    20    19    2
     2    21    19    1
     3    19    18    1
     4    19    22    1
     5    15    14    1
     6    18    17    1
     7    16    17    1
     8    16    14    1
     9    16    11    1
    10    14    12    1
    11    11    10    1
    12    12    13    1
    13    12    10    1
    14    10     9    1
    15     9     8    1
    16     9     6   am
    17     7     6    2
    18     8     2    2
    19     6     5    2
    20     2     1    1
    21     2     3    1
    22     5     3    2
    23     3     4    2
