@<TRIPOS>MOLECULE
3mw9_NAD_A_1.pdb
 44 48 0 0 0
SMALL
GASTEIGER

@<TRIPOS>ATOM
      1  PA        12.1190   27.6620   78.9560 P.3   504  NAD504      0.2189
      2  O1A       10.7940   27.9440   78.0490 O.2   504  NAD504     -0.5170
      3  O2A       12.3140   26.2040   79.0350 O.3   504  NAD504     -0.4371
      4  O5B       11.7360   28.3840   80.3940 O.3   504  NAD504     -0.3112
      5  C5B       12.6380   28.2490   81.4730 C.3   504  NAD504      0.1813
      6  C4B       12.1900   28.4780   82.9380 C.3   504  NAD504      0.1821
      7  O4B       11.3620   29.6320   83.2240 O.3   504  NAD504     -0.3135
      8  C3B       11.5070   27.2780   83.5670 C.3   504  NAD504      0.2184
      9  O3B       12.4880   26.3590   83.9770 O.3   504  NAD504     -0.2174
     10  C2B       10.7150   27.9240   84.6840 C.3   504  NAD504      0.2570
     11  O2B        9.6670   27.0940   85.0860 O.3   504  NAD504     -0.2130
     12  C1B       10.1490   29.1050   83.9060 C.3   504  NAD504      0.3186
     13  N9A        9.5520   30.1940   84.6650 N.pl3 504  NAD504     -0.1439
     14  C8A        8.4910   31.1590   84.2630 C.3   504  NAD504      0.3377
     15  N7A        8.4470   32.2330   85.2530 N.2   504  NAD504     -0.2095
     16  C5A        9.4860   31.9690   86.2490 C.2   504  NAD504      0.2526
     17  C6A        9.9630   32.6800   87.4880 C.2   504  NAD504      0.4393
     18  N6A        9.4710   33.9550   87.9650 N.pl3 504  NAD504      0.2180
     19  N1A       11.0110   32.0930   88.2350 N.2   504  NAD504      0.0021
     20  C2A       11.6410   30.8270   87.7840 C.3   504  NAD504      0.5254
     21  N3A       11.2300   30.1160   86.5800 N.2   504  NAD504     -0.0055
     22  C4A       10.1400   30.7060   85.8380 C.2   504  NAD504      0.3518
     23  O3        13.5490   28.3040   78.3350 O.3   504  NAD504     -0.2703
     24  PN        13.3350   29.6940   77.4880 P.3   504  NAD504      0.2189
     25  O1N       11.7170   29.9400   77.6830 O.3   504  NAD504     -0.4371
     26  O2N       13.5460   29.4280   76.0720 O.2   504  NAD504     -0.5170
     27  O5D       13.8520   31.1370   78.0880 O.3   504  NAD504     -0.3112
     28  C5D       12.7910   32.0200   78.4010 C.3   504  NAD504      0.1813
     29  C4D       13.0910   33.5180   78.2640 C.3   504  NAD504      0.1799
     30  O4D       14.1980   33.6710   77.3530 O.3   504  NAD504     -0.3327
     31  C3D       11.9070   34.2940   77.6770 C.3   504  NAD504      0.2158
     32  O3D       11.6570   35.4740   78.3810 O.3   504  NAD504     -0.2175
     33  C2D       12.3090   34.7630   76.3250 C.3   504  NAD504      0.2309
     34  O2D       11.5800   34.1020   75.3350 O.3   504  NAD504     -0.2158
     35  C1D       13.8140   34.5800   76.3000 C.3   504  NAD504      0.2263
     36  N1N       14.3510   34.1290   75.0360 N.pl3 504  NAD504     -0.2787
     37  C2N       14.7740   32.7100   74.8010 C.3   504  NAD504      0.1244
     38  C3N       15.3370   32.3320   73.4340 C.2   504  NAD504      0.0544
     39  C7N       15.5860   30.8930   73.0440 C.2   504  NAD504      0.2818
     40  O7N       15.9850   30.7090   71.9430 O.2   504  NAD504     -0.2670
     41  N7N       14.5910   29.9600   73.5510 N.am  504  NAD504     -0.0839
     42  C4N       15.4770   33.3350   72.3530 C.2   504  NAD504      0.0033
     43  C5N       15.0710   34.7420   72.6160 C.2   504  NAD504      0.0157
     44  C6N       14.5010   35.1460   73.9750 C.2   504  NAD504      0.0633
@<TRIPOS>BOND
     1    40    39    2
     2    42    43    1
     3    42    38    2
     4    43    44    2
     5    39    38    1
     6    39    41   am
     7    38    37    1
     8    44    36    1
     9    37    36    1
    10    36    35    1
    11    34    33    1
    12    26    24    2
    13    35    33    1
    14    35    30    1
    15    33    31    1
    16    30    29    1
    17    24    25    1
    18    24    27    1
    19    24    23    1
    20    31    29    1
    21    31    32    1
    22     2     1    2
    23    27    28    1
    24    29    28    1
    25    23     1    1
    26     1     3    1
    27     1     4    1
    28     4     5    1
    29     5     6    1
    30     6     7    1
    31     6     8    1
    32     7    12    1
    33     8     9    1
    34     8    10    1
    35    12    13    1
    36    12    10    1
    37    14    13    1
    38    14    15    1
    39    13    22    1
    40    10    11    1
    41    15    16    2
    42    22    16    1
    43    22    21    2
    44    16    17    1
    45    21    20    1
    46    17    18    1
    47    17    19    2
    48    20    19    1
