@<TRIPOS>MOLECULE
3mw9_GLU_A_1.pdb
 10 9 0 0 0
SMALL
GASTEIGER

@<TRIPOS>ATOM
      1  N         11.9180   33.3900   69.8800 N.3   502  GLU502     -0.1208
      2  CA        13.3390   33.5350   70.1740 C.3   502  GLU502      0.1949
      3  C         13.7120   35.0170   70.4000 C.2   502  GLU502      0.3819
      4  O         14.7230   35.5140   69.8870 O.co2 502  GLU502     -0.2441
      5  CB        14.1860   32.8940   69.0550 C.3   502  GLU502      0.0424
      6  CG        13.8100   33.3650   67.6500 C.3   502  GLU502      0.1161
      7  CD        14.4260   32.5330   66.5220 C.2   502  GLU502      0.3649
      8  OE1       14.0370   32.7430   65.3460 O.co2 502  GLU502     -0.2457
      9  OE2       15.2980   31.6720   66.7880 O.co2 502  GLU502     -0.2457
     10  OXT       13.0280   35.7470   71.1430 O.co2 502  GLU502     -0.2441
@<TRIPOS>BOND
     1     8     7   ar
     2     7     9   ar
     3     7     6    1
     4     6     5    1
     5     5     2    1
     6     1     2    1
     7     4     3   ar
     8     2     3    1
     9     3    10   ar
