@<TRIPOS>MOLECULE
3mw9_GTP_A_1.pdb
 32 34 0 0 0
SMALL
GASTEIGER

@<TRIPOS>ATOM
      1  PG        29.4350   22.4460   73.8670 P.3   503  GTP503      0.5373
      2  O1G       28.2630   23.3100   74.4800 O.3   503  GTP503     -0.1143
      3  O2G       29.5000   21.2440   74.8900 O.3   503  GTP503     -0.1143
      4  O3G       30.6690   23.2010   73.5580 O.2   503  GTP503     -0.2221
      5  O3B       29.0470   21.8810   72.4770 O.3   503  GTP503     -0.2258
      6  PB        30.0030   21.0430   71.5680 P.3   503  GTP503      0.2277
      7  O1B       29.7370   21.7990   70.2170 O.2   503  GTP503     -0.5168
      8  O2B       31.2780   20.8980   72.2700 O.3   503  GTP503     -0.4368
      9  O3A       29.6040   19.5780   71.1350 O.3   503  GTP503     -0.2700
     10  PA        28.9950   18.3140   71.8370 P.3   503  GTP503      0.2189
     11  O1A       29.0060   17.2640   70.6610 O.2   503  GTP503     -0.5170
     12  O2A       29.8530   17.9940   73.0010 O.3   503  GTP503     -0.4371
     13  O5'       27.4020   18.3190   72.2140 O.3   503  GTP503     -0.3112
     14  C5'       26.4320   18.5060   71.2030 C.3   503  GTP503      0.1813
     15  C4'       25.2390   19.4160   71.6000 C.3   503  GTP503      0.1799
     16  O4'       24.7470   19.1360   72.8960 O.3   503  GTP503     -0.3326
     17  C3'       25.6940   20.9140   71.6680 C.3   503  GTP503      0.2158
     18  O3'       24.6030   21.7560   71.4670 O.3   503  GTP503     -0.2175
     19  C2'       26.1460   21.0420   73.1580 C.3   503  GTP503      0.2310
     20  O2'       25.9760   22.3510   73.6010 O.3   503  GTP503     -0.2158
     21  C1'       25.0430   20.1640   73.8370 C.3   503  GTP503      0.2293
     22  N9        25.4090   19.5560   75.1160 N.pl3 503  GTP503     -0.2354
     23  C8        26.8230   19.2750   75.5560 C.3   503  GTP503      0.2246
     24  N7        26.6710   18.5240   76.8200 N.2   503  GTP503     -0.2322
     25  C5        25.3870   18.8370   77.2800 C.2   503  GTP503      0.2182
     26  C6        24.8210   18.6450   78.5260 C.1   503  GTP503      0.2372
     27  O6        25.5660   18.0910   79.5140 O.2   503  GTP503     -0.2069
     28  N1        23.5250   19.0240   78.7930 N.2   503  GTP503     -0.2485
     29  C2        22.8750   19.5920   77.7160 C.1   503  GTP503      0.2531
     30  N2        21.5780   19.9620   77.9540 N.pl3 503  GTP503     -0.0226
     31  N3        23.3290   19.8450   76.4130 N.2   503  GTP503     -0.3074
     32  C4        24.6000   19.4420   76.2430 C.2   503  GTP503      0.2300
@<TRIPOS>BOND
     1     7     6    2
     2    11    10    2
     3     9     6    1
     4     9    10    1
     5    14    15    1
     6    14    13    1
     7    18    17    1
     8     6     8    1
     9     6     5    1
    10    15    17    1
    11    15    16    1
    12    17    19    1
    13    10    13    1
    14    10    12    1
    15     5     1    1
    16    16    21    1
    17    19    20    1
    18    19    21    1
    19     4     1    2
    20    21    22    1
    21     1     2    1
    22     1     3    1
    23    22    23    1
    24    22    32    1
    25    23    24    1
    26    32    31    2
    27    32    25    1
    28    31    29    2
    29    24    25    2
    30    25    26    1
    31    29    30    1
    32    29    28    2
    33    26    28    2
    34    26    27    2
