@<TRIPOS>MOLECULE
3mwa_UFT_A_1.pdb
 21 22 0 0 0
SMALL
GASTEIGER

@<TRIPOS>ATOM
      1  OP3        5.8820  -30.7450  -26.9770 O.2   1000  UFT1000    -0.2224
      2  P          6.8960  -30.7650  -25.8610 P.3   1000  UFT1000     0.5327
      3  OP1        6.3080  -30.8510  -24.4760 O.3   1000  UFT1000    -0.1145
      4  OP2        7.9750  -31.7850  -26.1110 O.3   1000  UFT1000    -0.1145
      5  O5'        7.6790  -29.3510  -25.9740 O.3   1000  UFT1000    -0.2675
      6  N1         8.2460  -24.8000  -22.8510 N.am  1000  UFT1000    -0.1765
      7  C6         8.4450  -23.4750  -22.6610 C.2   1000  UFT1000     0.0929
      8  C2         7.1390  -25.4400  -22.4210 C.1   1000  UFT1000     0.2845
      9  O2         6.9900  -26.6730  -22.6130 O.2   1000  UFT1000    -0.1918
     10  N3         6.1750  -24.7760  -21.7320 N.2   1000  UFT1000    -0.2452
     11  C4         6.3280  -23.4460  -21.5120 C.1   1000  UFT1000     0.2182
     12  O4         5.4150  -22.8480  -20.9110 O.2   1000  UFT1000    -0.2085
     13  C5         7.4640  -22.7620  -21.9650 C.2   1000  UFT1000     0.1242
     14  F2'       11.0570  -26.5010  -23.0270 F     1000  UFT1000    -0.2299
     15  C2'        9.8030  -26.8460  -23.4200 C.3   1000  UFT1000     0.2409
     16  C5'        7.3860  -28.2140  -25.1590 C.3   1000  UFT1000     0.1859
     17  C4'        8.4870  -27.1720  -25.3860 C.3   1000  UFT1000     0.1803
     18  O4'        8.2380  -25.8720  -24.8460 O.3   1000  UFT1000    -0.3318
     19  C1'        9.1490  -25.5240  -23.7510 C.3   1000  UFT1000     0.2423
     20  C3'        9.8370  -27.5330  -24.7820 C.3   1000  UFT1000     0.2180
     21  O3'       10.8080  -26.9280  -25.6720 O.3   1000  UFT1000    -0.2173
@<TRIPOS>BOND
     1     1     2    2
     2     4     2    1
     3     5     2    1
     4     5    16    1
     5     2     3    1
     6    21    20    1
     7    17    16    1
     8    17    18    1
     9    17    20    1
    10    18    19    1
    11    20    15    1
    12    19    15    1
    13    19     6    1
    14    15    14    1
    15     6     7    1
    16     6     8   am
    17     7    13    2
    18     9     8    2
    19     8    10    2
    20    13    11    1
    21    10    11    2
    22    11    12    2
