@<TRIPOS>MOLECULE
3mwb_PHE_B_1.pdb
 12 12 0 0 0
SMALL
GASTEIGER

@<TRIPOS>ATOM
      1  N         23.0260   43.4240   61.1510 N.3   311  PHE311     -0.1205
      2  CA        23.7530   43.7300   62.4420 C.3   311  PHE311      0.1986
      3  C         24.8920   44.7060   62.1970 C.2   311  PHE311      0.3822
      4  O         25.7110   44.9750   63.1170 O.co2 311  PHE311     -0.2440
      5  CB        24.2740   42.4430   63.1460 C.3   311  PHE311      0.0569
      6  CG        25.0700   41.5060   62.2470 C.ar  311  PHE311     -0.0202
      7  CD1       26.3960   41.8090   61.8760 C.ar  311  PHE311     -0.0042
      8  CD2       24.4900   40.3060   61.7860 C.ar  311  PHE311     -0.0042
      9  CE1       27.1270   40.9570   61.0480 C.ar  311  PHE311     -0.0003
     10  CE2       25.2160   39.4290   60.9590 C.ar  311  PHE311     -0.0003
     11  CZ        26.5490   39.7610   60.5900 C.ar  311  PHE311     -0.0000
     12  OXT       25.0370   45.1950   61.0520 O.co2 311  PHE311     -0.2440
@<TRIPOS>BOND
     1    11    10   ar
     2    11     9   ar
     3    10     8   ar
     4     9     7   ar
     5    12     3   ar
     6     1     2    1
     7     8     6   ar
     8     7     6   ar
     9     3     2    1
    10     3     4   ar
    11     6     5    1
    12     2     5    1
