@<TRIPOS>MOLECULE
3mwd_CIT_A_1.pdb
 13 12 0 0 0
SMALL
GASTEIGER

@<TRIPOS>ATOM
      1  C1        26.4000   27.0760   22.1160 C.2   426  CIT426      0.3680
      2  O1        27.0830   26.0840   22.4800 O.co2 426  CIT426     -0.2455
      3  O2        25.2370   27.0030   21.6300 O.co2 426  CIT426     -0.2455
      4  C2        26.8700   28.4580   22.5440 C.3   426  CIT426      0.1560
      5  C3        28.3240   28.7090   22.1160 C.3   426  CIT426      0.2402
      6  O7        29.1660   27.9130   22.9620 O.3   426  CIT426     -0.2129
      7  C4        28.5750   30.2180   22.3050 C.3   426  CIT426      0.1560
      8  C5        29.6600   30.5000   23.3300 C.2   426  CIT426      0.3680
      9  O3        29.2810   30.6510   24.5190 O.co2 426  CIT426     -0.2455
     10  O4        30.7610   30.9180   22.8950 O.co2 426  CIT426     -0.2455
     11  C6        28.5420   28.3530   20.6330 C.2   426  CIT426      0.3927
     12  O5        28.1110   29.1330   19.7460 O.co2 426  CIT426     -0.2429
     13  O6        29.4880   27.5430   20.4610 O.co2 426  CIT426     -0.2429
@<TRIPOS>BOND
     1    12    11   ar
     2    13    11   ar
     3    11     5    1
     4     3     1   ar
     5     1     2   ar
     6     1     4    1
     7     5     7    1
     8     5     4    1
     9     5     6    1
    10     7     8    1
    11    10     8   ar
    12     8     9   ar
