@<TRIPOS>MOLECULE
3mwe_TLA_A_1.pdb
 10 9 0 0 0
SMALL
GASTEIGER

@<TRIPOS>ATOM
      1  O1        28.8650   28.4560   19.2880 O.co2 427  TLA427     -0.2427
      2  O11       27.4130   30.0710   19.5900 O.co2 427  TLA427     -0.2427
      3  C1        28.2830   29.2830   20.0280 C.2   427  TLA427      0.3979
      4  C2        28.7010   29.3230   21.5100 C.3   427  TLA427      0.2950
      5  O2        29.8430   28.5890   21.8740 O.3   427  TLA427     -0.2075
      6  C3        27.5680   29.0470   22.5190 C.3   427  TLA427      0.2950
      7  O3        26.9250   30.0940   23.2040 O.3   427  TLA427     -0.2075
      8  C4        26.6240   28.0550   21.9710 C.2   427  TLA427      0.3979
      9  O4        25.6600   28.4760   21.3010 O.co2 427  TLA427     -0.2427
     10  O41       26.8580   26.8440   22.2180 O.co2 427  TLA427     -0.2427
@<TRIPOS>BOND
     1     1     3   ar
     2     2     3   ar
     3     3     4    1
     4     9     8   ar
     5     4     5    1
     6     4     6    1
     7     8    10   ar
     8     8     6    1
     9     6     7    1
