@<TRIPOS>MOLECULE
3mwf_SE8_A_1.pdb
 31 30 0 0 0
SMALL
GASTEIGER

@<TRIPOS>ATOM
      1  C1         4.9250    9.5410   -6.9400 C.2     1  SE81        0.3837
      2  C2         3.9070    9.4060   -8.0380 C.3     1  SE81        0.2158
      3  C3         4.4410    8.5370   -9.1660 C.3     1  SE81        0.1456
      4  N4         5.5680    9.1450   -9.8660 N.am    1  SE81       -0.2032
      5  C5         5.4060    9.8660  -10.9570 C.2     1  SE81        0.2445
      6  C6         6.6270   10.5750  -11.4890 C.3     1  SE81        0.1288
      7  C7         6.8410   11.9060  -10.7680 C.3     1  SE81        0.2361
      8  C8         8.1890   12.4880  -11.2320 C.3     1  SE81        0.1288
      9  C9         8.4500   13.9210  -10.7730 C.2     1  SE81        0.2445
     10  N10        8.0010   14.2840   -9.5730 N.am    1  SE81       -0.2034
     11  C11        8.2690   15.6260   -9.1090 C.3     1  SE81        0.1385
     12  C12        9.1020   15.6050   -7.8390 C.3     1  SE81        0.1385
     13  N13        9.0150   16.8590   -7.1030 N.am    1  SE81       -0.2035
     14  C14        8.0050   17.1730   -6.2380 C.2     1  SE81        0.2419
     15  C15        7.1400   16.0820   -5.6800 C.3     1  SE81        0.0952
     16  C16        6.1590   15.8350   -6.7990 C.3     1  SE81        0.0859
     17  C17        5.6570   14.4310   -6.9320 C.2     1  SE81        0.2525
     18  C18        4.2070   14.3310   -6.8970 C.2     1  SE81        0.4219
     19  O19        5.1150    8.5580   -6.1770 O.co2   1  SE81       -0.2440
     20  O20        5.5000   10.6390   -6.8000 O.co2   1  SE81       -0.2440
     21  N21        3.5560   10.7510   -8.5340 N.3     1  SE81       -0.1189
     22  O22        4.3470    9.9930  -11.5400 O.2     1  SE81       -0.2732
     23  C23        5.6790   12.8440  -11.0430 C.2     1  SE81        0.3926
     24  O24        5.5990   13.4170  -12.1580 O.co2   1  SE81       -0.2429
     25  O25        4.8210   13.0490  -10.1480 O.co2   1  SE81       -0.2429
     26  O26        6.8320   11.6670   -9.3490 O.3     1  SE81       -0.2131
     27  O27        9.0730   14.6840  -11.5040 O.2     1  SE81       -0.2732
     28  O28        7.7480   18.3180   -5.9140 O.2     1  SE81       -0.2733
     29  O29        6.3880   13.4710   -7.1940 O.2     1  SE81       -0.2843
     30  O30        3.6800   13.3730   -7.4530 O.co2   1  SE81       -0.2373
     31  O31        3.5250   15.2340   -6.3490 O.co2   1  SE81       -0.2373
@<TRIPOS>BOND
     1    24    23   ar
     2    22     5    2
     3    27     9    2
     4     6     5    1
     5     6     7    1
     6     8     9    1
     7     8     7    1
     8    23     7    1
     9    23    25   ar
    10     5     4   am
    11     9    10   am
    12     7    26    1
    13     4     3    1
    14    10    11    1
    15     3     2    1
    16    11    12    1
    17    21     2    1
    18     2     1    1
    19    12    13    1
    20    30    18   ar
    21    29    17    2
    22    13    14   am
    23     1    20   ar
    24     1    19   ar
    25    17    18    1
    26    17    16    1
    27    18    31   ar
    28    16    15    1
    29    14    28    2
    30    14    15    1
