@<TRIPOS>MOLECULE
3mwi_B25_U_1.pdb
 15 16 0 0 0
SMALL
GASTEIGER

@<TRIPOS>ATOM
      1  C1       -29.3470  -17.3030    9.4170 C.2   1244  B251244     0.1273
      2  N1       -26.8870  -16.3930   12.5820 N.pl3 1244  B251244     0.0408
      3  O1       -26.3380  -17.2560   13.2420 O.2   1244  B251244    -0.1304
      4  C2       -28.2590  -16.6240    9.2860 C.2   1244  B251244     0.0296
      5  N2       -33.2680  -19.6120    9.7080 N.pl3 1244  B251244     0.2073
      6  O2       -26.7050  -15.2640   12.8720 O.2   1244  B251244    -0.1304
      7  C3       -27.4420  -16.3040   10.2910 C.2   1244  B251244     0.0099
      8  N3       -32.8690  -18.8390    7.5890 N.pl3 1244  B251244     0.2073
      9  C4       -27.7650  -16.6970   11.5190 C.3   1244  B251244     0.2100
     10  N4       -30.2830  -17.6960    8.6260 N.2   1244  B251244    -0.3981
     11  C5       -28.9260  -17.4280   11.6460 C.2   1244  B251244     0.0060
     12  C6       -29.6910  -17.6950   10.5980 C.2   1244  B251244     0.0128
     13  C7       -30.8870  -18.3880   10.5850 C.3   1244  B251244     0.0960
     14  C8       -31.2490  -18.3430    9.3060 C.2   1244  B251244     0.2101
     15  C9       -32.4890  -18.9760    8.8130 C.2   1244  B251244     0.5017
@<TRIPOS>BOND
     1     8    15    2
     2    10    14    2
     3    10     1    2
     4    15    14    1
     5    15     5    1
     6     4     1    1
     7     4     7    2
     8    14    13    1
     9     1    12    1
    10     7     9    1
    11    13    12    1
    12    12    11    2
    13     9    11    1
    14     9     2    1
    15     2     6    2
    16     2     3    2
