@<TRIPOS>MOLECULE
3mwk_8OP_B_1.pdb
 24 26 0 0 0
SMALL
GASTEIGER

@<TRIPOS>ATOM
      1  P         61.8090   34.1070   -6.2020 P.3   209  8OP209      0.5327
      2  O1P       61.3210   32.6090   -6.2540 O.3   209  8OP209     -0.1145
      3  O2P       61.0510   35.0240   -7.2070 O.2   209  8OP209     -0.2224
      4  O3P       63.3690   34.2650   -6.1620 O.3   209  8OP209     -0.1145
      5  O50       61.2850   34.6370   -4.7510 O.3   209  8OP209     -0.2675
      6  C50       61.9540   34.2470   -3.5670 C.3   209  8OP209      0.1860
      7  C40       61.5040   35.2470   -2.5150 C.3   209  8OP209      0.1823
      8  O40       60.0720   35.3230   -2.3590 O.3   209  8OP209     -0.3127
      9  C30       61.9730   34.8080   -1.1500 C.3   209  8OP209      0.2185
     10  O30       63.3930   34.9670   -1.0420 O.3   209  8OP209     -0.2174
     11  C20       61.1410   35.8210   -0.3600 C.3   209  8OP209      0.2581
     12  O20       61.8520   37.0340   -0.4150 O.3   209  8OP209     -0.2130
     13  C10       59.8360   35.9890   -1.1220 C.3   209  8OP209      0.3330
     14  N9        58.6660   35.3690   -0.4270 N.am  209  8OP209     -0.0561
     15  C8        58.6560   34.1570    0.3410 C.1   209  8OP209      0.3663
     16  O8        59.6820   33.5780    0.7790 O.2   209  8OP209     -0.1677
     17  N7        57.3120   33.7350    0.6070 N.2   209  8OP209     -0.2868
     18  C5        56.4820   34.6950   -0.0830 C.2   209  8OP209      0.3193
     19  C6        55.1100   34.8250   -0.2390 C.2   209  8OP209      0.4527
     20  N6        54.1620   33.9340    0.2810 N.pl3 209  8OP209      0.2193
     21  N1        54.6540   35.8500   -0.9740 N.2   209  8OP209      0.0031
     22  C2        55.4830   36.7360   -1.5590 C.3   209  8OP209      0.5255
     23  N3        56.8140   36.6940   -1.4360 N.2   209  8OP209     -0.0031
     24  C4        57.2950   35.6660   -0.6820 C.2   209  8OP209      0.3790
@<TRIPOS>BOND
     1     3     1    2
     2     2     1    1
     3     1     4    1
     4     1     5    1
     5     5     6    1
     6     6     7    1
     7     7     8    1
     8     7     9    1
     9     8    13    1
    10    22    23    1
    11    22    21    1
    12    23    24    2
    13     9    10    1
    14     9    11    1
    15    13    14    1
    16    13    11    1
    17    21    19    2
    18    24    14    1
    19    24    18    1
    20    14    15   am
    21    12    11    1
    22    19    18    1
    23    19    20    1
    24    18    17    2
    25    15    17    2
    26    15    16    2
