@<TRIPOS>MOLECULE
3mwl_8OX_B_1.pdb
 20 22 0 0 0
SMALL
GASTEIGER

@<TRIPOS>ATOM
      1  O50       15.0200   12.0560   31.0710 O.3   209  8OX209     -0.2176
      2  C50       16.2080   11.5130   30.4890 C.3   209  8OX209      0.2143
      3  C40       15.8700   10.5350   29.3530 C.3   209  8OX209      0.1851
      4  O40       14.4940   10.1450   29.3530 O.3   209  8OX209     -0.3126
      5  C30       16.1480   11.0720   27.9550 C.3   209  8OX209      0.2186
      6  O30       17.5480   11.0910   27.6770 O.3   209  8OX209     -0.2174
      7  C20       15.3950    9.9940   27.1770 C.3   209  8OX209      0.2581
      8  O20       16.1380    8.7750   27.1250 O.3   209  8OX209     -0.2130
      9  C10       14.1200    9.8010   28.0070 C.3   209  8OX209      0.3330
     10  N9        12.9470   10.5990   27.5200 N.am  209  8OX209     -0.0561
     11  C8        12.9270   11.7910   26.7160 C.1   209  8OX209      0.3663
     12  O8        13.8910   12.4070   26.2190 O.2   209  8OX209     -0.1677
     13  N7        11.5810   12.1950   26.5270 N.2   209  8OX209     -0.2868
     14  C5        10.7640   11.2590   27.2340 C.2   209  8OX209      0.3193
     15  C6         9.3740   11.1700   27.3980 C.2   209  8OX209      0.4527
     16  N6         8.4810   12.0870   26.8310 N.pl3 209  8OX209      0.2193
     17  N1         8.8890   10.1610   28.1270 N.2   209  8OX209      0.0031
     18  C2         9.7390    9.2760   28.6760 C.3   209  8OX209      0.5255
     19  N3        11.0630    9.3190   28.5480 N.2   209  8OX209     -0.0031
     20  C4        11.5730   10.3180   27.8230 C.2   209  8OX209      0.3790
@<TRIPOS>BOND
     1    12    11    2
     2    13    11    2
     3    13    14    2
     4    11    10   am
     5    16    15    1
     6     8     7    1
     7     7     5    1
     8     7     9    1
     9    14    15    1
    10    14    20    1
    11    15    17    2
    12    10    20    1
    13    10     9    1
    14     6     5    1
    15    20    19    2
    16     5     3    1
    17     9     4    1
    18    17    18    1
    19    19    18    1
    20     4     3    1
    21     3     2    1
    22     2     1    1
