@<TRIPOS>MOLECULE
3mws_017_B_1.pdb
 39 41 0 0 0
SMALL
GASTEIGER

@<TRIPOS>ATOM
      1  N1        10.5930   19.6670   -3.4200 N.pl3 201  017201     -0.1281
      2  N1         1.0720    6.3150   -1.6910 N.3   201  017201      0.0000
      3  C2         9.9180   18.7050   -3.5810 C.ar  201  017201      0.0892
      4  C3         8.7220   18.6210   -2.8760 C.ar  201  017201      0.0194
      5  C4         7.9150   17.5180   -3.0410 C.ar  201  017201      0.0213
      6  C5         8.2320   16.4720   -3.8810 C.ar  201  017201      0.1223
      7  C6         9.4260   16.5700   -4.5760 C.ar  201  017201      0.0213
      8  C7        10.2640   17.6620   -4.4390 C.ar  201  017201      0.0194
      9  S8         7.1500   15.1020   -4.0350 S.O2  201  017201      0.0634
     10  O9         5.7670   15.6310   -3.9380 O.2   201  017201     -0.1528
     11  O10        7.3960   14.4610   -5.3190 O.2   201  017201     -0.1528
     12  N11        7.3420   14.0750   -2.7850 N.3   201  017201     -0.1529
     13  C12        8.6620   13.5030   -2.6650 C.3   201  017201      0.0958
     14  C13        8.6730   12.0970   -2.0620 C.3   201  017201      0.0178
     15  C14        7.9510   11.1050   -2.9950 C.3   201  017201      0.0015
     16  C15       10.1640   11.6880   -1.9140 C.3   201  017201      0.0015
     17  C16        6.6310   14.3020   -1.5680 C.3   201  017201      0.1304
     18  C17        5.5670   13.2570   -1.2690 C.3   201  017201      0.1898
     19  O18        5.1240   13.3720    0.0870 O.3   201  017201     -0.2197
     20  C19        4.3330   13.3510   -2.1480 C.3   201  017201      0.1347
     21  N20        3.5840   12.1120   -1.9260 N.am  201  017201     -0.1675
     22  C21        3.4020   11.1340   -2.8090 C.2   201  017201      0.4211
     23  O22        3.8450   11.1500   -3.9940 O.2   201  017201     -0.2246
     24  O23        2.6860   10.1290   -2.2760 O.3   201  017201     -0.4345
     25  C24        2.2830    9.0770   -3.1360 C.3   201  017201      0.2048
     26  C25        2.2420    7.7730   -2.3240 C.3   201  017201      0.1884
     27  O26        1.0310    7.9300   -1.5580 O.3   201  017201     -0.3265
     28  C27        0.0600    8.6150   -2.3560 C.3   201  017201      0.2388
     29  O28       -0.5700    9.6260   -1.5630 O.3   201  017201     -0.3304
     30  C29       -0.2030   10.9050   -2.0860 C.3   201  017201      0.1451
     31  C30        0.2040   10.6590   -3.5430 C.3   201  017201      0.0409
     32  C31        0.8150    9.2680   -3.5060 C.3   201  017201      0.1016
     33  C32        3.4200   14.5560   -1.8690 C.3   201  017201      0.0508
     34  C33        0.9580   14.3410   -2.3600 C.ar  201  017201     -0.0042
     35  C34       -0.1520   14.3050   -3.1960 C.ar  201  017201     -0.0003
     36  C35        0.0510   14.3760   -4.5740 C.ar  201  017201     -0.0000
     37  C36        1.3150   14.5710   -5.0960 C.ar  201  017201     -0.0003
     38  C37        2.4210   14.6300   -4.2400 C.ar  201  017201     -0.0042
     39  C38        2.2430   14.5210   -2.8690 C.ar  201  017201     -0.0204
@<TRIPOS>BOND
     1    11     9    2
     2    37    36   ar
     3    37    38   ar
     4     7     8   ar
     5     7     6   ar
     6    36    35   ar
     7     8     3   ar
     8    38    39   ar
     9     9    10    2
    10     9     6    1
    11     9    12    1
    12    23    22    2
    13     6     5   ar
    14     3     1    1
    15     3     4   ar
    16    31    32    1
    17    31    30    1
    18    32    25    1
    19    32    28    1
    20    35    34   ar
    21    25    26    1
    22    25    24    1
    23     5     4   ar
    24    15    14    1
    25    39    34   ar
    26    39    33    1
    27    22    24    1
    28    22    21   am
    29    12    13    1
    30    12    17    1
    31    13    14    1
    32    28    29    1
    33    28    27    1
    34    26    27    1
    35    20    21    1
    36    20    33    1
    37    20    18    1
    38    30    29    1
    39    14    16    1
    40    17    18    1
    41    18    19    1
