@<TRIPOS>MOLECULE
3mwu_BK3_A_1.pdb
 28 32 0 0 0
SMALL
GASTEIGER

@<TRIPOS>ATOM
      1  N1        27.5020    6.5250    6.6360 N.2   561  BK3561     -0.0027
      2  C2        27.5800    5.9020    5.4530 C.3   561  BK3561      0.5248
      3  N3        26.9970    6.3600    4.3700 N.2   561  BK3561     -0.0088
      4  C4        26.2910    7.5130    4.4150 C.2   561  BK3561      0.3403
      5  C5        26.1750    8.2180    5.5980 C.3   561  BK3561      0.2601
      6  C6        26.8030    7.6770    6.7410 C.2   561  BK3561      0.4078
      7  NAA       26.7600    8.2540    7.9370 N.pl3 561  BK3561      0.2118
      8  NBB       25.6070    8.1890    3.5090 N.pl3 561  BK3561     -0.0800
      9  NAR       25.0830    9.2300    3.9670 N.2   561  BK3561     -0.0952
     10  NAS       21.6760    6.2380    0.7530 N.3   561  BK3561     -0.2180
     11  CAB       24.5690   15.3970    7.9190 C.ar  561  BK3561     -0.0000
     12  CAC       23.6320   14.4160    7.5440 C.ar  561  BK3561     -0.0000
     13  CAD       28.1600   12.3080    6.8320 C.ar  561  BK3561     -0.0003
     14  CAE       27.2250   11.3380    6.4420 C.ar  561  BK3561     -0.0039
     15  CAG       25.9290   15.0880    7.8290 C.ar  561  BK3561     -0.0000
     16  CAH       27.7150   13.5450    7.2960 C.ar  561  BK3561     -0.0000
     17  CAI       24.0770   13.1710    7.0960 C.ar  561  BK3561     -0.0003
     18  CAJ       22.8730    5.6400    0.1730 C.3   561  BK3561      0.0888
     19  CAK       21.8120    6.4060    2.2220 C.3   561  BK3561      0.0888
     20  CAL       24.0360    6.6490    0.3690 C.3   561  BK3561      0.0231
     21  CAM       23.0550    7.2520    2.5730 C.3   561  BK3561      0.0231
     22  CAN       24.8570   10.4650    6.1340 C.3   561  BK3561      0.0724
     23  CAO       25.5050    7.7660    2.1160 C.3   561  BK3561      0.2317
     24  CAU       25.8520   11.5850    6.5310 C.ar  561  BK3561     -0.0164
     25  CAV       25.3700    9.3260    5.2670 C.2   561  BK3561      0.1047
     26  CAW       26.3660   13.8190    7.3870 C.ar  561  BK3561     -0.0003
     27  CAX       25.4340   12.8490    7.0020 C.ar  561  BK3561     -0.0036
     28  CBA       24.3350    6.7750    1.8730 C.3   561  BK3561      0.0522
@<TRIPOS>BOND
     1    18    20    1
     2    18    10    1
     3    20    28    1
     4    10    19    1
     5    28    23    1
     6    28    21    1
     7    23     8    1
     8    19    21    1
     9     8     9    1
    10     8     4    1
    11     9    25    2
    12     3     4    2
    13     3     2    1
    14     4     5    1
    15    25     5    1
    16    25    22    1
    17     2     1    1
    18     5     6    1
    19    22    24    1
    20    14    24   ar
    21    14    13   ar
    22    24    27   ar
    23     1     6    2
    24     6     7    1
    25    13    16   ar
    26    27    17   ar
    27    27    26   ar
    28    17    12   ar
    29    16    26   ar
    30    26    15   ar
    31    12    11   ar
    32    15    11   ar
