@<TRIPOS>MOLECULE
3mww_BIW_B_1.pdb
 35 39 0 0 0
SMALL
GASTEIGER

@<TRIPOS>ATOM
      1  C1       -24.1970  -17.1140  -30.7020 C.ar  577  BIW577      0.0812
      2  C2       -25.5640  -16.6820  -30.6390 C.ar  577  BIW577      0.0238
      3  C3       -25.9310  -15.5560  -29.8260 C.ar  577  BIW577      0.0602
      4  C4       -24.9300  -14.8660  -29.0860 C.ar  577  BIW577      0.0132
      5  C5       -23.5600  -15.3020  -29.1520 C.ar  577  BIW577      0.0014
      6  C6       -23.1990  -16.4180  -29.9560 C.ar  577  BIW577      0.0067
      7  N7       -27.1650  -14.9330  -29.5890 N.ar  577  BIW577     -0.3191
      8  C8       -26.9680  -13.8530  -28.6980 C.ar  577  BIW577      0.0594
      9  C9       -25.5910  -13.7850  -28.3720 C.ar  577  BIW577     -0.0052
     10  C10      -24.9180  -12.7520  -27.4310 C.3   577  BIW577      0.0238
     11  C11      -24.4190  -13.3960  -26.1080 C.3   577  BIW577      0.0044
     12  C12      -23.6980  -12.3820  -25.1970 C.3   577  BIW577      0.0003
     13  C13      -22.5450  -11.6570  -25.9200 C.3   577  BIW577      0.0000
     14  C14      -22.9880  -11.0190  -27.2470 C.3   577  BIW577      0.0003
     15  C15      -23.7540  -11.9990  -28.1580 C.3   577  BIW577      0.0044
     16  C16      -27.9990  -12.9520  -28.1970 C.ar  577  BIW577      0.0562
     17  C17      -28.8590  -12.1300  -28.9630 C.ar  577  BIW577      0.0452
     18  C18      -29.6600  -11.4590  -28.0620 C.ar  577  BIW577      0.1798
     19  O19      -29.3420  -11.8210  -26.7830 O.2   577  BIW577     -0.4473
     20  C20      -28.3300  -12.7310  -26.8730 C.ar  577  BIW577      0.1811
     21  C21      -23.8070  -18.3030  -31.5620 C.2   577  BIW577      0.3878
     22  O22      -22.5830  -18.6480  -31.5900 O.co2 577  BIW577     -0.2406
     23  O23      -24.7220  -18.9000  -32.2150 O.co2 577  BIW577     -0.2406
     24  C24      -28.4550  -15.3630  -30.1920 C.3   577  BIW577      0.1919
     25  C25      -28.7160  -14.6990  -31.5660 C.2   577  BIW577      0.2487
     26  O26      -27.7790  -14.2250  -32.2290 O.2   577  BIW577     -0.2728
     27  N27      -30.0690  -14.6360  -32.0500 N.am  577  BIW577     -0.2779
     28  C28      -31.2100  -15.2150  -31.2750 C.3   577  BIW577      0.0940
     29  C29      -32.4180  -14.2520  -31.1930 C.3   577  BIW577      0.0328
     30  C30      -32.7500  -13.5820  -32.5500 C.3   577  BIW577      0.1068
     31  C31      -31.5090  -12.9780  -33.2360 C.3   577  BIW577      0.0328
     32  C32      -30.3530  -13.9900  -33.3570 C.3   577  BIW577      0.0940
     33  C33      -33.8470  -12.4940  -32.3930 C.2   577  BIW577      0.3644
     34  O34      -33.7240  -11.6300  -31.4640 O.co2 577  BIW577     -0.2457
     35  O35      -34.8150  -12.5090  -33.2140 O.co2 577  BIW577     -0.2457
@<TRIPOS>BOND
     1    32    31    1
     2    32    27    1
     3    31    30    1
     4    35    33   ar
     5    30    33    1
     6    30    29    1
     7    33    34   ar
     8    26    25    2
     9    23    21   ar
    10    27    25   am
    11    27    28    1
    12    22    21   ar
    13    25    24    1
    14    21     1    1
    15    28    29    1
    16     1     2   ar
    17     1     6   ar
    18     2     3   ar
    19    24     7    1
    20     6     5   ar
    21     3     7   ar
    22     3     4   ar
    23     7     8   ar
    24     5     4   ar
    25     4     9   ar
    26    17    16   ar
    27    17    18   ar
    28     8     9   ar
    29     8    16    1
    30     9    10    1
    31    16    20   ar
    32    15    10    1
    33    15    14    1
    34    18    19   ar
    35    10    11    1
    36    14    13    1
    37    20    19   ar
    38    11    12    1
    39    13    12    1
