@<TRIPOS>MOLECULE
3mwy_AGS_W_1.pdb
 31 33 0 0 0
SMALL
GASTEIGER

@<TRIPOS>ATOM
      1  PG        23.6980   46.6690   26.7120 P.3   2000  AGS2000     0.4340
      2  S1G       22.5070   46.5100   28.4140 S.3   2000  AGS2000     0.0416
      3  O2G       24.1100   45.2820   26.1950 O.3   2000  AGS2000    -0.1305
      4  O3G       22.9310   47.6510   25.8170 O.2   2000  AGS2000    -0.2423
      5  PB        26.1980   46.7390   27.9640 P.3   2000  AGS2000     0.2262
      6  O1B       26.1630   47.0610   29.4540 O.3   2000  AGS2000    -0.4369
      7  O2B       26.1890   45.3240   27.4290 O.2   2000  AGS2000    -0.5168
      8  O3B       25.0110   47.4940   27.2040 O.3   2000  AGS2000    -0.2405
      9  PA        28.5210   46.8180   26.4970 P.3   2000  AGS2000     0.2189
     10  O1A       28.9430   45.5040   27.1510 O.3   2000  AGS2000    -0.4371
     11  O2A       28.0750   46.9080   25.0430 O.2   2000  AGS2000    -0.5170
     12  O3A       27.4170   47.5620   27.3630 O.3   2000  AGS2000    -0.2701
     13  O5'       29.6620   47.8770   26.9010 O.3   2000  AGS2000    -0.3112
     14  C5'       29.9890   49.0260   26.1130 C.3   2000  AGS2000     0.1813
     15  C4'       31.4320   48.7720   25.6570 C.3   2000  AGS2000     0.1821
     16  O4'       32.2620   48.4960   26.7970 O.3   2000  AGS2000    -0.3135
     17  C3'       31.5560   47.5220   24.7640 C.3   2000  AGS2000     0.2184
     18  O3'       32.3470   47.8210   23.5970 O.3   2000  AGS2000    -0.2174
     19  C2'       32.2470   46.4720   25.6240 C.3   2000  AGS2000     0.2570
     20  O2'       33.0430   45.5470   24.8790 O.3   2000  AGS2000    -0.2130
     21  C1'       33.1120   47.3930   26.4540 C.3   2000  AGS2000     0.3186
     22  N9        33.6370   46.7210   27.6450 N.pl3 2000  AGS2000    -0.1439
     23  C8        32.9290   46.3200   28.7100 C.3   2000  AGS2000     0.3377
     24  N7        33.7490   45.7550   29.6250 N.2   2000  AGS2000    -0.2095
     25  C5        35.0080   45.7940   29.1310 C.2   2000  AGS2000     0.2526
     26  C6        36.3700   45.3640   29.5660 C.2   2000  AGS2000     0.4393
     27  N6        36.5690   44.7560   30.7620 N.pl3 2000  AGS2000     0.2180
     28  N1        37.4200   45.5970   28.7330 N.2   2000  AGS2000     0.0021
     29  C2        37.2520   46.2020   27.5390 C.3   2000  AGS2000     0.5254
     30  N3        36.0510   46.6180   27.0840 N.2   2000  AGS2000    -0.0055
     31  C4        34.9200   46.4420   27.8180 C.2   2000  AGS2000     0.3518
@<TRIPOS>BOND
     1    18    17    1
     2    17    19    1
     3    17    15    1
     4    20    19    1
     5    11     9    2
     6    19    21    1
     7    15    14    1
     8    15    16    1
     9     4     1    2
    10    14    13    1
    11     3     1    1
    12    21    16    1
    13    21    22    1
    14     9    13    1
    15     9    10    1
    16     9    12    1
    17     1     8    1
    18     1     2    1
    19    30    29    1
    20    30    31    2
    21     8     5    1
    22    12     5    1
    23     7     5    2
    24    29    28    1
    25    22    31    1
    26    22    23    1
    27    31    25    1
    28     5     6    1
    29    23    24    1
    30    28    26    2
    31    25    26    1
    32    25    24    2
    33    26    27    1
