@<TRIPOS>MOLECULE
3mx2_TTP_A_1.pdb
 29 30 0 0 0
SMALL
GASTEIGER

@<TRIPOS>ATOM
      1  PA       -56.0050  -53.3270   -1.1790 P.3   800  TTP800      0.2189
      2  O1A      -57.3180  -53.5140   -0.5130 O.3   800  TTP800     -0.4371
      3  O2A      -55.2920  -54.4080   -1.8960 O.2   800  TTP800     -0.5170
      4  O3A      -55.1810  -51.9720   -0.8370 O.3   800  TTP800     -0.2700
      5  PB       -54.2300  -51.3150   -1.9400 P.3   800  TTP800      0.2277
      6  O1B      -54.4280  -52.0050   -3.2220 O.2   800  TTP800     -0.5168
      7  O2B      -54.3990  -49.8580   -1.8670 O.3   800  TTP800     -0.4368
      8  O3B      -52.8040  -51.6470   -1.3370 O.3   800  TTP800     -0.2258
      9  PG       -51.4590  -51.2000   -2.0760 P.3   800  TTP800      0.5373
     10  O1G      -50.3780  -52.2050   -1.9530 O.3   800  TTP800     -0.1143
     11  O2G      -51.8310  -50.9990   -3.6310 O.2   800  TTP800     -0.2221
     12  O3G      -51.0690  -49.7300   -1.5330 O.3   800  TTP800     -0.1143
     13  O5'      -55.2220  -53.8200    0.1710 O.3   800  TTP800     -0.3112
     14  C5'      -55.7910  -54.6240    1.2350 C.3   800  TTP800      0.1812
     15  C4'      -56.4780  -53.7240    2.2710 C.3   800  TTP800      0.1773
     16  O4'      -57.1840  -54.4170    3.3560 O.3   800  TTP800     -0.3339
     17  C3'      -55.4590  -52.8110    2.9910 C.3   800  TTP800      0.1857
     18  O3'      -55.6120  -51.4350    2.5750 O.3   800  TTP800     -0.2203
     19  C2'      -55.8830  -52.9430    4.4470 C.3   800  TTP800      0.0874
     20  C1'      -57.3430  -53.2640    4.1930 C.3   800  TTP800      0.2090
     21  N1       -58.2320  -53.1550    5.3900 N.am  800  TTP800     -0.1794
     22  C2       -58.1880  -51.9620    6.1240 C.1   800  TTP800      0.2844
     23  O2       -57.4200  -51.0680    5.8000 O.2   800  TTP800     -0.1918
     24  N3       -58.9920  -51.7720    7.2310 N.2   800  TTP800     -0.2455
     25  C4       -59.8630  -52.7800    7.6020 C.1   800  TTP800      0.2134
     26  O4       -60.5540  -52.5730    8.5890 O.2   800  TTP800     -0.2088
     27  C5       -59.9390  -53.9770    6.8790 C.2   800  TTP800      0.0891
     28  C5M      -60.9110  -55.0870    7.2970 C.3   800  TTP800      0.0462
     29  C6       -59.1260  -54.1690    5.7610 C.2   800  TTP800      0.0877
@<TRIPOS>BOND
     1    11     9    2
     2     6     5    2
     3     9    10    1
     4     9    12    1
     5     9     8    1
     6     5     7    1
     7     5     8    1
     8     5     4    1
     9     3     1    2
    10     1     4    1
    11     1     2    1
    12     1    13    1
    13    13    14    1
    14    14    15    1
    15    15    17    1
    16    15    16    1
    17    18    17    1
    18    17    19    1
    19    16    20    1
    20    20    19    1
    21    20    21    1
    22    21    29    1
    23    21    22   am
    24    29    27    2
    25    23    22    2
    26    22    24    2
    27    27    28    1
    28    27    25    1
    29    24    25    2
    30    25    26    2
