@<TRIPOS>MOLECULE
3mx5_UTP_A_1.pdb
 29 30 0 0 0
SMALL
GASTEIGER

@<TRIPOS>ATOM
      1  PA        17.8860   27.2790   -0.8900 P.3   993  UTP993      0.2189
      2  O1A       19.1520   26.5750   -1.1800 O.3   993  UTP993     -0.4371
      3  O2A       16.6510   26.3650   -1.3550 O.2   993  UTP993     -0.5170
      4  O3A       17.9760   28.6900   -1.6720 O.3   993  UTP993     -0.2700
      5  O5'       17.7490   27.5870    0.6830 O.3   993  UTP993     -0.3112
      6  PB        16.6080   29.2570   -2.3020 P.3   993  UTP993      0.2277
      7  O1B       15.4350   29.4920   -1.2750 O.3   993  UTP993     -0.4368
      8  O2B       16.1120   28.3360   -3.3300 O.2   993  UTP993     -0.5168
      9  O3B       17.0290   30.6460   -3.0550 O.3   993  UTP993     -0.2258
     10  PG        17.4930   31.7980   -2.0050 P.3   993  UTP993      0.5373
     11  O1G       18.6710   31.2850   -1.0500 O.3   993  UTP993     -0.1143
     12  O2G       16.3110   32.2350   -1.2240 O.3   993  UTP993     -0.1143
     13  O3G       18.0460   33.0690   -2.7940 O.2   993  UTP993     -0.2221
     14  C5'       18.0240   26.3790    1.3830 C.3   993  UTP993      0.1813
     15  C4'       17.9190   26.7020    2.8790 C.3   993  UTP993      0.1799
     16  O4'       17.0220   25.7530    3.4960 O.3   993  UTP993     -0.3320
     17  C1'       17.2820   25.8190    4.9090 C.3   993  UTP993      0.2401
     18  C2'       18.7870   26.1240    5.0580 C.3   993  UTP993      0.2319
     19  O2'       18.9660   27.1430    6.0400 O.3   993  UTP993     -0.2157
     20  C3'       19.2560   26.5250    3.6350 C.3   993  UTP993      0.2158
     21  O3'       20.0230   27.7280    3.6710 O.3   993  UTP993     -0.2175
     22  N1        17.0560   24.5020    5.5010 N.am  993  UTP993     -0.1766
     23  C6        18.0290   23.5440    5.3330 C.2   993  UTP993      0.0929
     24  C2        15.9330   24.2330    6.1900 C.1   993  UTP993      0.2845
     25  O2        15.0790   25.0940    6.3210 O.2   993  UTP993     -0.1918
     26  N3        15.7590   23.0000    6.7310 N.2   993  UTP993     -0.2452
     27  C4        16.7070   22.0340    6.5890 C.1   993  UTP993      0.2182
     28  O4        16.5650   20.9200    7.0620 O.2   993  UTP993     -0.2085
     29  C5        17.8900   22.3130    5.8600 C.2   993  UTP993      0.1242
@<TRIPOS>BOND
     1     8     6    2
     2     9     6    1
     3     9    10    1
     4    13    10    2
     5     6     4    1
     6     6     7    1
     7    10    12    1
     8    10    11    1
     9     4     1    1
    10     3     1    2
    11     2     1    1
    12     1     5    1
    13     5    14    1
    14    14    15    1
    15    15    16    1
    16    15    20    1
    17    16    17    1
    18    20    21    1
    19    20    18    1
    20    17    18    1
    21    17    22    1
    22    18    19    1
    23    23    22    1
    24    23    29    2
    25    22    24   am
    26    29    27    1
    27    24    25    2
    28    24    26    2
    29    27    26    2
    30    27    28    2
