@<TRIPOS>MOLECULE
3mxd_K53_A_1.pdb
 44 48 0 0 0
SMALL
GASTEIGER

@<TRIPOS>ATOM
      1  C2        15.5940   34.6280   17.5780 C.ar  200  K53200      0.1765
      2  C3        16.5830   35.2700   16.8930 C.ar  200  K53200      0.1778
      3  C4        17.3850   34.5920   15.9820 C.ar  200  K53200      0.0601
      4  C5        17.1880   33.2200   15.7690 C.ar  200  K53200      0.1254
      5  C6        16.1670   32.5700   16.4850 C.ar  200  K53200      0.0232
      6  C7        15.3590   33.2750   17.4000 C.ar  200  K53200      0.0416
      7  S8        18.1320   32.3950   14.7330 S.O2  200  K53200      0.0635
      8  O9        17.4070   31.3060   14.1440 O.2   200  K53200     -0.1528
      9  O10       18.6610   33.2660   13.7250 O.2   200  K53200     -0.1528
     10  N11       19.4170   31.7280   15.4680 N.3   200  K53200     -0.1529
     11  C12       20.1590   32.6990   16.3170 C.3   200  K53200      0.0958
     12  C13       21.6660   32.4110   16.2990 C.3   200  K53200      0.0178
     13  C14       22.2490   32.3900   14.8830 C.3   200  K53200      0.0015
     14  C15       22.4090   33.4180   17.1830 C.3   200  K53200      0.0015
     15  C16       19.1040   30.4620   16.1770 C.3   200  K53200      0.1304
     16  C17       20.0240   29.3670   15.6180 C.3   200  K53200      0.1897
     17  C18       15.6290   36.8020   18.2740 C.3   200  K53200      0.4294
     18  O18       19.9740   28.2150   16.4760 O.3   200  K53200     -0.2197
     19  C19       19.6900   28.9930   14.1710 C.3   200  K53200      0.1314
     20  O19       14.9790   35.5160   18.4070 O.3   200  K53200     -0.4346
     21  N20       20.7970   28.2280   13.6030 N.am  200  K53200     -0.2011
     22  C21       21.5540   28.6340   12.5730 C.2   200  K53200      0.2836
     23  O22       21.4530   29.7310   12.0450 O.2   200  K53200     -0.2694
     24  N24       22.5400   26.1590   10.2400 N.am  200  K53200     -0.2177
     25  C25       22.6210   27.5950   10.5190 C.3   200  K53200      0.1548
     26  C26       22.3000   25.4650   11.3380 C.2   200  K53200      0.4093
     27  O27       22.2060   24.2530   11.4270 O.2   200  K53200     -0.2258
     28  O28       22.2200   26.3240   12.4740 O.3   200  K53200     -0.4267
     29  C29       22.5720   27.6530   12.0490 C.3   200  K53200      0.2673
     30  O29       16.6050   36.5940   17.2460 O.3   200  K53200     -0.4346
     31  C32       18.3640   28.2290   14.0370 C.3   200  K53200      0.0506
     32  C33       18.5270   26.6040   12.1230 C.ar  200  K53200     -0.0042
     33  C34       18.3850   26.2740   10.7870 C.ar  200  K53200     -0.0003
     34  C35       17.8680   27.2090    9.9000 C.ar  200  K53200     -0.0000
     35  C36       17.5120   28.4750   10.3520 C.ar  200  K53200     -0.0003
     36  C37       17.6540   28.8020   11.6920 C.ar  200  K53200     -0.0042
     37  C38       18.1630   27.8690   12.5830 C.ar  200  K53200     -0.0204
     38  C40       23.2920   24.4370    6.5160 C.ar  200  K53200      0.0034
     39  C41       24.2980   24.5140    7.4800 C.ar  200  K53200      0.0433
     40  C42       24.0320   25.1000    8.7180 C.ar  200  K53200      0.2093
     41  C43       22.7680   25.5820    8.9870 C.ar  200  K53200      0.0959
     42  C44       21.7590   25.5100    8.0270 C.ar  200  K53200      0.0182
     43  C45       22.0150   24.9310    6.7950 C.ar  200  K53200      0.0015
     44  O46       25.0070   25.1830    9.6750 O.3   200  K53200     -0.2852
@<TRIPOS>BOND
     1    38    43   ar
     2    38    39   ar
     3    43    42   ar
     4    39    40   ar
     5    42    41   ar
     6    40    41   ar
     7    40    44    1
     8    41    24    1
     9    34    35   ar
    10    34    33   ar
    11    24    25    1
    12    24    26   am
    13    35    36   ar
    14    25    29    1
    15    33    32   ar
    16    26    27    2
    17    26    28    1
    18    36    37   ar
    19    23    22    2
    20    29    28    1
    21    29    22    1
    22    32    37   ar
    23    22    21   am
    24    37    31    1
    25    21    19    1
    26     9     7    2
    27    31    19    1
    28     8     7    2
    29    19    16    1
    30     7    10    1
    31     7     4    1
    32    13    12    1
    33    10    15    1
    34    10    11    1
    35    16    15    1
    36    16    18    1
    37     4     3   ar
    38     4     5   ar
    39     3     2   ar
    40    12    11    1
    41    12    14    1
    42     5     6   ar
    43     2    30    1
    44     2     1   ar
    45    30    17    1
    46     6     1   ar
    47     1    20    1
    48    17    20    1
