@<TRIPOS>MOLECULE
3mxe_K54_A_1.pdb
 47 51 0 0 0
SMALL
GASTEIGER

@<TRIPOS>ATOM
      1  C1        15.4900   36.7590   18.3470 C.3   200  K54200      0.1869
      2  F1        24.5430   26.4890    8.9970 F     200  K54200     -0.1658
      3  N1        15.0300   35.4960   18.4290 N.2   200  K54200     -0.2616
      4  S1        16.7830   37.0200   17.2270 S.3   200  K54200     -0.0861
      5  C2        15.6650   34.6520   17.5710 C.2   200  K54200      0.0648
      6  F2        24.7220   24.6580   10.1020 F     200  K54200     -0.1658
      7  C3        16.6410   35.3450   16.8590 C.2   200  K54200      0.0419
      8  F3        25.4930   24.8100    8.0680 F     200  K54200     -0.1658
      9  C4        17.4290   34.6350   15.9200 C.2   200  K54200      0.0270
     10  C5        17.2520   33.2410   15.6790 C.2   200  K54200      0.1189
     11  C6        16.2550   32.5910   16.3990 C.2   200  K54200      0.0001
     12  C7        15.4800   33.2920   17.3330 C.3   200  K54200      0.0732
     13  S8        18.1460   32.3670   14.6230 S.O2  200  K54200      0.0631
     14  O9        17.3900   31.2780   14.0620 O.2   200  K54200     -0.1528
     15  O10       18.6560   33.2300   13.6080 O.2   200  K54200     -0.1528
     16  N11       19.4470   31.7200   15.3430 N.3   200  K54200     -0.1529
     17  C12       20.2360   32.7120   16.1070 C.3   200  K54200      0.0958
     18  C13       21.7200   32.3390   16.1580 C.3   200  K54200      0.0178
     19  C14       22.3410   32.3060   14.7600 C.3   200  K54200      0.0015
     20  C15       22.4860   33.3390   17.0230 C.3   200  K54200      0.0015
     21  C16       19.1710   30.4610   16.0820 C.3   200  K54200      0.1304
     22  C17       20.0280   29.3320   15.4910 C.3   200  K54200      0.1897
     23  O18       19.9190   28.1470   16.2920 O.3   200  K54200     -0.2197
     24  C19       19.6380   29.0260   14.0520 C.3   200  K54200      0.1314
     25  N20       20.6420   28.1690   13.4270 N.am  200  K54200     -0.2011
     26  C21       21.3630   28.5920   12.3780 C.2   200  K54200      0.2836
     27  O22       21.3250   29.7190   11.9120 O.2   200  K54200     -0.2694
     28  N24       22.2050   26.0160   10.0570 N.am  200  K54200     -0.2208
     29  C25       21.8990   27.4400   10.2560 C.3   200  K54200      0.1547
     30  C26       22.1730   25.3430   11.2870 C.2   200  K54200      0.4092
     31  O27       22.1900   24.1320   11.4400 O.2   200  K54200     -0.2258
     32  O28       22.1560   26.3150   12.3560 O.3   200  K54200     -0.4267
     33  C29       22.2830   27.6100   11.7430 C.3   200  K54200      0.2673
     34  C32       18.3250   28.2290   13.9150 C.3   200  K54200      0.0506
     35  C33       18.2740   26.5180   12.0560 C.ar  200  K54200     -0.0042
     36  C34       18.0720   26.1710   10.7220 C.ar  200  K54200     -0.0003
     37  C35       17.6910   27.1260    9.7910 C.ar  200  K54200     -0.0000
     38  C36       17.5070   28.4410   10.2000 C.ar  200  K54200     -0.0003
     39  C37       17.7050   28.7940   11.5380 C.ar  200  K54200     -0.0042
     40  C38       18.0880   27.8380   12.4660 C.ar  200  K54200     -0.0204
     41  C40       21.8720   23.6040    6.6570 C.ar  200  K54200      0.0000
     42  C41       23.1140   23.9600    7.1760 C.ar  200  K54200      0.0051
     43  C42       23.2020   24.7720    8.3130 C.ar  200  K54200      0.0852
     44  C43       22.0380   25.2160    8.9140 C.ar  200  K54200      0.0610
     45  C44       20.7920   24.8620    8.4020 C.ar  200  K54200      0.0150
     46  C45       20.7020   24.0540    7.2620 C.ar  200  K54200      0.0013
     47  C46       24.5260   25.1750    8.8910 C.3   200  K54200      0.4197
@<TRIPOS>BOND
     1    41    42   ar
     2    41    46   ar
     3    42    43   ar
     4    46    45   ar
     5     8    47    1
     6    43    47    1
     7    43    44   ar
     8    45    44   ar
     9    47     2    1
    10    47     6    1
    11    44    28    1
    12    37    38   ar
    13    37    36   ar
    14    28    29    1
    15    28    30   am
    16    38    39   ar
    17    29    33    1
    18    36    35   ar
    19    30    31    2
    20    30    32    1
    21    39    40   ar
    22    33    32    1
    23    33    26    1
    24    27    26    2
    25    35    40   ar
    26    26    25   am
    27    40    34    1
    28    25    24    1
    29    15    13    2
    30    34    24    1
    31    24    22    1
    32    14    13    2
    33    13    16    1
    34    13    10    1
    35    19    18    1
    36    16    21    1
    37    16    17    1
    38    22    21    1
    39    22    23    1
    40    10     9    1
    41    10    11    2
    42     9     7    2
    43    17    18    1
    44    18    20    1
    45    11    12    1
    46     7     4    1
    47     7     5    1
    48     4     1    1
    49    12     5    1
    50     5     3    2
    51     1     3    1
