@<TRIPOS>MOLECULE
3mxf_JQ1_A_1.pdb
 31 34 0 0 0
SMALL
GASTEIGER

@<TRIPOS>ATOM
      1  CAA       29.8990   18.9620    1.7240 C.3     1  JQ11        0.0742
      2  CAB       25.2040   15.1160    1.3930 C.3     1  JQ11        0.0379
      3  CAC       25.6820   14.9300   -1.6940 C.3     1  JQ11        0.0313
      4  CAD       29.2330   13.1180   -5.4650 C.3     1  JQ11        0.0437
      5  CAE       30.6490   11.1240   -4.6870 C.3     1  JQ11        0.0437
      6  CAF       28.5430   11.7420   -3.5100 C.3     1  JQ11        0.0437
      7  OAG       32.1090   13.8640   -4.7140 O.2     1  JQ11       -0.2500
      8 CLAH       24.8240   18.4760   -6.7700 Cl      1  JQ11       -0.0822
      9  CAI       25.5320   17.9640   -4.2190 C.ar    1  JQ11        0.0114
     10  CAJ       27.0320   17.1100   -5.8680 C.ar    1  JQ11        0.0114
     11  CAK       26.3510   17.4470   -3.2100 C.ar    1  JQ11        0.0023
     12  CAL       27.8570   16.6090   -4.8670 C.ar    1  JQ11        0.0023
     13  CAM       31.8980   14.9640   -2.5760 C.3     1  JQ11        0.1415
     14  NAN       29.6620   16.0420   -2.8280 N.2     1  JQ11       -0.2640
     15  NAO       31.8170   18.1280    0.2830 N.ar    1  JQ11       -0.1332
     16  NAP       32.0440   17.2500   -0.6250 N.ar    1  JQ11       -0.1313
     17  OAQ       30.4000   13.2470   -3.3840 O.3     1  JQ11       -0.4557
     18  SAR       27.8100   16.3310    1.4560 S.2     1  JQ11       -0.0740
     19  CAS       31.4750   13.9720   -3.6650 C.2     1  JQ11        0.3192
     20  CAT       28.3750   16.2200   -2.4890 C.2     1  JQ11        0.0780
     21  CAU       25.8800   17.8220   -5.5420 C.ar    1  JQ11        0.0577
     22  CAV       30.5340   18.0500    0.6710 C.ar    1  JQ11        0.1477
     23  CAW       27.5220   16.7650   -3.5120 C.ar    1  JQ11        0.0174
     24  CAX       26.4600   15.6250    0.6460 C.ar    1  JQ11        0.0051
     25  CAY       26.6960   15.5570   -0.7220 C.ar    1  JQ11       -0.0165
     26  CAZ       30.8940   16.5810   -0.8330 C.ar    1  JQ11        0.1702
     27  CBA       27.9310   16.1250   -1.1370 C.ar    1  JQ11        0.0359
     28  CBB       28.6600   16.6020   -0.0300 C.ar    1  JQ11        0.0970
     29  CBC       30.6460   15.4630   -1.8660 C.3     1  JQ11        0.1727
     30  NBD       29.9320   17.0880   -0.0610 N.ar    1  JQ11       -0.2736
     31  CBE       29.7310   12.3020   -4.2990 C.3     1  JQ11        0.1363
@<TRIPOS>BOND
     1     8    21    1
     2    10    21   ar
     3    10    12   ar
     4    21     9   ar
     5     4    31    1
     6    12    23   ar
     7     7    19    2
     8     5    31    1
     9    31     6    1
    10    31    17    1
    11     9    11   ar
    12    19    17    1
    13    19    13    1
    14    23    11   ar
    15    23    20    1
    16    14    20    2
    17    14    29    1
    18    13    29    1
    19    20    27    1
    20    29    26    1
    21     3    25    1
    22    27    25   ar
    23    27    28   ar
    24    26    16   ar
    25    26    30   ar
    26    25    24   ar
    27    16    15   ar
    28    30    28    1
    29    30    22   ar
    30    28    18   ar
    31    15    22   ar
    32    24     2    1
    33    24    18   ar
    34    22     1    1
