@<TRIPOS>MOLECULE
3mxg_XLS_A_1.pdb
 10 9 0 0 0
SMALL
GASTEIGER

@<TRIPOS>ATOM
      1  C1         7.5140   53.4600  -19.1060 C.3    71  XLS71       0.2175
      2  C2         7.7040   54.7430  -18.3120 C.3    71  XLS71       0.2175
      3  C3         7.9090   54.4620  -16.8080 C.3    71  XLS71       0.2175
      4  C4         8.2900   55.6550  -15.9130 C.3    71  XLS71       0.2175
      5  C5         8.1260   55.4500  -14.3850 C.3    71  XLS71       0.2175
      6  O1         7.1800   53.5310  -20.4780 O.3    71  XLS71      -0.2175
      7  O2         8.8030   55.4400  -18.8590 O.3    71  XLS71      -0.2175
      8  O3         8.9280   53.4880  -16.7320 O.3    71  XLS71      -0.2175
      9  O4         9.6520   55.9410  -16.1670 O.3    71  XLS71      -0.2175
     10  O5         8.9350   56.3580  -13.6740 O.3    71  XLS71      -0.2175
@<TRIPOS>BOND
     1     6     1    1
     2     1     2    1
     3     7     2    1
     4     2     3    1
     5     3     8    1
     6     3     4    1
     7     9     4    1
     8     4     5    1
     9     5    10    1
