@<TRIPOS>MOLECULE
3mxp_THP_A_1.pdb
 25 26 0 0 0
SMALL
GASTEIGER

@<TRIPOS>ATOM
      1  P2        17.9770   11.2980    4.6530 P.3   150  THP150      0.5327
      2  O4P       16.7590   12.0750    5.1350 O.3   150  THP150     -0.1145
      3  O5P       17.9720    9.7320    5.0060 O.2   150  THP150     -0.2224
      4  O6P       19.2890   12.0680    5.1190 O.3   150  THP150     -0.1145
      5  P1        21.1830   14.7050    0.7720 P.3   150  THP150      0.5326
      6  O1P       21.8910   13.6430    1.5900 O.3   150  THP150     -0.1145
      7  O2P       22.2200   15.3260   -0.2710 O.2   150  THP150     -0.2224
      8  O3P       20.5290   15.7320    1.7920 O.3   150  THP150     -0.1145
      9  O5'       17.9730   11.2800    3.1150 O.3   150  THP150     -0.2675
     10  C5'       18.0030   12.5680    2.4280 C.3   150  THP150      0.1857
     11  C4'       18.9380   12.4470    1.2220 C.3   150  THP150      0.1748
     12  O4'       18.5500   11.3710    0.3580 O.3   150  THP150     -0.3340
     13  C3'       18.8730   13.7090    0.3090 C.3   150  THP150      0.1600
     14  O3'       20.1400   14.0560   -0.2860 O.3   150  THP150     -0.2700
     15  C2'       17.9080   13.2510   -0.8140 C.3   150  THP150      0.0847
     16  C1'       18.2030   11.7290   -0.9550 C.3   150  THP150      0.2089
     17  N1        16.9050   11.1050   -1.3050 N.am  150  THP150     -0.1794
     18  C2        16.6180   10.8910   -2.6130 C.1   150  THP150      0.2844
     19  O2        17.4190   11.1540   -3.5160 O.2   150  THP150     -0.1918
     20  N3        15.4290   10.3680   -2.9870 N.2   150  THP150     -0.2455
     21  C4        14.4700   10.0990   -2.0690 C.1   150  THP150      0.2134
     22  O4        13.3940    9.6710   -2.4680 O.2   150  THP150     -0.2088
     23  C5        14.7290   10.3090   -0.7000 C.2   150  THP150      0.0891
     24  C5M       13.6770    9.9730    0.3810 C.3   150  THP150      0.0462
     25  C6        15.9690   10.7900   -0.3360 C.2   150  THP150      0.0877
@<TRIPOS>BOND
     1    19    18    2
     2    20    18    2
     3    20    21    2
     4    18    17   am
     5    22    21    2
     6    21    23    1
     7    17    16    1
     8    17    25    1
     9    16    15    1
    10    16    12    1
    11    15    13    1
    12    23    25    2
    13    23    24    1
    14    14    13    1
    15    14     5    1
    16     7     5    2
    17    13    11    1
    18    12    11    1
    19     5     6    1
    20     5     8    1
    21    11    10    1
    22    10     9    1
    23     9     1    1
    24     1     3    2
    25     1     4    1
    26     1     2    1
