@<TRIPOS>MOLECULE
3mxr_MA4_A_1.pdb
 35 37 0 0 0
SMALL
GASTEIGER

@<TRIPOS>ATOM
      1  C1        60.2120   53.3660    1.5050 C.3   400  MA4400      0.2695
      2  C2        60.6350   52.6140    0.2520 C.3   400  MA4400      0.2406
      3  C3        60.3380   51.1150    0.3540 C.3   400  MA4400      0.2198
      4  C4        60.8230   50.5320    1.6780 C.3   400  MA4400      0.2144
      5  C5        60.4030   51.3890    2.8730 C.3   400  MA4400      0.1835
      6  C6        61.0050   50.8880    4.1830 C.3   400  MA4400      0.2142
      7  O2        59.9380   53.1730   -0.8560 O.3   400  MA4400     -0.2149
      8  O3        61.0040   50.4570   -0.7260 O.3   400  MA4400     -0.2174
      9  O5        60.7930   52.7620    2.6560 O.3   400  MA4400     -0.3256
     10  O6        62.4310   50.9220    4.0520 O.3   400  MA4400     -0.2176
     11  O1        58.8020   53.2480    1.6190 O.3   400  MA4400     -0.3257
     12  O4        60.3250   49.2180    1.9040 O.3   400  MA4400     -0.2176
     13  C10       55.5830   55.6820    2.2090 C.3   400  MA4400      0.2695
     14  C20       56.3430   55.9330    0.9270 C.3   400  MA4400      0.2404
     15  C30       57.2020   54.7130    0.6720 C.3   400  MA4400      0.2167
     16  C40       58.1330   54.4770    1.8530 C.3   400  MA4400      0.1804
     17  C50       57.3490   54.3800    3.1580 C.3   400  MA4400      0.1803
     18  C60       58.2390   54.3340    4.3870 C.3   400  MA4400      0.2141
     19  O10       54.8130   56.8540    2.4590 O.3   400  MA4400     -0.3286
     20  O20       55.4130   56.1350   -0.1280 O.3   400  MA4400     -0.2149
     21  O30       57.9680   54.9660   -0.5140 O.3   400  MA4400     -0.2175
     22  O50       56.5180   55.5470    3.2680 O.3   400  MA4400     -0.3257
     23  O60       59.1400   55.4560    4.3690 O.3   400  MA4400     -0.2176
     24  C11       53.8270   56.6630    3.4710 C.3   400  MA4400      0.1449
     25  C21       52.4990   56.2590    2.8520 C.3   400  MA4400      0.0322
     26  C31       51.5270   55.9160    3.9690 C.3   400  MA4400      0.0026
     27  C41       50.1210   55.8150    3.3850 C.3   400  MA4400      0.0001
     28  C51       49.0240   56.1910    4.3760 C.3   400  MA4400      0.0000
     29  C61       49.0640   55.2640    5.5870 C.3   400  MA4400      0.0000
     30  C12       47.7280   55.0340    6.2780 C.3   400  MA4400      0.0000
     31  C22       47.6650   55.9560    7.5120 C.3   400  MA4400      0.0000
     32  C32       47.0930   55.3540    8.7920 C.3   400  MA4400      0.0000
     33  C42       47.6510   53.9480    8.9670 C.3   400  MA4400      0.0000
     34  C52       47.0820   53.0920    7.8570 C.3   400  MA4400      0.0000
     35  C62       47.6870   53.5210    6.5390 C.3   400  MA4400      0.0000
@<TRIPOS>BOND
     1     7     2    1
     2     8     3    1
     3    21    15    1
     4    20    14    1
     5     2     3    1
     6     2     1    1
     7     3     4    1
     8    15    14    1
     9    15    16    1
    10    14    13    1
    11     1    11    1
    12     1     9    1
    13    11    16    1
    14     4    12    1
    15     4     5    1
    16    16    17    1
    17    13    19    1
    18    13    22    1
    19    19    24    1
    20     9     5    1
    21    25    24    1
    22    25    26    1
    23     5     6    1
    24    17    22    1
    25    17    18    1
    26    27    26    1
    27    27    28    1
    28    10     6    1
    29    23    18    1
    30    28    29    1
    31    29    30    1
    32    30    35    1
    33    30    31    1
    34    35    34    1
    35    31    32    1
    36    34    33    1
    37    32    33    1
