@<TRIPOS>MOLECULE
3mxr_CZ8_A_1.pdb
 30 31 0 0 0
SMALL
GASTEIGER

@<TRIPOS>ATOM
      1  C         31.3490   65.1880    4.2150 C.2     1  CZ81        0.0000
      2  N         30.8650   67.4840    4.6650 N.am    1  CZ81        0.0000
      3  O         30.2930   65.0440    3.5910 O.2     1  CZ81        0.0000
      4  CA        31.9610   66.5550    4.4240 C.3     1  CZ81        0.0000
      5  CB        32.6990   66.9890    3.1650 C.3     1  CZ81        0.0000
      6  CAA       25.3360   71.7750    6.7960 C.3     1  CZ81        0.0000
      7  OAC       32.1170   68.6760    6.1150 O.2     1  CZ81        0.0000
      8  OAD       27.3220   71.0590    4.0870 O.2     1  CZ81        0.0000
      9  OAE       28.8740   68.9130    3.7460 O.2     1  CZ81        0.0000
     10  OAF       36.8960   68.2960   -1.4000 O.3     1  CZ81        0.0000
     11  OAG       33.5680   62.3080    6.2290 O.3     1  CZ81        0.0000
     12  OAH       31.2640   62.2360    7.1530 O.3     1  CZ81        0.0000
     13  CAI       35.0500   67.0650   -0.5300 C.ar    1  CZ81        0.0000
     14  CAJ       36.6580   68.0770    0.9640 C.ar    1  CZ81        0.0000
     15  CAK       34.3470   66.5680    0.5640 C.ar    1  CZ81        0.0000
     16  CAL       35.9530   67.5820    2.0610 C.ar    1  CZ81        0.0000
     17  CAM       26.2720   70.5900    6.6750 C.3     1  CZ81        0.0000
     18  CAN       34.0480   66.2930    3.0550 C.3     1  CZ81        0.0000
     19  CAP       31.5540   62.7460    4.6330 C.3     1  CZ81        0.0000
     20  CAQ       28.5460   70.6520    7.3530 C.3     1  CZ81        0.0000
     21  CAR       29.8960   70.0270    7.0240 C.3     1  CZ81        0.0000
     22  NAS       31.9790   64.1370    4.7210 N.am    1  CZ81        0.0000
     23  CAV       31.0490   68.5030    5.5240 C.2     1  CZ81        0.0000
     24  CAW       27.9200   70.5830    5.0470 C.2     1  CZ81        0.0000
     25  CAX       28.9430   69.5600    4.7820 C.2     1  CZ81        0.0000
     26  BAY       32.1160   61.9530    5.9080 B       1  CZ81        0.0000
     27  CAY       36.2050   67.8160   -0.3280 C.ar    1  CZ81        0.0000
     28  CAZ       34.8000   66.8300    1.8580 C.ar    1  CZ81        0.0000
     29  NBC       27.6130   71.0190    6.2860 N.am    1  CZ81        0.0000
     30  NBD       30.0110   69.3330    5.7520 N.am    1  CZ81        0.0000
@<TRIPOS>BOND
     1    10    27    1
     2    13    27   ar
     3    13    15   ar
     4    27    14   ar
     5    15    28   ar
     6    14    16   ar
     7    28    16   ar
     8    28    18    1
     9    18     5    1
    10     5     4    1
    11     3     1    2
    12     9    25    2
    13     8    24    2
    14     1     4    1
    15     1    22   am
    16     4     2    1
    17    19    22    1
    18    19    26    1
    19     2    23   am
    20    25    24    1
    21    25    30   am
    22    24    29   am
    23    23    30   am
    24    23     7    2
    25    30    21    1
    26    26    11    1
    27    26    12    1
    28    29    17    1
    29    29    20    1
    30    17     6    1
    31    21    20    1
