@<TRIPOS>MOLECULE
3mxs_CZ9_A_1.pdb
 29 30 0 0 0
SMALL
GASTEIGER

@<TRIPOS>ATOM
      1  C         31.5280   65.0120    4.1970 C.2     1  CZ91        0.0000
      2  N         30.8850   67.3070    4.4090 N.am    1  CZ91        0.0000
      3  O         30.5260   64.8240    3.5160 O.2     1  CZ91        0.0000
      4  CA        32.0540   66.4090    4.3980 C.3     1  CZ91        0.0000
      5  CB        33.0400   66.7370    3.2790 C.3     1  CZ91        0.0000
      6  CG        33.4740   68.1760    3.4500 C.ar    1  CZ91        0.0000
      7  OH        34.5980   72.1340    3.9600 O.3     1  CZ91        0.0000
      8  CZ        34.2320   70.8320    3.8020 C.ar    1  CZ91        0.0000
      9  CAA       26.4550   73.3100    4.7440 C.3     1  CZ91        0.0000
     10  OAC       31.7970   68.4670    6.0990 O.2     1  CZ91        0.0000
     11  OAD       27.1370   70.4750    3.0160 O.2     1  CZ91        0.0000
     12  OAE       28.9900   68.5160    3.1430 O.2     1  CZ91        0.0000
     13  OAG       31.3520   62.0290    7.1900 O.3     1  CZ91        0.0000
     14  OAH       33.7490   62.2190    6.2180 O.3     1  CZ91        0.0000
     15  CAM       26.4250   71.8730    5.2240 C.3     1  CZ91        0.0000
     16  CAN       31.6930   62.6570    4.6640 C.3     1  CZ91        0.0000
     17  CAO       28.0160   70.5060    6.3510 C.3     1  CZ91        0.0000
     18  CAP       29.4190   69.8820    6.3920 C.3     1  CZ91        0.0000
     19  NAR       32.1840   64.0260    4.8170 N.am    1  CZ91        0.0000
     20  CAU       30.9340   68.3720    5.2320 C.2     1  CZ91        0.0000
     21  CAV       27.8810   70.3990    3.9830 C.2     1  CZ91        0.0000
     22  CAW       28.9720   69.3730    4.0140 C.2     1  CZ91        0.0000
     23  BAY       32.2700   61.8750    5.9640 B       1  CZ91        0.0000
     24  NBB       27.7600   71.2830    5.1390 N.am    1  CZ91        0.0000
     25  NBC       29.9690   69.4730    5.0910 N.am    1  CZ91        0.0000
     26  CD1       34.5490   68.4900    4.2950 C.ar    1  CZ91        0.0000
     27  CD2       32.7740   69.1910    2.7830 C.ar    1  CZ91        0.0000
     28  CE1       34.9370   69.8240    4.4640 C.ar    1  CZ91        0.0000
     29  CE2       33.1560   70.5210    2.9650 C.ar    1  CZ91        0.0000
@<TRIPOS>BOND
     1    27    29   ar
     2    27     6   ar
     3    29     8   ar
     4    11    21    2
     5    12    22    2
     6     5     6    1
     7     5     4    1
     8     6    26   ar
     9     3     1    2
    10     8     7    1
    11     8    28   ar
    12    21    22    1
    13    21    24   am
    14    22    25   am
    15     1     4    1
    16     1    19   am
    17    26    28   ar
    18     4     2    1
    19     2    20   am
    20    16    19    1
    21    16    23    1
    22     9    15    1
    23    25    20   am
    24    25    18    1
    25    24    15    1
    26    24    17    1
    27    20    10    2
    28    23    14    1
    29    23    13    1
    30    17    18    1
