@<TRIPOS>MOLECULE
3mxs_MA4_A_1.pdb
 35 37 0 0 0
SMALL
GASTEIGER

@<TRIPOS>ATOM
      1  C1        60.4490   53.2270    1.5820 C.3   400  MA4400      0.2695
      2  C2        60.8880   52.4960    0.3250 C.3   400  MA4400      0.2406
      3  C3        60.5990   50.9830    0.4360 C.3   400  MA4400      0.2198
      4  C4        61.0530   50.3680    1.7440 C.3   400  MA4400      0.2144
      5  C5        60.6110   51.2340    2.9290 C.3   400  MA4400      0.1835
      6  C6        61.1780   50.7460    4.2570 C.3   400  MA4400      0.2142
      7  O2        60.2110   53.0250   -0.8100 O.3   400  MA4400     -0.2149
      8  O3        61.2650   50.3110   -0.6450 O.3   400  MA4400     -0.2174
      9  O5        61.0120   52.6040    2.7220 O.3   400  MA4400     -0.3256
     10  O6        62.6160   50.7390    4.1630 O.3   400  MA4400     -0.2176
     11  O1        59.0320   53.0960    1.6960 O.3   400  MA4400     -0.3257
     12  O4        60.5440   49.0350    1.9420 O.3   400  MA4400     -0.2176
     13  C10       55.8510   55.5450    2.3140 C.3   400  MA4400      0.2695
     14  C20       56.5990   55.7880    1.0170 C.3   400  MA4400      0.2404
     15  C30       57.4720   54.5800    0.7520 C.3   400  MA4400      0.2167
     16  C40       58.3790   54.3310    1.9450 C.3   400  MA4400      0.1804
     17  C50       57.5810   54.2050    3.2330 C.3   400  MA4400      0.1803
     18  C60       58.4760   54.1460    4.4540 C.3   400  MA4400      0.2141
     19  O10       55.0560   56.6990    2.5840 O.3   400  MA4400     -0.3286
     20  O20       55.7090   56.0640   -0.0710 O.3   400  MA4400     -0.2149
     21  O30       58.2470   54.8510   -0.4140 O.3   400  MA4400     -0.2175
     22  O50       56.7750   55.3850    3.3860 O.3   400  MA4400     -0.3257
     23  O60       59.3350   55.3000    4.4310 O.3   400  MA4400     -0.2176
     24  C11       54.0980   56.4230    3.6080 C.3   400  MA4400      0.1449
     25  C21       52.7640   56.0410    2.9830 C.3   400  MA4400      0.0322
     26  C31       51.7770   55.6440    4.0700 C.3   400  MA4400      0.0026
     27  C41       50.3960   55.3450    3.4820 C.3   400  MA4400      0.0001
     28  C51       49.2090   55.7410    4.3690 C.3   400  MA4400      0.0000
     29  C61       49.2720   55.0800    5.7410 C.3   400  MA4400      0.0000
     30  C12       47.9280   54.8790    6.4310 C.3   400  MA4400      0.0000
     31  C22       47.8630   55.8630    7.6160 C.3   400  MA4400      0.0000
     32  C32       47.2420   55.3720    8.9210 C.3   400  MA4400      0.0000
     33  C42       46.3820   54.1390    8.7230 C.3   400  MA4400      0.0000
     34  C52       47.2350   53.0270    8.1240 C.3   400  MA4400      0.0000
     35  C62       47.8350   53.3870    6.7720 C.3   400  MA4400      0.0000
@<TRIPOS>BOND
     1     7     2    1
     2     8     3    1
     3    21    15    1
     4    20    14    1
     5     2     3    1
     6     2     1    1
     7     3     4    1
     8    15    14    1
     9    15    16    1
    10    14    13    1
    11     1    11    1
    12     1     9    1
    13    11    16    1
    14     4    12    1
    15     4     5    1
    16    16    17    1
    17    13    19    1
    18    13    22    1
    19    19    24    1
    20     9     5    1
    21     5     6    1
    22    25    24    1
    23    25    26    1
    24    17    22    1
    25    17    18    1
    26    27    26    1
    27    27    28    1
    28    10     6    1
    29    28    29    1
    30    23    18    1
    31    29    30    1
    32    30    35    1
    33    30    31    1
    34    35    34    1
    35    31    32    1
    36    34    33    1
    37    33    32    1
