@<TRIPOS>MOLECULE
3my0_LDN_A_1.pdb
 31 36 0 0 0
SMALL
GASTEIGER

@<TRIPOS>ATOM
      1  CAA       54.9850  -51.6480  -26.5420 C.2   600  LDN600     -0.0240
      2  CAB       55.8620  -51.8420  -27.5820 C.2   600  LDN600     -0.0256
      3  CAC       58.5290  -51.9760  -23.4230 C.ar  600  LDN600      0.0984
      4  CAD       59.4700  -52.1840  -24.4240 C.ar  600  LDN600      0.0206
      5  CAE       60.9320  -49.2340  -32.2810 C.ar  600  LDN600      0.0012
      6  CAF       63.0490  -50.2730  -31.7490 C.ar  600  LDN600      0.0012
      7  CAG       61.4850  -48.7280  -33.4490 C.ar  600  LDN600      0.0145
      8  CAH       63.5910  -49.7750  -32.9280 C.ar  600  LDN600      0.0145
      9  CAI       55.4730  -51.6470  -25.2460 C.3   600  LDN600      0.0711
     10  CAJ       57.2150  -52.0280  -27.3420 C.3   600  LDN600      0.0532
     11  CAK       60.1390  -49.9290  -29.5210 C.2   600  LDN600      0.2355
     12  CAL       60.8870  -53.4220  -26.8270 C.2   600  LDN600      0.1363
     13  CAM       61.7700  -51.6950  -29.7290 C.3   600  LDN600      0.2600
     14  CAN       64.1780  -49.8010  -36.9450 C.3   600  LDN600      0.1101
     15  CAO       62.2980  -48.2610  -37.0530 C.3   600  LDN600      0.1101
     16  CAP       64.5440  -49.2600  -35.5670 C.3   600  LDN600      0.1096
     17  CAQ       62.6850  -47.5160  -35.7900 C.3   600  LDN600      0.1096
     18  NAR       57.2510  -51.8130  -23.7230 N.ar  600  LDN600     -0.2481
     19  NAS       59.6920  -50.4830  -28.3830 N.2   600  LDN600     -0.0344
     20  NAT       61.6420  -53.2730  -27.9220 N.pl3 600  LDN600     -0.0549
     21  NAU       63.5280  -48.7320  -37.7230 N.3   600  LDN600     -0.2144
     22  CAV       61.7160  -50.0010  -31.4090 C.ar  600  LDN600      0.0038
     23  CAW       61.1990  -50.5190  -30.2150 C.2   600  LDN600      0.0732
     24  CAX       62.8140  -48.9960  -33.7730 C.ar  600  LDN600      0.0479
     25  CAY       59.0550  -52.2120  -25.7670 C.ar  600  LDN600      0.0077
     26  CAZ       60.0110  -52.4260  -26.7670 C.2   600  LDN600      0.1041
     27  CBA       56.8220  -51.8340  -24.9860 C.ar  600  LDN600      0.0597
     28  CBB       57.6990  -52.0290  -26.0410 C.ar  600  LDN600     -0.0036
     29  CBC       60.2440  -51.6200  -27.8690 C.2   600  LDN600      0.3475
     30  NBD       63.3670  -48.5380  -34.9810 N.pl3 600  LDN600     -0.3045
     31  NBE       61.3030  -52.2630  -28.5410 N.pl3 600  LDN600     -0.0803
@<TRIPOS>BOND
     1    21    15    1
     2    21    14    1
     3    15    17    1
     4    14    16    1
     5    17    30    1
     6    16    30    1
     7    30    24    1
     8    24     7   ar
     9    24     8   ar
    10     7     5   ar
    11     8     6   ar
    12     5    22   ar
    13     6    22   ar
    14    22    23    1
    15    23    13    1
    16    23    11    2
    17    13    31    1
    18    11    19    1
    19    31    20    1
    20    31    29    1
    21    19    29    2
    22    20    12    1
    23    29    26    1
    24     2    10    1
    25     2     1    2
    26    10    28    1
    27    12    26    2
    28    26    25    1
    29     1     9    1
    30    28    25   ar
    31    28    27   ar
    32    25     4   ar
    33     9    27    1
    34    27    18   ar
    35     4     3   ar
    36    18     3   ar
