@<TRIPOS>MOLECULE
3my1_RFZ_A_1.pdb
 20 22 0 0 0
SMALL
GASTEIGER

@<TRIPOS>ATOM
      1  C6        53.1390  -15.9500  -13.3010 C.2   336  RFZ336      0.0657
      2  C5        54.5040  -15.6950  -13.3430 C.2   336  RFZ336      0.0112
      3  C4        54.9450  -14.3820  -13.4510 C.3   336  RFZ336      0.1358
      4 CL2        56.7040  -14.0230  -13.5060 Cl    336  RFZ336     -0.1044
      5  C3        54.0240  -13.3480  -13.5140 C.2   336  RFZ336      0.0560
      6 CL1        54.6140  -11.6690  -13.6530 Cl    336  RFZ336     -0.0853
      7  C2        52.6630  -13.5950  -13.4720 C.2   336  RFZ336      0.0286
      8  C7        52.2270  -14.9030  -13.3670 C.2   336  RFZ336      0.0917
      9  N2        50.9970  -15.4390  -13.3040 N.2   336  RFZ336     -0.2468
     10  C1        51.1420  -16.7780  -13.2010 C.3   336  RFZ336      0.2217
     11  N1        52.4450  -17.0840  -13.2010 N.pl3 336  RFZ336     -0.2619
     12  C1'       52.9990  -18.4530  -13.1050 C.3   336  RFZ336      0.2275
     13  O4'       52.0200  -19.3610  -13.6150 O.3   336  RFZ336     -0.3325
     14  C4'       51.4640  -20.1770  -12.5790 C.3   336  RFZ336      0.1828
     15  C5'       49.9600  -19.9480  -12.5130 C.3   336  RFZ336      0.2142
     16  O5'       49.4070  -19.9950  -13.8360 O.3   336  RFZ336     -0.2176
     17  C3'       52.1580  -19.7990  -11.2750 C.3   336  RFZ336      0.2159
     18  O3'       52.6910  -20.9650  -10.6390 O.3   336  RFZ336     -0.2175
     19  C2'       53.2380  -18.7860  -11.6430 C.3   336  RFZ336      0.2309
     20  O2'       54.5720  -19.2980  -11.4800 O.3   336  RFZ336     -0.2158
@<TRIPOS>BOND
     1    16    15    1
     2     6     5    1
     3    13    12    1
     4    13    14    1
     5     5     7    2
     6     5     3    1
     7     4     3    1
     8     7     8    1
     9     3     2    1
    10     8     9    2
    11     8     1    1
    12     2     1    2
    13     9    10    1
    14     1    11    1
    15    11    10    1
    16    11    12    1
    17    12    19    1
    18    14    15    1
    19    14    17    1
    20    19    20    1
    21    19    17    1
    22    17    18    1
