@<TRIPOS>MOLECULE
3my5_RFZ_A_1.pdb
 20 22 0 0 0
SMALL
GASTEIGER

@<TRIPOS>ATOM
      1  C6        -6.3290   21.9070  -23.0760 C.2   300  RFZ300      0.0655
      2  C5        -7.1230   21.0490  -22.3340 C.2   300  RFZ300      0.0277
      3  C4        -8.4890   21.0500  -22.5670 C.2   300  RFZ300      0.0658
      4 CL2        -9.5410   19.9530  -21.6270 Cl    300  RFZ300     -0.0816
      5  C3        -9.0580   21.8860  -23.5180 C.2   300  RFZ300      0.0520
      6 CL1       -10.8360   21.8400  -23.7460 Cl    300  RFZ300     -0.0856
      7  C2        -8.2750   22.7500  -24.2710 C.3   300  RFZ300      0.0854
      8  C7        -6.9030   22.7500  -24.0350 C.2   300  RFZ300      0.0743
      9  N2        -5.9000   23.4620  -24.5890 N.2   300  RFZ300     -0.2507
     10  C1        -4.7520   23.0730  -23.9970 C.3   300  RFZ300      0.2213
     11  N1        -5.0050   22.1210  -23.0820 N.pl3 300  RFZ300     -0.2620
     12  C1'       -3.9470   21.5110  -22.2160 C.3   300  RFZ300      0.2275
     13  O4'       -3.8930   20.1210  -22.4400 O.3   300  RFZ300     -0.3325
     14  C4'       -3.3590   19.4780  -21.2400 C.3   300  RFZ300      0.1828
     15  C5'       -4.2280   18.3030  -20.8660 C.3   300  RFZ300      0.2142
     16  O5'       -3.5250   17.3680  -20.0510 O.3   300  RFZ300     -0.2176
     17  C3'       -3.2610   20.5780  -20.1760 C.3   300  RFZ300      0.2159
     18  O3'       -1.9300   21.0890  -20.1440 O.3   300  RFZ300     -0.2175
     19  C2'       -4.2030   21.6470  -20.7210 C.3   300  RFZ300      0.2309
     20  O2'       -3.9500   22.9540  -20.2530 O.3   300  RFZ300     -0.2158
@<TRIPOS>BOND
     1     9     8    2
     2     9    10    1
     3     7     8    1
     4     7     5    1
     5     8     1    1
     6    10    11    1
     7     6     5    1
     8     5     3    2
     9    11     1    1
    10    11    12    1
    11     1     2    2
    12     3     2    1
    13     3     4    1
    14    13    12    1
    15    13    14    1
    16    12    19    1
    17    14    15    1
    18    14    17    1
    19    15    16    1
    20    19    20    1
    21    19    17    1
    22    17    18    1
