@<TRIPOS>MOLECULE
3my6_MY6_A_1.pdb
 12 13 0 0 0
SMALL
GASTEIGER

@<TRIPOS>ATOM
      1  C1        21.5320    8.1170    9.7370 C.3   247  MY6247      0.0933
      2  N2        22.7140    5.0610    8.2400 N.2   247  MY6247     -0.1926
      3  C3        22.3290    6.3430    8.2090 C.3   247  MY6247      0.2142
      4  N4        21.9990    6.7270    9.4440 N.3   247  MY6247     -0.2241
      5  C5        22.1740    5.6920   10.3140 C.3   247  MY6247      0.2777
      6  C6        22.0070    5.4360   11.7290 C.1   247  MY6247      0.2219
      7  O7        21.5720    6.3930   12.6150 O.2   247  MY6247     -0.2109
      8  N8        22.3150    4.1800   12.2300 N.2   247  MY6247     -0.2515
      9  C9        22.7660    3.1500   11.4230 C.1   247  MY6247      0.2603
     10  N10       23.0550    1.9500   11.9400 N.pl3 247  MY6247     -0.0221
     11  N11       22.9250    3.3730   10.0700 N.2   247  MY6247     -0.2725
     12  C12       22.6410    4.6100    9.5040 C.1   247  MY6247      0.1063
@<TRIPOS>BOND
     1     3     2    1
     2     3     4    1
     3     2    12    2
     4     4     1    1
     5     4     5    1
     6    12    11    2
     7    12     5    1
     8    11     9    2
     9     5     6    1
    10     9    10    1
    11     9     8    2
    12     6     8    2
    13     6     7    2
