@<TRIPOS>MOLECULE
3myg_EML_A_1.pdb
 30 33 0 0 0
SMALL
GASTEIGER

@<TRIPOS>ATOM
      1  C1        -6.6090   28.8490   76.3490 C.2     1  EML1        0.0422
      2  N1        -2.8040   32.8750   78.9790 N.pl3   1  EML1       -0.1730
      3  O1        -1.9810   36.2590   84.9640 O.3     1  EML1       -0.2190
      4  S1        -2.4400   33.0800   81.7570 S.2     1  EML1        0.0295
      5  C2        -5.6390   29.7710   79.1770 C.3     1  EML1        0.1619
      6  N2        -4.0140   31.6090   76.5240 N.ar    1  EML1       -0.2216
      7  C3        -5.1610   30.3470   80.3300 C.2     1  EML1        0.1117
      8  N3        -5.1630   30.2680   77.9830 N.ar    1  EML1       -0.3018
      9  C4         1.1490   36.3440   84.0230 C.3     1  EML1        0.0725
     10  N4        -7.7370   27.2780   75.2780 N.2     1  EML1       -0.1510
     11  C5        -3.7390   31.8510   79.0280 C.2     1  EML1        0.2374
     12  N5        -8.4020   27.6320   76.3930 N.2     1  EML1       -0.1694
     13  C6        -4.2480   31.2730   77.8630 C.ar    1  EML1        0.1907
     14  N6        -1.4840   34.1490   82.3750 N.ar    1  EML1       -0.2108
     15  C7        -5.5580   29.8780   76.7210 C.ar    1  EML1        0.0803
     16  N7        -4.2480   31.3870   80.2250 N.2     1  EML1       -0.3887
     17  C8        -7.7640   28.5980   77.0850 C.3     1  EML1        0.1786
     18  N8        -0.0080   36.5430   83.1470 N.3     1  EML1       -0.2677
     19  C9        -4.8200   30.7450   75.8730 C.ar    1  EML1        0.1176
     20  C10       -6.6150   27.9960   75.2040 C.2     1  EML1        0.1209
     21  C11       -2.1950   33.4680   80.0870 C.ar    1  EML1        0.1214
     22  C12       -1.2640   34.5130   80.0930 C.ar    1  EML1        0.0414
     23  C13        0.1020   35.9410   81.7610 C.3     1  EML1        0.1194
     24  C14       -0.8930   34.8650   81.3910 C.ar    1  EML1        0.0848
     25  C15       -0.8090   37.7650   83.3870 C.3     1  EML1        0.0764
     26  C16        1.9300   35.0620   84.0150 C.3     1  EML1        0.0188
     27  C17       -1.7150   37.6350   84.6330 C.3     1  EML1        0.1965
     28  C18       -1.8400   38.0430   82.3480 C.3     1  EML1        0.0187
     29  C19       -5.5830   29.8750   81.6780 C.3     1  EML1        0.0636
     30  C20        0.0680   39.0490   83.4020 C.3     1  EML1        0.0187
@<TRIPOS>BOND
     1    20    10    1
     2    20     1    2
     3    10    12    2
     4    19     6   ar
     5    19    15   ar
     6     1    15    1
     7     1    17    1
     8    12    17    1
     9     6    13   ar
    10    15     8   ar
    11    13     8   ar
    12    13    11    1
    13     8     5    1
    14     2    11    1
    15     2    21    1
    16    11    16    2
    17     5     7    1
    18    21    22   ar
    19    21     4   ar
    20    22    24   ar
    21    16     7    2
    22     7    29    1
    23    24    23    1
    24    24    14   ar
    25     4    14   ar
    26    23    18    1
    27    28    25    1
    28    18    25    1
    29    18     9    1
    30    25    30    1
    31    25    27    1
    32    26     9    1
    33    27     3    1
