@<TRIPOS>MOLECULE
3myh_ADP_X_1.pdb
 27 29 0 0 0
SMALL
GASTEIGER

@<TRIPOS>ATOM
      1  PB        24.0130  -33.8050   25.7950 P.3   999  ADP999      0.5373
      2  O1B       22.8290  -33.0110   26.3050 O.3   999  ADP999     -0.1143
      3  O2B       23.8770  -35.2210   25.3720 O.2   999  ADP999     -0.2221
      4  O3B       25.2530  -33.7310   26.7000 O.3   999  ADP999     -0.1143
      5  PA        23.8120  -31.9060   23.5890 P.3   999  ADP999      0.2231
      6  O1A       22.4180  -32.2550   23.1600 O.2   999  ADP999     -0.5169
      7  O2A       24.0230  -30.5970   24.3360 O.3   999  ADP999     -0.4370
      8  O3A       24.5670  -33.0260   24.4500 O.3   999  ADP999     -0.2261
      9  O5'       24.7830  -31.8060   22.3040 O.3   999  ADP999     -0.3111
     10  C5'       26.1020  -31.2630   22.3700 C.3   999  ADP999      0.1813
     11  C4'       26.3110  -30.3660   21.1290 C.3   999  ADP999      0.1821
     12  O4'       26.2650  -31.2590   19.9620 O.3   999  ADP999     -0.3135
     13  C3'       25.1820  -29.3850   20.9020 C.3   999  ADP999      0.2184
     14  O3'       25.3640  -28.1130   21.5530 O.3   999  ADP999     -0.2174
     15  C2'       25.1460  -29.1730   19.4040 C.3   999  ADP999      0.2570
     16  O2'       26.3100  -28.3930   19.0480 O.3   999  ADP999     -0.2130
     17  C1'       25.5580  -30.5440   18.9090 C.3   999  ADP999      0.3186
     18  N9        24.3730  -31.3430   18.5170 N.pl3 999  ADP999     -0.1439
     19  C8        23.8520  -32.3920   19.1670 C.3   999  ADP999      0.3377
     20  N7        22.7900  -32.9180   18.5050 N.2   999  ADP999     -0.2095
     21  C5        22.6600  -32.1870   17.3870 C.2   999  ADP999      0.2526
     22  C6        21.7860  -32.1480   16.1950 C.2   999  ADP999      0.4393
     23  N6        20.7910  -33.0450   16.0190 N.pl3 999  ADP999      0.2180
     24  N1        21.9820  -31.1500   15.2980 N.2   999  ADP999      0.0021
     25  C2        22.9570  -30.2670   15.3680 C.3   999  ADP999      0.5254
     26  N3        23.8020  -30.2710   16.3910 N.2   999  ADP999     -0.0055
     27  C4        23.6890  -31.1520   17.4140 C.2   999  ADP999      0.3518
@<TRIPOS>BOND
     1    24    25    1
     2    24    22    2
     3    25    26    1
     4    23    22    1
     5    22    21    1
     6    26    27    2
     7    21    27    1
     8    21    20    2
     9    27    18    1
    10    20    19    1
    11    18    17    1
    12    18    19    1
    13    17    15    1
    14    17    12    1
    15    16    15    1
    16    15    13    1
    17    12    11    1
    18    13    11    1
    19    13    14    1
    20    11    10    1
    21     9    10    1
    22     9     5    1
    23     6     5    2
    24     5     7    1
    25     5     8    1
    26     8     1    1
    27     3     1    2
    28     1     2    1
    29     1     4    1
