@<TRIPOS>MOLECULE
3myh_BIT_X_1.pdb
 22 25 0 0 0
SMALL
GASTEIGER

@<TRIPOS>ATOM
      1  O2        20.9210  -35.7100   36.1480 O.2   800  BIT800     -0.2882
      2  C4        20.9160  -35.5190   37.3460 C.2   800  BIT800      0.2103
      3  C5        20.0480  -36.2330   38.2270 C.2   800  BIT800      0.0632
      4  C6        18.9290  -36.9560   37.7720 C.2   800  BIT800     -0.0166
      5  C7        18.0750  -37.5670   38.7230 C.3   800  BIT800      0.0442
      6  C18       16.8940  -38.3920   38.2190 C.3   800  BIT800      0.0094
      7  C8        18.3130  -37.4920   40.1300 C.2   800  BIT800     -0.0195
      8  C10       20.2440  -36.1000   39.6090 C.2   800  BIT800      0.1349
      9  C9        19.4390  -36.7370   40.5460 C.2   800  BIT800      0.0279
     10  C3        21.7330  -34.3080   37.9620 C.3   800  BIT800      0.2413
     11  C11       22.2670  -34.6900   39.3440 C.2   800  BIT800      0.1986
     12  N2        21.3370  -35.3880   40.1200 N.2   800  BIT800     -0.3881
     13  O1        20.7560  -33.2370   38.1410 O.3   800  BIT800     -0.2090
     14  C2        23.0160  -33.8430   37.2850 C.3   800  BIT800      0.0682
     15  C1        23.7560  -33.1200   38.4320 C.3   800  BIT800      0.1012
     16  N1        23.3740  -33.9580   39.6300 N.pl3 800  BIT800     -0.2637
     17  C12       23.9410  -33.7260   40.9270 C.ar  800  BIT800      0.0533
     18  C13       23.8700  -34.8440   41.8220 C.ar  800  BIT800      0.0149
     19  C14       24.4600  -34.7370   43.1200 C.ar  800  BIT800      0.0013
     20  C15       25.1310  -33.5750   43.5460 C.ar  800  BIT800      0.0001
     21  C16       25.2450  -32.4760   42.6220 C.ar  800  BIT800      0.0013
     22  C17       24.6300  -32.5900   41.3760 C.ar  800  BIT800      0.0149
@<TRIPOS>BOND
     1     1     2    2
     2    14    10    1
     3    14    15    1
     4     2    10    1
     5     2     3    1
     6     4     3    2
     7     4     5    1
     8    10    13    1
     9    10    11    1
    10     6     5    1
    11     3     8    1
    12    15    16    1
    13     5     7    1
    14    11    16    1
    15    11    12    2
    16     8    12    2
    17     8     9    1
    18    16    17    1
    19     7     9    2
    20    17    22   ar
    21    17    18   ar
    22    22    21   ar
    23    18    19   ar
    24    21    20   ar
    25    19    20   ar
