@<TRIPOS>MOLECULE
3myk_BIT_X_1.pdb
 22 25 0 0 0
SMALL
GASTEIGER

@<TRIPOS>ATOM
      1  O2        21.0880   35.5680  -35.7700 O.2   800  BIT800     -0.2922
      2  C4        20.9750   35.4430  -37.0040 C.2   800  BIT800      0.1961
      3  C5        20.1080   36.1450  -37.8360 C.3   800  BIT800      0.1343
      4  C6        19.0170   36.8740  -37.3220 C.2   800  BIT800     -0.0162
      5  C7        18.1640   37.4860  -38.2350 C.2   800  BIT800     -0.0252
      6  C18       17.0260   38.2900  -37.5880 C.3   800  BIT800      0.0307
      7  C8        18.2980   37.4750  -39.6730 C.2   800  BIT800     -0.0023
      8  C10       20.2640   36.0830  -39.2710 C.2   800  BIT800      0.1211
      9  C9        19.4220   36.7130  -40.1930 C.2   800  BIT800      0.0280
     10  C3        21.7020   34.3070  -37.7000 C.3   800  BIT800      0.2380
     11  C11       22.2420   34.7210  -39.0620 C.2   800  BIT800      0.1979
     12  N2        21.3590   35.4060  -39.8350 N.2   800  BIT800     -0.3918
     13  O1        20.6300   33.2490  -37.8350 O.3   800  BIT800     -0.2094
     14  C2        23.0020   33.7990  -37.0530 C.3   800  BIT800      0.0679
     15  C1        23.7360   33.1220  -38.2240 C.3   800  BIT800      0.1012
     16  N1        23.3360   33.9690  -39.3950 N.pl3 800  BIT800     -0.2638
     17  C12       23.8790   33.7540  -40.6790 C.ar  800  BIT800      0.0533
     18  C13       23.7450   34.8760  -41.5960 C.ar  800  BIT800      0.0149
     19  C14       24.3200   34.7780  -42.8850 C.ar  800  BIT800      0.0013
     20  C15       25.0260   33.6300  -43.2590 C.ar  800  BIT800      0.0001
     21  C16       25.1840   32.5670  -42.3750 C.ar  800  BIT800      0.0013
     22  C17       24.6280   32.6190  -41.0780 C.ar  800  BIT800      0.0149
@<TRIPOS>BOND
     1    20    19   ar
     2    20    21   ar
     3    19    18   ar
     4    21    22   ar
     5    18    17   ar
     6    22    17   ar
     7    17    16    1
     8     9     7    2
     9     9     8    1
    10    12     8    2
    11    12    11    2
    12     7     5    1
    13    16    11    1
    14    16    15    1
    15     8     3    1
    16    11    10    1
    17     5     6    1
    18     5     4    2
    19    15    14    1
    20     3     4    1
    21     3     2    1
    22    13    10    1
    23    10    14    1
    24    10     2    1
    25     2     1    2
