@<TRIPOS>MOLECULE
3myk_ANP_X_1.pdb
 31 33 0 0 0
SMALL
GASTEIGER

@<TRIPOS>ATOM
      1  PG        25.0840   33.6600  -28.1080 P.3   999  ANP999      0.4884
      2  O1G       24.8540   35.0460  -28.7140 O.2   999  ANP999     -0.2331
      3  O2G       26.4720   33.0900  -28.4690 O.3   999  ANP999     -0.1240
      4  O3G       24.0790   32.5670  -28.4630 O.3   999  ANP999     -0.1240
      5  PB        23.9110   33.9160  -25.4860 P.3   999  ANP999      0.4669
      6  O1B       22.6640   33.2350  -25.9430 O.2   999  ANP999     -0.2351
      7  O2B       23.7960   35.3570  -25.0750 O.3   999  ANP999     -0.1253
      8  N3B       25.2420   33.8180  -26.4470 N.3   999  ANP999     -0.0163
      9  PA        23.6940   32.0320  -23.2970 P.3   999  ANP999      0.2220
     10  O1A       23.9260   30.7710  -24.0310 O.2   999  ANP999     -0.5170
     11  O2A       22.3420   32.3920  -22.8140 O.3   999  ANP999     -0.4370
     12  O3A       24.4240   33.1970  -24.1090 O.3   999  ANP999     -0.2360
     13  O5'       24.6410   31.9790  -21.9610 O.3   999  ANP999     -0.3111
     14  C5'       25.9440   31.3960  -22.0110 C.3   999  ANP999      0.1813
     15  C4'       26.1780   30.5460  -20.7580 C.3   999  ANP999      0.1821
     16  O4'       26.1420   31.4270  -19.5870 O.3   999  ANP999     -0.3135
     17  C3'       25.0440   29.5340  -20.5460 C.3   999  ANP999      0.2184
     18  O3'       25.3090   28.2950  -21.2280 O.3   999  ANP999     -0.2174
     19  C2'       25.0560   29.3000  -19.0570 C.3   999  ANP999      0.2570
     20  O2'       26.2210   28.5320  -18.6960 O.3   999  ANP999     -0.2130
     21  C1'       25.4600   30.6840  -18.5490 C.3   999  ANP999      0.3186
     22  N9        24.2630   31.4680  -18.1690 N.pl3 999  ANP999     -0.1439
     23  C8        23.7530   32.5770  -18.8140 C.3   999  ANP999      0.3377
     24  N7        22.6700   33.1160  -18.1310 N.2   999  ANP999     -0.2095
     25  C5        22.5830   32.3400  -17.0090 C.2   999  ANP999      0.2526
     26  C6        21.6870   32.3260  -15.8480 C.2   999  ANP999      0.4393
     27  N6        20.7500   33.2810  -15.7100 N.pl3 999  ANP999      0.2180
     28  N1        21.8970   31.3420  -14.9160 N.2   999  ANP999      0.0021
     29  C2        22.8670   30.4300  -14.9920 C.3   999  ANP999      0.5254
     30  N3        23.7490   30.3880  -16.0390 N.2   999  ANP999     -0.0055
     31  C4        23.5930   31.2840  -17.0580 C.2   999  ANP999      0.3518
@<TRIPOS>BOND
     1     2     1    2
     2     3     1    1
     3     4     1    1
     4     1     8    1
     5     8     5    1
     6     6     5    2
     7     5     7    1
     8     5    12    1
     9    12     9    1
    10    10     9    2
    11     9    11    1
    12     9    13    1
    13    14    13    1
    14    14    15    1
    15    18    17    1
    16    15    17    1
    17    15    16    1
    18    17    19    1
    19    16    21    1
    20    19    20    1
    21    19    21    1
    22    23    22    1
    23    23    24    1
    24    21    22    1
    25    22    31    1
    26    24    25    2
    27    31    25    1
    28    31    30    2
    29    25    26    1
    30    30    29    1
    31    26    27    1
    32    26    28    2
    33    29    28    1
