@<TRIPOS>MOLECULE
3mym_HEM_A_1.pdb
 43 50 0 0 0
SMALL
GASTEIGER

@<TRIPOS>ATOM
      1  CHA        7.1280  -28.0940   22.1060 C.2   139  HEM139      0.0000
      2  CHB        5.8960  -26.6560   17.6570 C.2   139  HEM139      0.0000
      3  CHC        9.7100  -29.0280   15.8420 C.2   139  HEM139      0.0000
      4  CHD       11.3130  -29.8580   20.3050 C.2   139  HEM139      0.0000
      5  C1A        6.4130  -27.5350   21.0670 C.ar  139  HEM139      0.0000
      6  C2A        5.1190  -26.8710   21.1530 C.ar  139  HEM139      0.0000
      7  C3A        4.7850  -26.4680   19.9110 C.ar  139  HEM139      0.0000
      8  C4A        5.8550  -26.8620   19.0120 C.ar  139  HEM139      0.0000
      9  CMA        3.4930  -25.7170   19.4760 C.3   139  HEM139      0.0000
     10  CAA        4.2820  -26.6950   22.4570 C.3   139  HEM139      0.0000
     11  CBA        3.1980  -27.7840   22.4600 C.3   139  HEM139      0.0000
     12  CGA        2.0410  -27.4980   23.3890 C.2   139  HEM139      0.0000
     13  O1A        1.8320  -28.3020   24.3320 O.co2 139  HEM139      0.0000
     14  O2A        1.3130  -26.4890   23.1920 O.co2 139  HEM139      0.0000
     15  C1B        6.7870  -27.2350   16.7870 C.2   139  HEM139      0.0000
     16  C2B        6.6630  -27.2130   15.3530 C.2   139  HEM139      0.0000
     17  C3B        7.7210  -27.8580   14.8340 C.2   139  HEM139      0.0000
     18  C4B        8.5390  -28.3080   15.9500 C.2   139  HEM139      0.0000
     19  CMB        5.4800  -26.5410   14.6180 C.3   139  HEM139      0.0000
     20  CAB        8.0740  -28.1140   13.3470 C.2   139  HEM139      0.0000
     21  CBB        7.8020  -27.2470   12.3550 C.2   139  HEM139      0.0000
     22  C1C       10.4840  -29.4820   16.8860 C.ar  139  HEM139      0.0000
     23  C2C       11.7210  -30.2340   16.7760 C.ar  139  HEM139      0.0000
     24  C3C       12.1590  -30.4760   18.0170 C.ar  139  HEM139      0.0000
     25  C4C       11.2230  -29.8600   18.9390 C.ar  139  HEM139      0.0000
     26  CMC       12.3510  -30.6630   15.4320 C.3   139  HEM139      0.0000
     27  CAC       13.4340  -31.2330   18.4680 C.2   139  HEM139      0.0000
     28  CBC       13.7010  -32.4660   18.0460 C.2   139  HEM139      0.0000
     29  C1D       10.3210  -29.5470   21.1840 C.2   139  HEM139      0.0000
     30  C2D       10.3560  -29.8900   22.5880 C.2   139  HEM139      0.0000
     31  C3D        9.0540  -29.3480   23.1560 C.2   139  HEM139      0.0000
     32  C4D        8.3570  -28.7240   22.0400 C.2   139  HEM139      0.0000
     33  CMD       11.4600  -30.6500   23.3520 C.3   139  HEM139      0.0000
     34  CAD        8.6070  -29.5000   24.6280 C.3   139  HEM139      0.0000
     35  CBD        8.2040  -30.9500   24.9090 C.3   139  HEM139      0.0000
     36  CGD        6.7190  -31.1790   24.7510 C.2   139  HEM139      0.0000
     37  O1D        5.9370  -30.1930   24.7880 O.co2 139  HEM139      0.0000
     38  O2D        6.3140  -32.3660   24.5900 O.co2 139  HEM139      0.0000
     39  NA         6.8300  -27.4980   19.7480 N.ar  139  HEM139      0.0000
     40  NB         7.9390  -27.9170   17.1310 N.2   139  HEM139      0.0000
     41  NC        10.2300  -29.2640   18.2230 N.ar  139  HEM139      0.0000
     42  ND         9.1480  -28.8550   20.9010 N.2   139  HEM139      0.0000
     43 FE          8.5490  -28.3820   19.0090 Fe    139  HEM139      0.0000
@<TRIPOS>BOND
     1    21    20    2
     2    20    17    1
     3    19    16    1
     4    17    16    2
     5    17    18    1
     6    16    15    1
     7    26    23    1
     8     3    18    2
     9     3    22    1
    10    18    40    1
    11    23    22   ar
    12    23    24   ar
    13    15    40    2
    14    15     2    1
    15    22    41   ar
    16    40    43    1
    17     2     8    2
    18    24    27    1
    19    24    25   ar
    20    28    27    2
    21    41    25   ar
    22    41    43    1
    23    25     4    1
    24    43    39    1
    25    43    42    1
    26     8    39   ar
    27     8     7   ar
    28     9     7    1
    29    39     5   ar
    30     7     6   ar
    31     4    29    2
    32    42    29    1
    33    42    32    2
    34     5     6   ar
    35     5     1    2
    36     6    10    1
    37    29    30    1
    38    32     1    1
    39    32    31    1
    40    10    11    1
    41    11    12    1
    42    30    31    2
    43    30    33    1
    44    31    34    1
    45    14    12   ar
    46    12    13   ar
    47    38    36   ar
    48    34    35    1
    49    36    37   ar
    50    36    35    1
