@<TRIPOS>MOLECULE
3myn_HEM_A_1.pdb
 43 50 0 0 0
SMALL
GASTEIGER

@<TRIPOS>ATOM
      1  CHA        7.0270  -28.0550   21.3790 C.2   139  HEM139      0.0000
      2  CHB        5.8560  -26.5800   16.8900 C.2   139  HEM139      0.0000
      3  CHC        9.7820  -28.7510   15.0370 C.2   139  HEM139      0.0000
      4  CHD       11.2960  -29.6270   19.5550 C.2   139  HEM139      0.0000
      5  C1A        6.3490  -27.4600   20.3340 C.ar  139  HEM139      0.0000
      6  C2A        5.0920  -26.7380   20.4040 C.ar  139  HEM139      0.0000
      7  C3A        4.7660  -26.3290   19.1720 C.ar  139  HEM139      0.0000
      8  C4A        5.8010  -26.7830   18.2620 C.ar  139  HEM139      0.0000
      9  CMA        3.4940  -25.5220   18.7990 C.3   139  HEM139      0.0000
     10  CAA        4.2750  -26.4920   21.6930 C.3   139  HEM139      0.0000
     11  CBA        3.2320  -27.6060   21.7950 C.3   139  HEM139      0.0000
     12  CGA        2.5140  -27.5280   23.1210 C.2   139  HEM139      0.0000
     13  O1A        2.3870  -28.5780   23.7840 O.co2 139  HEM139      0.0000
     14  O2A        2.0600  -26.4270   23.5260 O.co2 139  HEM139      0.0000
     15  C1B        6.7810  -27.0860   15.9820 C.2   139  HEM139      0.0000
     16  C2B        6.7100  -27.0040   14.5360 C.2   139  HEM139      0.0000
     17  C3B        7.7900  -27.5940   14.0140 C.2   139  HEM139      0.0000
     18  C4B        8.5830  -28.0870   15.1230 C.2   139  HEM139      0.0000
     19  CMB        5.5580  -26.3520   13.7500 C.3   139  HEM139      0.0000
     20  CAB        8.1690  -27.8010   12.5200 C.2   139  HEM139      0.0000
     21  CBB        7.9210  -26.9300   11.5340 C.2   139  HEM139      0.0000
     22  C1C       10.5220  -29.2180   16.1000 C.ar  139  HEM139      0.0000
     23  C2C       11.7160  -30.0360   16.0260 C.ar  139  HEM139      0.0000
     24  C3C       12.1280  -30.2840   17.2820 C.ar  139  HEM139      0.0000
     25  C4C       11.2200  -29.6210   18.1860 C.ar  139  HEM139      0.0000
     26  CMC       12.3540  -30.5170   14.7070 C.3   139  HEM139      0.0000
     27  CAC       13.3630  -31.1060   17.7310 C.2   139  HEM139      0.0000
     28  CBC       13.4610  -32.4060   17.4190 C.2   139  HEM139      0.0000
     29  C1D       10.3230  -29.2810   20.4680 C.2   139  HEM139      0.0000
     30  C2D       10.4710  -29.3290   21.9170 C.2   139  HEM139      0.0000
     31  C3D        9.1350  -28.8460   22.4920 C.2   139  HEM139      0.0000
     32  C4D        8.3160  -28.5460   21.3350 C.2   139  HEM139      0.0000
     33  CMD       11.7020  -29.7840   22.7300 C.3   139  HEM139      0.0000
     34  CAD        8.7580  -28.7110   23.9960 C.3   139  HEM139      0.0000
     35  CBD        8.3550  -30.1150   24.4500 C.3   139  HEM139      0.0000
     36  CGD        7.1450  -30.0820   25.3410 C.2   139  HEM139      0.0000
     37  O1D        6.0710  -29.5690   24.9110 O.co2 139  HEM139      0.0000
     38  O2D        7.2610  -30.5920   26.4890 O.co2 139  HEM139      0.0000
     39  NA         6.7420  -27.4660   19.0170 N.ar  139  HEM139      0.0000
     40  NB         7.9600  -27.7360   16.3000 N.2   139  HEM139      0.0000
     41  NC        10.2560  -28.9960   17.4300 N.ar  139  HEM139      0.0000
     42  ND         9.0530  -28.7990   20.1770 N.2   139  HEM139      0.0000
     43 FE          8.5350  -28.2580   18.2300 Fe    139  HEM139      0.0000
@<TRIPOS>BOND
     1    21    20    2
     2    20    17    1
     3    19    16    1
     4    17    16    2
     5    17    18    1
     6    16    15    1
     7    26    23    1
     8     3    18    2
     9     3    22    1
    10    18    40    1
    11    15    40    2
    12    15     2    1
    13    23    22   ar
    14    23    24   ar
    15    22    41   ar
    16    40    43    1
    17     2     8    2
    18    24    27    1
    19    24    25   ar
    20    28    27    2
    21    41    25   ar
    22    41    43    1
    23    25     4    1
    24    43    39    1
    25    43    42    1
    26     8    39   ar
    27     8     7   ar
    28     9     7    1
    29    39     5   ar
    30     7     6   ar
    31     4    29    2
    32    42    29    1
    33    42    32    2
    34     5     6   ar
    35     5     1    2
    36     6    10    1
    37    29    30    1
    38    32     1    1
    39    32    31    1
    40    10    11    1
    41    11    12    1
    42    30    31    2
    43    30    33    1
    44    31    34    1
    45    12    14   ar
    46    12    13   ar
    47    34    35    1
    48    35    36    1
    49    37    36   ar
    50    36    38   ar
