@<TRIPOS>MOLECULE
3myq_E27_A_1.pdb
 28 31 0 0 0
SMALL
GASTEIGER

@<TRIPOS>ATOM
      1  N1        -2.2320    5.5460   11.5400 N.2   266  E27266     -0.3325
      2  C2        -1.9320    4.9120   10.3970 C.1   266  E27266      0.1685
      3  N3        -0.7730    5.3550    9.8940 N.2   266  E27266     -0.3347
      4  C4        -0.3410    6.2780   10.7350 C.2   266  E27266      0.1766
      5  C5         0.8050    7.0570   10.7040 C.3   266  E27266      0.1876
      6  N6         0.9930    7.9250   11.7020 N.2   266  E27266     -0.2626
      7  C7         0.1240    8.0630   12.7130 C.2   266  E27266      0.0784
      8  C8        -1.0370    7.2950   12.7750 C.2   266  E27266      0.0462
      9  C9        -1.2440    6.3940   11.7490 C.2   266  E27266      0.1735
     10  C10        0.3770    8.9840   13.7230 C.2   266  E27266      0.0145
     11  C11       -0.5220    9.1320   14.7740 C.2   266  E27266     -0.0199
     12  C12       -1.6780    8.3590   14.8250 C.3   266  E27266      0.0522
     13  C13       -1.9400    7.4340   13.8200 C.2   266  E27266     -0.0173
     14  S14       -2.9730    3.6670    9.6880 S.3   266  E27266     -0.0098
     15  C15       -4.3340    3.4550   10.8620 C.3   266  E27266      0.1432
     16  C16       -3.9840    2.6700   12.1880 C.2   266  E27266      0.1850
     17  O17       -3.1280    1.7230   12.2400 O.2   266  E27266     -0.2904
     18  C18       -4.6460    2.9280   13.5660 C.ar  266  E27266      0.0370
     19  C19       -4.9210    1.8980   14.4420 C.ar  266  E27266      0.0237
     20  C20       -5.5230    2.1270   15.6300 C.ar  266  E27266      0.1356
     21  C21       -5.9370    3.4030   15.9370 C.ar  266  E27266      0.0763
     22  C22       -5.7190    4.4710   15.0750 C.ar  266  E27266      0.0128
     23  C23       -5.1000    4.1950   13.9030 C.ar  266  E27266      0.0038
     24  S24       -5.9460    0.8020   16.7410 S.O2  266  E27266      0.0943
     25  O25       -7.4330    0.7740   16.7380 O.2   266  E27266     -0.1503
     26 CL26       -6.7760    3.8310   17.4050 Cl    266  E27266     -0.0809
     27  O27       -5.3100    1.1070   18.0230 O.2   266  E27266     -0.1503
     28  N28       -5.3740   -0.5550   16.0470 N.3   266  E27266      0.0392
@<TRIPOS>BOND
     1    14     2    1
     2    14    15    1
     3     3     2    2
     4     3     4    2
     5     2     1    2
     6     5     4    1
     7     5     6    1
     8     4     9    1
     9    15    16    1
    10     1     9    2
    11     6     7    2
    12     9     8    1
    13    16    17    2
    14    16    18    1
    15     7     8    1
    16     7    10    1
    17     8    13    2
    18    18    23   ar
    19    18    19   ar
    20    10    11    2
    21    13    12    1
    22    23    22   ar
    23    19    20   ar
    24    11    12    1
    25    22    21   ar
    26    20    21   ar
    27    20    24    1
    28    21    26    1
    29    28    24    1
    30    25    24    2
    31    24    27    2
