@<TRIPOS>MOLECULE
3myt_EQU_A_1.pdb
 20 23 0 0 0
SMALL
GASTEIGER

@<TRIPOS>ATOM
      1  C1        30.1900   20.1390   10.9250 C.ar  127  EQU127      0.1957
      2  C2        28.8420   20.0900   11.2860 C.ar  127  EQU127      0.0420
      3  C3        27.8320   19.9520   10.3310 C.ar  127  EQU127      0.0029
      4  C4        28.2430   19.8850    8.8850 C.ar  127  EQU127     -0.0041
      5  C5        29.5960   19.9420    8.5540 C.ar  127  EQU127      0.0030
      6  C6        30.5450   20.0590    9.5760 C.ar  127  EQU127      0.0420
      7  C10       26.4670   19.8780   10.6840 C.ar  127  EQU127     -0.0002
      8  C11       25.4570   19.7330    9.6880 C.ar  127  EQU127     -0.0046
      9  C12       25.7570   19.6580    8.3000 C.ar  127  EQU127     -0.0260
     10  C13       27.1870   19.7520    7.8380 C.ar  127  EQU127     -0.0261
     11  C16       24.7200   19.4850    7.2460 C.3   127  EQU127      0.0290
     12  C17       25.2680   18.6630    6.0680 C.3   127  EQU127      0.0556
     13  C18       26.3900   19.4340    5.3920 C.3   127  EQU127      0.0119
     14  C19       27.5750   19.6670    6.3450 C.3   127  EQU127      0.0265
     15  C24       23.5420   18.6240    7.6620 C.3   127  EQU127      0.0125
     16  C25       22.9140   18.1980    6.3320 C.3   127  EQU127      0.0648
     17  C26       23.9840   18.3890    5.2830 C.2   127  EQU127      0.1502
     18  C27       25.7870   17.2600    6.4780 C.3   127  EQU127      0.0077
     19  O1        31.1780   20.2440   11.8760 O.3   127  EQU127     -0.2866
     20  O26       23.7970   18.2670    4.0350 O.2   127  EQU127     -0.2961
@<TRIPOS>BOND
     1    20    17    2
     2    17    12    1
     3    17    16    1
     4    13    12    1
     5    13    14    1
     6    12    18    1
     7    12    11    1
     8    16    15    1
     9    14    10    1
    10    11    15    1
    11    11     9    1
    12    10     9   ar
    13    10     4   ar
    14     9     8   ar
    15     5     4   ar
    16     5     6   ar
    17     4     3   ar
    18     6     1   ar
    19     8     7   ar
    20     3     7   ar
    21     3     2   ar
    22     1     2   ar
    23     1    19    1
