@<TRIPOS>MOLECULE
3myu_VIB_A_1.pdb
 18 19 0 0 0
SMALL
GASTEIGER

@<TRIPOS>ATOM
      1  CM2        7.3720   32.4670   37.8460 C.3   500  VIB500      0.1291
      2  N4A        7.1120   31.8910   33.0170 N.pl3 500  VIB500     -0.0925
      3  CM4        1.4130   31.2720   32.6770 C.3   500  VIB500      0.0473
      4  O1         0.6950   28.8980   30.2110 O.3   500  VIB500     -0.2200
      5  C7         0.5710   27.7890   31.0280 C.3   500  VIB500      0.1873
      6  C6         0.7170   28.2300   32.4560 C.3   500  VIB500      0.0691
      7  C2         4.6150   29.5150   33.0040 C.3   500  VIB500      0.1543
      8  S1         3.6470   28.0440   32.8050 S.3   500  VIB500     -0.0951
      9  C5         2.0820   28.8490   32.6450 C.2   500  VIB500      0.0165
     10  C4         2.4500   30.1870   32.7590 C.2   500  VIB500      0.0279
     11  N3         3.7280   30.4760   32.9440 N.pl3 500  VIB500     -0.2970
     12  C7A        4.1650   31.8800   33.0680 C.3   500  VIB500      0.1237
     13  C4A        6.4350   32.0600   34.2710 C.2   500  VIB500      0.2292
     14  N3A        7.1610   32.1960   35.4170 N.2   500  VIB500     -0.3368
     15  C2A        6.5430   32.3370   36.5840 C.1   500  VIB500      0.0663
     16  N1A        5.2010   32.3520   36.6740 N.2   500  VIB500     -0.1861
     17  C6A        4.4150   32.2300   35.5780 C.2   500  VIB500      0.1115
     18  C5A        5.0160   32.0750   34.3220 C.2   500  VIB500      0.0654
@<TRIPOS>BOND
     1     4     5    1
     2     5     6    1
     3     6     9    1
     4     9    10    2
     5     9     8    1
     6     3    10    1
     7    10    11    1
     8     8     7    1
     9    11     7    1
    10    11    12    1
    11     2    13    1
    12    12    18    1
    13    13    18    1
    14    13    14    2
    15    18    17    2
    16    14    15    2
    17    17    16    1
    18    15    16    2
    19    15     1    1
