@<TRIPOS>MOLECULE
3myz_TFX_A_1.pdb
 20 22 0 0 0
SMALL
GASTEIGER

@<TRIPOS>ATOM
      1  N1        12.8810    3.2600   13.8480 N.pl3 101  TFX101     -0.2945
      2  S1        13.1420    0.6800   14.5770 S.3   101  TFX101     -0.0886
      3  C2        13.2570    3.2160   19.4040 C.ar  101  TFX101      0.0479
      4  N2        13.2780    3.5140   20.8480 N.pl3 101  TFX101     -0.3041
      5  C3        13.9510    2.0640   18.8880 C.ar  101  TFX101      0.0143
      6  C4        13.9600    1.7180   17.4900 C.ar  101  TFX101     -0.0005
      7  C5        13.2020    2.5890   16.5220 C.ar  101  TFX101      0.0064
      8  C6        12.4620    3.7920   17.0350 C.ar  101  TFX101     -0.0005
      9  C7        12.4690    4.1300   18.3960 C.ar  101  TFX101      0.0143
     10  C8        13.0820    2.3860   15.0180 C.3   101  TFX101      0.1486
     11  C9        12.8140    2.3960   12.5640 C.ar  101  TFX101      0.0544
     12  C10       12.9540    0.8920   12.9160 C.ar  101  TFX101      0.0401
     13  C11       12.9070   -0.0090   11.8380 C.ar  101  TFX101      0.0032
     14  C12       12.7250    0.4630   10.4310 C.ar  101  TFX101     -0.0213
     15  C13       12.5990    1.8700   10.1400 C.ar  101  TFX101     -0.0030
     16  C14       12.6470    2.8650   11.2480 C.ar  101  TFX101      0.0147
     17  C15       14.0140    2.6630   21.7520 C.3   101  TFX101      0.1122
     18  C16       12.5930    4.6850   21.3830 C.3   101  TFX101      0.1122
     19  C17       12.7920    4.6950   13.8850 C.3   101  TFX101      0.1132
     20  C18       12.6780   -0.5010    9.3260 C.3   101  TFX101      0.0310
@<TRIPOS>BOND
     1    20    14    1
     2    15    14   ar
     3    15    16   ar
     4    14    13   ar
     5    16    11   ar
     6    13    12   ar
     7    11    12   ar
     8    11     1    1
     9    12     2    1
    10     1    19    1
    11     1    10    1
    12     2    10    1
    13    10     7    1
    14     7     8   ar
    15     7     6   ar
    16     8     9   ar
    17     6     5   ar
    18     9     3   ar
    19     5     3   ar
    20     3     4    1
    21     4    18    1
    22     4    17    1
