@<TRIPOS>MOLECULE
3mz0_PGE_A_1.pdb
 10 9 0 0 0
SMALL
GASTEIGER

@<TRIPOS>ATOM
      1  C1        18.7470   28.1270  -14.8120 C.3   5808  PGE5808     0.2140
      2  O1        18.3870   28.2780  -13.4330 O.3   5808  PGE5808    -0.2176
      3  C2        18.5970   26.6770  -15.2660 C.3   5808  PGE5808     0.1777
      4  O2        18.9060   25.7560  -14.2200 O.3   5808  PGE5808    -0.3483
      5  C3        18.6380   24.4130  -14.6270 C.3   5808  PGE5808     0.1742
      6  C4        19.3130   23.4100  -13.6970 C.3   5808  PGE5808     0.1742
      7  O4        18.2420   22.9680   -9.3910 O.3   5808  PGE5808    -0.2176
      8  C6        19.4650   23.3440  -10.0350 C.3   5808  PGE5808     0.2140
      9  C5        19.5030   22.7350  -11.4320 C.3   5808  PGE5808     0.1777
     10  O3        18.8930   23.6380  -12.3520 O.3   5808  PGE5808    -0.3483
@<TRIPOS>BOND
     1     3     1    1
     2     3     4    1
     3     1     2    1
     4     5     4    1
     5     5     6    1
     6     6    10    1
     7    10     9    1
     8     9     8    1
     9     8     7    1
