@<TRIPOS>MOLECULE
3mz3_B3N_A_1.pdb
 22 22 0 0 0
SMALL
GASTEIGER

@<TRIPOS>ATOM
      1  O23       19.7590   32.5870   18.9310 O.2   390  B3N390     -0.2684
      2  C13       20.8380   33.2660   18.9560 C.2   390  B3N390      0.2648
      3  C14       21.3220   33.7800   20.2970 C.ar  390  B3N390      0.0551
      4  C15       22.6610   34.3240   20.4760 C.ar  390  B3N390      0.0058
      5  C16       23.0510   34.7970   21.7900 C.ar  390  B3N390      0.0147
      6  C17       22.1090   34.7360   22.9450 C.ar  390  B3N390      0.0479
      7  N20       22.4520   35.1960   24.2670 N.pl3 390  B3N390     -0.3041
      8  C22       23.7470   35.7640   24.6050 C.3   390  B3N390      0.1122
      9  C21       21.4870   35.1180   25.3780 C.3   390  B3N390      0.1122
     10  C18       20.7790   34.1850   22.7230 C.ar  390  B3N390      0.0147
     11  C19       20.3940   33.7180   21.4350 C.ar  390  B3N390      0.0058
     12  N12       21.5720   33.5420   17.8270 N.am  390  B3N390     -0.2017
     13  C10       21.2460   33.1170   16.4530 C.3   390  B3N390      0.1155
     14  C9        21.8220   31.7640   16.0580 C.3   390  B3N390      0.0234
     15  C8        21.1670   30.6350   16.8560 C.3   390  B3N390      0.0018
     16  C7        21.7580   29.3030   16.4850 C.3   390  B3N390      0.0005
     17  C6        21.1920   28.1410   17.2280 C.3   390  B3N390      0.0067
     18  C5        21.9060   26.8950   16.7510 C.3   390  B3N390      0.0512
     19  C1        21.0460   25.6800   16.9740 C.2   390  B3N390      0.0868
     20  O2        20.5570   25.4050   18.0640 O.2   390  B3N390     -0.5396
     21  N3        20.8320   24.9080   15.9340 N.am  390  B3N390     -0.2030
     22  O4        20.1270   23.8880   16.0460 O.3   390  B3N390     -0.4026
@<TRIPOS>BOND
     1    21    22    1
     2    21    19   am
     3    14    13    1
     4    14    15    1
     5    13    12    1
     6    16    15    1
     7    16    17    1
     8    18    19    1
     9    18    17    1
    10    19    20    2
    11    12     2   am
    12     1     2    2
    13     2     3    1
    14     3     4   ar
    15     3    11   ar
    16     4     5   ar
    17    11    10   ar
    18     5     6   ar
    19    10     6   ar
    20     6     7    1
    21     7     8    1
    22     7     9    1
