@<TRIPOS>MOLECULE
3mz4_B3N_A_1.pdb
 22 22 0 0 0
SMALL
GASTEIGER

@<TRIPOS>ATOM
      1  O23       21.7400    1.2750  -25.5470 O.2   501  B3N501     -0.2684
      2  C13       22.2180    0.5830  -24.9990 C.2   501  B3N501      0.2648
      3  C14       23.6690    0.8620  -24.5650 C.ar  501  B3N501      0.0551
      4  C15       24.2820    0.2050  -23.4230 C.ar  501  B3N501      0.0058
      5  C16       25.6500    0.5240  -23.0430 C.ar  501  B3N501      0.0147
      6  C17       26.4330    1.5110  -23.7810 C.ar  501  B3N501      0.0479
      7  N20       27.7980    1.8930  -23.4360 N.pl3 501  B3N501     -0.3041
      8  C22       28.3300    3.2090  -23.8260 C.3   501  B3N501      0.1122
      9  C21       28.7530    1.0050  -22.7870 C.3   501  B3N501      0.1122
     10  C18       25.7830    2.1700  -24.9380 C.ar  501  B3N501      0.0147
     11  C19       24.4440    1.8510  -25.2910 C.ar  501  B3N501      0.0058
     12  N12       21.6330   -0.5890  -24.6260 N.am  501  B3N501     -0.2017
     13  C10       20.2590   -1.0690  -24.8750 C.3   501  B3N501      0.1155
     14  C9        19.3330   -0.9830  -23.6420 C.3   501  B3N501      0.0234
     15  C8        18.0430   -1.7950  -23.8280 C.3   501  B3N501      0.0018
     16  C7        16.9270   -0.9870  -24.4520 C.3   501  B3N501      0.0006
     17  C6        15.6210   -1.7660  -24.5570 C.3   501  B3N501      0.0097
     18  C5        14.7580   -1.4440  -23.3420 C.3   501  B3N501      0.0904
     19  C1        13.2980   -1.1410  -23.6920 C.2   501  B3N501      0.2838
     20  O2        12.7720   -0.1500  -23.2130 O.2   501  B3N501     -0.2698
     21  N3        12.6310   -1.9220  -24.5360 N.am  501  B3N501      0.0385
     22  O4        11.4570   -1.6950  -24.8290 O.2   501  B3N501     -0.1531
@<TRIPOS>BOND
     1     1     2    2
     2    11    10   ar
     3    11     3   ar
     4     2    12   am
     5     2     3    1
     6    10     6   ar
     7    13    12    1
     8    13    14    1
     9    22    21    2
    10     3     4   ar
    11    17    16    1
    12    17    18    1
    13    21    19    1
    14    16    15    1
    15    15    14    1
    16     8     7    1
    17     6     7    1
    18     6     5   ar
    19    19    18    1
    20    19    20    2
    21     7     9    1
    22     4     5   ar
