@<TRIPOS>MOLECULE
3mz5_THP_A_1.pdb
 25 26 0 0 0
SMALL
GASTEIGER

@<TRIPOS>ATOM
      1  P2        17.9020   11.0910    4.8120 P.3   150  THP150      0.5327
      2  O4P       17.8860    9.6100    5.0700 O.2   150  THP150     -0.2224
      3  O5P       19.1970   11.8100    5.3870 O.3   150  THP150     -0.1145
      4  O6P       16.6620   11.8660    5.4200 O.3   150  THP150     -0.1145
      5  P1        21.1380   14.6050    0.9740 P.3   150  THP150      0.5326
      6  O1P       22.1330   15.2110    0.0450 O.2   150  THP150     -0.2224
      7  O2P       20.4650   15.6340    1.9640 O.3   150  THP150     -0.1145
      8  O3P       21.8490   13.4250    1.7760 O.3   150  THP150     -0.1145
      9  O5'       17.8640   11.1450    3.2330 O.3   150  THP150     -0.2675
     10  C5'       17.9570   12.4780    2.6790 C.3   150  THP150      0.1857
     11  C4'       18.8340   12.3440    1.4110 C.3   150  THP150      0.1748
     12  O4'       18.5040   11.2390    0.5500 O.3   150  THP150     -0.3340
     13  C3'       18.7960   13.6200    0.5090 C.3   150  THP150      0.1600
     14  O3'       20.0950   13.9290   -0.0460 O.3   150  THP150     -0.2700
     15  C2'       17.8650   13.1420   -0.6490 C.3   150  THP150      0.0847
     16  C1'       18.1320   11.6150   -0.7690 C.3   150  THP150      0.2089
     17  N1        16.8260   10.9880   -1.1610 N.am  150  THP150     -0.1794
     18  C2        16.5610   10.8070   -2.4720 C.1   150  THP150      0.2844
     19  O2        17.4230   11.1100   -3.3340 O.2   150  THP150     -0.1918
     20  N3        15.4130   10.2860   -2.9280 N.2   150  THP150     -0.2455
     21  C4        14.4230    9.9950   -2.0070 C.1   150  THP150      0.2134
     22  O4        13.3520    9.5870   -2.4150 O.2   150  THP150     -0.2088
     23  C5        14.6810   10.1830   -0.6180 C.2   150  THP150      0.0891
     24  C5M       13.6580    9.8420    0.4920 C.3   150  THP150      0.0462
     25  C6        15.8780   10.6710   -0.1890 C.2   150  THP150      0.0877
@<TRIPOS>BOND
     1    19    18    2
     2    20    18    2
     3    20    21    2
     4    18    17   am
     5    22    21    2
     6    21    23    1
     7    17    16    1
     8    17    25    1
     9    16    15    1
    10    16    12    1
    11    15    13    1
    12    23    25    2
    13    23    24    1
    14    14    13    1
    15    14     5    1
    16     6     5    2
    17    13    11    1
    18    12    11    1
    19     5     8    1
    20     5     7    1
    21    11    10    1
    22    10     9    1
    23     9     1    1
    24     1     2    2
    25     1     3    1
    26     1     4    1
