@<TRIPOS>MOLECULE
3mz6_B3N_A_1.pdb
 22 22 0 0 0
SMALL
GASTEIGER

@<TRIPOS>ATOM
      1  O23       -0.5420   43.6100    0.5860 O.2   701  B3N701     -0.2684
      2  C13       -0.4810   43.9260    1.5310 C.2   701  B3N701      0.2648
      3  C14       -0.7100   45.4250    1.8120 C.ar  701  B3N701      0.0551
      4  C15        0.0780   46.1530    2.7940 C.ar  701  B3N701      0.0058
      5  C16       -0.1540   47.5620    3.0500 C.ar  701  B3N701      0.0147
      6  C17       -1.1880   48.2950    2.3290 C.ar  701  B3N701      0.0479
      7  N20       -1.4580   49.7090    2.5660 N.pl3 701  B3N701     -0.3041
      8  C22       -2.5690   50.4010    1.9000 C.3   701  B3N701      0.1122
      9  C21       -0.6960   50.5200    3.5160 C.3   701  B3N701      0.1122
     10  C18       -1.9930   47.5300    1.3460 C.ar  701  B3N701      0.0147
     11  C19       -1.7370   46.1510    1.0900 C.ar  701  B3N701      0.0058
     12  N12       -0.2160   43.0860    2.5730 N.am  701  B3N701     -0.2017
     13  C10        0.0460   41.6230    2.5860 C.3   701  B3N701      0.1155
     14  C9         0.6310   41.0090    1.2980 C.3   701  B3N701      0.0234
     15  C8         1.7240   39.9730    1.6230 C.3   701  B3N701      0.0018
     16  C7         1.2010   38.6710    2.1950 C.3   701  B3N701      0.0006
     17  C6         1.7440   37.4680    1.4290 C.3   701  B3N701      0.0097
     18  C5         2.3970   36.5090    2.4160 C.3   701  B3N701      0.0904
     19  C1         1.8740   35.0690    2.3380 C.2   701  B3N701      0.2838
     20  O2         0.7680   34.7760    2.7960 O.2   701  B3N701     -0.2698
     21  N3         2.6060   34.1270    1.7680 N.am  701  B3N701      0.0385
     22  O4         2.1540   32.9790    1.7120 O.2   701  B3N701     -0.1531
@<TRIPOS>BOND
     1     1     2    2
     2    11    10   ar
     3    11     3   ar
     4    14    15    1
     5    14    13    1
     6    10     6   ar
     7    17    16    1
     8    17    18    1
     9     2     3    1
    10     2    12   am
    11    15    16    1
    12    22    21    2
    13    21    19    1
    14     3     4   ar
    15     8     7    1
    16     6     7    1
    17     6     5   ar
    18    19    18    1
    19    19    20    2
    20     7     9    1
    21    12    13    1
    22     4     5   ar
