@<TRIPOS>MOLECULE
3mz7_B3N_A_1.pdb
 22 22 0 0 0
SMALL
GASTEIGER

@<TRIPOS>ATOM
      1  O23        0.6950   44.4000    1.0020 O.2   701  B3N701     -0.2684
      2  C13       -0.1440   44.4750    1.5500 C.2   701  B3N701      0.2648
      3  C14       -0.6130   45.9040    1.8820 C.ar  701  B3N701      0.0551
      4  C15       -0.0560   46.6580    2.9940 C.ar  701  B3N701      0.0058
      5  C16       -0.4940   48.0240    3.2400 C.ar  701  B3N701      0.0147
      6  C17       -1.5060   48.6750    2.4130 C.ar  701  B3N701      0.0479
      7  N20       -1.9700   50.0430    2.6600 N.pl3 701  B3N701     -0.3041
      8  C22       -2.9790   50.7120    1.8270 C.3   701  B3N701      0.1122
      9  C21       -1.4560   50.8720    3.7450 C.3   701  B3N701      0.1122
     10  C18       -2.0550   47.8810    1.2920 C.ar  701  B3N701      0.0147
     11  C19       -1.6020   46.5520    1.0430 C.ar  701  B3N701      0.0058
     12  N12       -0.8540   43.3790    1.9600 N.am  701  B3N701     -0.2017
     13  C10       -0.5650   41.9360    1.7290 C.3   701  B3N701      0.1155
     14  C9         0.6180   41.3050    2.5050 C.3   701  B3N701      0.0234
     15  C8         1.3420   40.1860    1.7230 C.3   701  B3N701      0.0018
     16  C7         1.3530   38.8390    2.4300 C.3   701  B3N701      0.0005
     17  C6         1.9180   37.6980    1.5770 C.3   701  B3N701      0.0067
     18  C5         2.5370   36.6720    2.5160 C.3   701  B3N701      0.0512
     19  C1         2.0320   35.2360    2.3020 C.2   701  B3N701      0.0868
     20  O2         1.0220   34.8740    2.8980 O.2   701  B3N701     -0.5396
     21  N3         2.6620   34.4460    1.4280 N.am  701  B3N701     -0.2030
     22  O4         2.3050   33.2780    1.2040 O.3   701  B3N701     -0.4026
@<TRIPOS>BOND
     1     1     2    2
     2    11    10   ar
     3    11     3   ar
     4    22    21    1
     5    10     6   ar
     6    21    19   am
     7     2     3    1
     8     2    12   am
     9    17    16    1
    10    17    18    1
    11    15    16    1
    12    15    14    1
    13    13    12    1
    14    13    14    1
    15     8     7    1
    16     3     4   ar
    17    19    18    1
    18    19    20    2
    19     6     7    1
    20     6     5   ar
    21     7     9    1
    22     4     5   ar
