@<TRIPOS>MOLECULE
3mz9_BHN_A_1.pdb
 28 29 0 0 0
SMALL
GASTEIGER

@<TRIPOS>ATOM
      1  C1         4.3080   -2.3620   32.7610 C.ar  504  BHN504      0.0328
      2  C2         5.3430   -1.6250   32.1980 C.ar  504  BHN504      0.0003
      3  C3         5.6290   -0.3520   32.6810 C.ar  504  BHN504     -0.0001
      4  C4         4.8920    0.1660   33.7460 C.ar  504  BHN504      0.0033
      5  C5         3.8610   -0.5750   34.3220 C.ar  504  BHN504      0.0417
      6  C6         3.5680   -1.8300   33.8280 C.ar  504  BHN504      0.1930
      7  O6         2.5790   -2.5700   34.4100 O.3   504  BHN504     -0.2869
      8  C7         4.0640   -3.7180   32.1470 C.3   504  BHN504      0.1028
      9  N8         3.8030   -4.7250   33.1750 N.3   504  BHN504     -0.2581
     10  C9         3.4690   -5.9160   32.3900 C.3   504  BHN504      0.0903
     11  C10        2.6670   -6.9120   33.2220 C.3   504  BHN504      0.0903
     12  N11        1.6160   -6.2240   33.9780 N.3   504  BHN504     -0.2581
     13  C12        1.3470   -7.1270   35.1140 C.3   504  BHN504      0.1028
     14  C13        0.2790   -6.5430   36.0360 C.ar  504  BHN504      0.0328
     15  C14       -0.6120   -7.4430   36.6220 C.ar  504  BHN504      0.0003
     16  C15       -1.6160   -6.9840   37.4760 C.ar  504  BHN504     -0.0001
     17  C16       -1.7290   -5.6210   37.7460 C.ar  504  BHN504      0.0033
     18  C17       -0.8310   -4.7210   37.1750 C.ar  504  BHN504      0.0417
     19  C18        0.1620   -5.1870   36.3180 C.ar  504  BHN504      0.1930
     20  O18        1.0300   -4.3070   35.7490 O.3   504  BHN504     -0.2869
     21  C19        5.0960   -4.9500   33.8550 C.3   504  BHN504      0.1881
     22  C20        4.8920   -5.1660   35.3580 C.2   504  BHN504      0.3809
     23  O20        5.9120   -5.4710   35.9870 O.co2 504  BHN504     -0.2441
     24  C21        0.4140   -6.2770   33.1190 C.3   504  BHN504      0.1881
     25  O21        3.7560   -5.0060   35.8430 O.co2 504  BHN504     -0.2441
     26  C22        0.1840   -4.9740   32.3530 C.2   504  BHN504      0.3809
     27  O22       -0.5290   -5.0840   31.3440 O.co2 504  BHN504     -0.2441
     28  O23        0.7040   -3.9110   32.7620 O.co2 504  BHN504     -0.2441
@<TRIPOS>BOND
     1    27    26   ar
     2     8     1    1
     3     8     9    1
     4     2     3   ar
     5     2     1   ar
     6    26    28   ar
     7    26    24    1
     8    10     9    1
     9    10    11    1
    10     3     4   ar
    11     1     6   ar
    12    24    12    1
    13     9    21    1
    14    11    12    1
    15     4     5   ar
    16     6     5   ar
    17     6     7    1
    18    21    22    1
    19    12    13    1
    20    13    14    1
    21    22    25   ar
    22    22    23   ar
    23    20    19    1
    24    14    19   ar
    25    14    15   ar
    26    19    18   ar
    27    15    16   ar
    28    18    17   ar
    29    16    17   ar
