@<TRIPOS>MOLECULE
3mzb_BHR_A_1.pdb
 29 30 0 0 0
SMALL
GASTEIGER

@<TRIPOS>ATOM
      1  C1         4.0220   -1.4780   33.5310 C.ar  520  BHR520      0.0361
      2  C2         4.5910   -0.2230   33.3110 C.ar  520  BHR520      0.0005
      3  C3         4.2480    0.8650   34.1250 C.ar  520  BHR520      0.0032
      4  C4         3.3460    0.7360   35.1820 C.ar  520  BHR520      0.0454
      5  C5         2.7780   -0.5140   35.4130 C.ar  520  BHR520      0.2340
      6  O5         1.8860   -0.6880   36.4390 O.3   520  BHR520     -0.2832
      7  C6         3.1280   -1.5840   34.5860 C.ar  520  BHR520      0.2315
      8  O6         2.5860   -2.7930   34.7990 O.3   520  BHR520     -0.2834
      9  C7         4.4010   -2.6740   32.6150 C.3   520  BHR520      0.1029
     10  N8         3.9590   -3.9710   33.2210 N.3   520  BHR520     -0.2581
     11  C9         3.6830   -4.9670   32.1690 C.3   520  BHR520      0.0903
     12  C10        2.9490   -6.2060   32.7410 C.3   520  BHR520      0.0903
     13  N11        1.7210   -5.8490   33.4920 N.3   520  BHR520     -0.2581
     14  C12        1.3660   -6.9400   34.4380 C.3   520  BHR520      0.1028
     15  C13        0.5030   -6.4140   35.6070 C.ar  520  BHR520      0.0328
     16  C14       -0.3160   -7.2830   36.3120 C.ar  520  BHR520      0.0003
     17  C15       -1.1100   -6.8170   37.3680 C.ar  520  BHR520     -0.0001
     18  C16       -1.0940   -5.4780   37.7540 C.ar  520  BHR520      0.0033
     19  C17       -0.2760   -4.6080   37.0460 C.ar  520  BHR520      0.0417
     20  C18        0.4920   -5.0890   35.9920 C.ar  520  BHR520      0.1930
     21  O18        1.2840   -4.2560   35.3000 O.3   520  BHR520     -0.2869
     22  C19        5.1270   -4.5000   33.9680 C.3   520  BHR520      0.1881
     23  C20        4.7710   -4.9820   35.3910 C.2   520  BHR520      0.3809
     24  O20        5.6910   -5.5600   35.9720 O.co2 520  BHR520     -0.2441
     25  C21        0.5870   -5.6110   32.5530 C.3   520  BHR520      0.1881
     26  O21        3.6380   -4.7910   35.8750 O.co2 520  BHR520     -0.2441
     27  C22        0.4460   -4.1050   32.2210 C.2   520  BHR520      0.3809
     28  O22       -0.1990   -3.7930   31.1880 O.co2 520  BHR520     -0.2441
     29  O23        0.9790   -3.2790   32.9970 O.co2 520  BHR520     -0.2441
@<TRIPOS>BOND
     1    28    27   ar
     2    11    12    1
     3    11    10    1
     4    27    25    1
     5    27    29   ar
     6    25    13    1
     7     9    10    1
     8     9     1    1
     9    12    13    1
    10    10    22    1
    11     2     1   ar
    12     2     3   ar
    13    13    14    1
    14     1     7   ar
    15    22    23    1
    16     3     4   ar
    17    14    15    1
    18     7     8    1
    19     7     5   ar
    20     4     5   ar
    21    21    20    1
    22    23    26   ar
    23    23    24   ar
    24     5     6    1
    25    15    20   ar
    26    15    16   ar
    27    20    19   ar
    28    16    17   ar
    29    19    18   ar
    30    17    18   ar
