@<TRIPOS>MOLECULE
3mzc_S6I_A_1.pdb
 35 36 0 0 0
SMALL
GASTEIGER

@<TRIPOS>ATOM
      1  C1        -5.0690    2.2280   15.7970 C.ar  263  S6I263      0.1067
      2  N1        -5.3850   -0.4900   16.1470 N.3   263  S6I263     -0.1053
      3  O1        -7.3100    1.1610   16.6550 O.2   263  S6I263     -0.1519
      4  S1        -5.8620    0.9760   16.7700 S.O2  263  S6I263      0.0723
      5  C2        -5.7650    3.3080   15.3320 C.ar  263  S6I263     -0.0336
      6  O2        -5.3530    1.1050   18.1370 O.2   263  S6I263     -0.1519
      7  C3        -5.1270    4.2980   14.6120 C.ar  263  S6I263     -0.0386
      8  C4        -3.7750    4.1690   14.3490 C.ar  263  S6I263      0.0349
      9  C5        -3.0900    3.1030   14.8080 C.ar  263  S6I263     -0.0386
     10  C6        -3.7020    2.1450   15.5090 C.ar  263  S6I263     -0.0336
     11  N7        -2.9260    5.1230   13.6770 N.am  263  S6I263     -0.2695
     12  C8        -3.2450    6.4550   13.3690 C.2   263  S6I263      0.3041
     13  O8        -4.3040    6.9340   13.6480 O.2   263  S6I263     -0.2525
     14  N9        -2.0960    7.2070   12.9610 N.am  263  S6I263     -0.2963
     15  C10       -2.1060    8.5580   12.8950 C.3   263  S6I263      0.0246
     16  C11       -2.1230    9.0870   14.2700 C.3   263  S6I263     -0.0345
     17  C12       -0.7180    9.1120   14.7700 C.3   263  S6I263     -0.0513
     18  C13        0.1500    9.0570   13.5390 C.3   263  S6I263     -0.0513
     19  C14       -0.7970    9.0040   12.3390 C.3   263  S6I263     -0.0345
     20  H10       -2.7970    8.8730   12.4720 H     263  S6I263      0.0499
     21  H11       -2.4880    9.9590   14.2830 H     263  S6I263      0.0283
     22 H11A       -2.6550    8.5710   14.8090 H     263  S6I263      0.0283
     23  H2        -6.6880    3.3850   15.5180 H     263  S6I263      0.0638
     24  H12       -0.5470    9.9770   15.2880 H     263  S6I263      0.0266
     25 H12A       -0.5440    8.3280   15.3470 H     263  S6I263      0.0266
     26  H3        -5.6000    5.0340   14.2980 H     263  S6I263      0.0637
     27  H13        0.7090    9.8050   13.4990 H     263  S6I263      0.0266
     28 H13A        0.6740    8.3010   13.5610 H     263  S6I263      0.0266
     29  H14       -0.4680    8.3420   11.6160 H     263  S6I263      0.0283
     30 H14A       -0.8890    9.8850   11.9350 H     263  S6I263      0.0283
     31  H5        -2.1720    3.0310   14.6300 H     263  S6I263      0.0637
     32  H6        -3.1710    1.3550   15.8430 H     263  S6I263      0.0638
     33  HN7       -2.0430    4.8370   13.4730 H     263  S6I263      0.1564
     34  HN9       -1.3630    6.7690   12.6940 H     263  S6I263      0.1505
     35 HN1A       -4.4310   -0.4720   15.9700 H     263  S6I263      0.1694
@<TRIPOS>BOND
     1    29    19    1
     2    30    19    1
     3    19    15    1
     4    19    18    1
     5    20    15    1
     6    34    14    1
     7    15    14    1
     8    15    16    1
     9    14    12   am
    10    12    13    2
    11    12    11   am
    12    33    11    1
    13    27    18    1
    14    18    28    1
    15    18    17    1
    16    11     8    1
    17    16    21    1
    18    16    17    1
    19    16    22    1
    20    26     7    1
    21     8     7   ar
    22     8     9   ar
    23     7     5   ar
    24    31     9    1
    25    17    24    1
    26    17    25    1
    27     9    10   ar
    28     5    23    1
    29     5     1   ar
    30    10     1   ar
    31    10    32    1
    32     1     4    1
    33    35     2    1
    34     2     4    1
    35     3     4    2
    36     4     6    2
