@<TRIPOS>MOLECULE
3mzd_CXV_A_1.pdb
 29 31 0 0 0
SMALL
GASTEIGER

@<TRIPOS>ATOM
      1 CL         40.7500    9.4590   27.5130 Cl    364  CXV364     -0.0822
      2  C1        42.8380    6.4570   27.1950 C.2   364  CXV364      0.2311
      3  O1        41.8710    5.7190   27.1840 O.2   364  CXV364     -0.2863
      4  C2        43.5140    6.7830   28.5100 C.3   364  CXV364      0.1859
      5  N2        43.8180    8.1810   28.7250 N.am  364  CXV364     -0.1929
      6  C3        44.9340    6.2270   28.4670 C.3   364  CXV364      0.1479
      7  S4        45.8310    6.5590   29.9660 S.3   364  CXV364     -0.1212
      8  C5        46.1790    4.8690   30.3650 C.3   364  CXV364      0.0658
      9  C6        45.0920    4.0950   29.6000 C.3   364  CXV364      0.1857
     10  N7        44.8600    4.7930   28.3480 N.3   364  CXV364     -0.1957
     11  C8        45.3460    2.6340   29.3890 C.2   364  CXV364      0.3811
     12  C21       43.2890    9.0270   29.6050 C.2   364  CXV364      0.2695
     13  O21       43.7400   10.1390   29.5910 O.2   364  CXV364     -0.2682
     14  C22       42.1490    8.7590   30.5380 C.ar  364  CXV364      0.1087
     15  C23       41.9690    7.6580   31.5190 C.ar  364  CXV364      0.1592
     16  O24       40.7630    7.8990   32.0940 O.2   364  CXV364     -0.3576
     17  N25       40.1090    9.0920   31.5930 N.ar  364  CXV364     -0.0772
     18  C26       40.9210    9.6270   30.6420 C.ar  364  CXV364      0.1278
     19  C27       42.7240    6.4170   32.0110 C.3   364  CXV364      0.0755
     20  C28       40.7290   10.8090   29.8960 C.ar  364  CXV364      0.0316
     21  C29       40.7040   10.8800   28.4940 C.ar  364  CXV364      0.0592
     22  C30       40.6470   12.1310   27.8550 C.ar  364  CXV364      0.0114
     23  C31       40.6010   13.3200   28.5920 C.ar  364  CXV364      0.0009
     24  C32       40.5300   13.2460   29.9820 C.ar  364  CXV364      0.0001
     25  C33       40.5810   12.0010   30.6160 C.ar  364  CXV364      0.0024
     26  C51       46.0400    4.6720   31.8750 C.3   364  CXV364      0.0129
     27  C52       47.6030    4.5320   29.9170 C.3   364  CXV364      0.0129
     28  O81       45.3440    1.8960   30.3920 O.co2 364  CXV364     -0.2441
     29  O82       45.5130    2.2110   28.2200 O.co2 364  CXV364     -0.2441
@<TRIPOS>BOND
     1     3     2    2
     2     2     4    1
     3     1    21    1
     4    22    21   ar
     5    22    23   ar
     6    29    11   ar
     7    10     6    1
     8    10     9    1
     9     6     4    1
    10     6     7    1
    11    21    20   ar
    12     4     5    1
    13    23    24   ar
    14     5    12   am
    15    11     9    1
    16    11    28   ar
    17    13    12    2
    18     9     8    1
    19    12    14    1
    20    20    25   ar
    21    20    18    1
    22    27     8    1
    23     7     8    1
    24    24    25   ar
    25     8    26    1
    26    14    18   ar
    27    14    15   ar
    28    18    17   ar
    29    15    19    1
    30    15    16   ar
    31    17    16   ar
