@<TRIPOS>MOLECULE
3mze_CFX_A_1.pdb
 24 25 0 0 0
SMALL
GASTEIGER

@<TRIPOS>ATOM
      1  C4        42.0920    6.7720   27.1100 C.2   364  CFX364      0.2580
      2  O5        41.4610    5.7160   27.1730 O.2   364  CFX364     -0.2837
      3  N1        44.4310    5.9780   28.1240 N.2   364  CFX364     -0.2543
      4  C2        44.0250    7.3440   28.6020 C.3   364  CFX364      0.2018
      5  S8        44.5540    7.8310   30.3040 S.3   364  CFX364     -0.1121
      6  C9        45.7380    6.5510   30.8550 C.3   364  CFX364      0.0656
      7  C10       45.5950    5.2210   30.1230 C.3   364  CFX364      0.0574
      8  C11       44.9840    5.0160   28.8830 C.2   364  CFX364      0.1346
      9  C15       46.1990    4.0010   30.8410 C.3   364  CFX364      0.0074
     10  C12       44.9750    3.5850   28.3070 C.2   364  CFX364      0.4007
     11  O13       45.8930    3.3270   27.5000 O.co2 364  CFX364     -0.2392
     12  O14       44.2530    2.7130   28.8420 O.co2 364  CFX364     -0.2392
     13  C3        42.4910    7.6100   28.3600 C.3   364  CFX364      0.2602
     14  O16       42.4390    9.0930   28.1720 O.3   364  CFX364     -0.3291
     15  C17       41.2560    9.6840   27.5520 C.3   364  CFX364      0.1765
     16  N18       41.6550    7.2930   29.5450 N.am  364  CFX364     -0.1717
     17  C19       40.3170    7.4110   29.6520 C.2   364  CFX364      0.2487
     18  O21       39.5320    7.7670   28.7650 O.2   364  CFX364     -0.2729
     19  C20       39.7630    7.0320   31.0320 C.3   364  CFX364      0.1197
     20  C23       40.5060    7.7630   32.1650 C.ar  364  CFX364      0.0165
     21  S24       40.1610    9.3550   32.6550 S.2   364  CFX364     -0.0903
     22  C25       41.3290    9.3810   33.8770 C.ar  364  CFX364      0.0351
     23  C26       41.9400    8.1830   33.8660 C.ar  364  CFX364      0.0072
     24  C27       41.4950    7.3050   32.9430 C.ar  364  CFX364      0.0032
@<TRIPOS>BOND
     1     1     2    2
     2     1    13    1
     3    11    10   ar
     4    15    14    1
     5     3     4    1
     6     3     8    2
     7    14    13    1
     8    10    12   ar
     9    10     8    1
    10    13     4    1
    11    13    16    1
    12     4     5    1
    13    18    17    2
    14     8     7    1
    15    16    17   am
    16    17    19    1
    17     7     9    1
    18     7     6    1
    19     5     6    1
    20    19    20    1
    21    20    21   ar
    22    20    24   ar
    23    21    22   ar
    24    24    23   ar
    25    23    22   ar
