@<TRIPOS>MOLECULE
3mzf_IM2_A_1.pdb
 20 20 0 0 0
SMALL
GASTEIGER

@<TRIPOS>ATOM
      1  C7        42.5250    6.7070   26.9520 C.2   364  IM2364      0.2115
      2  C2        45.4110    5.2860   29.9400 C.3   364  IM2364      0.0958
      3  C6        42.9650    7.3010   28.2610 C.3   364  IM2364      0.1175
      4  C5        44.4180    6.8730   28.4900 C.3   364  IM2364      0.1142
      5  C3        45.2960    4.7100   28.7460 C.2   364  IM2364      0.1428
      6  O7        41.8020    5.7220   26.8810 O.2   364  IM2364     -0.2882
      7  C61       42.8460    8.8330   28.1550 C.3   364  IM2364      0.1613
      8  O62       43.2460    9.4550   29.3820 O.3   364  IM2364     -0.2226
      9  C62       41.4300    9.2980   27.8140 C.3   364  IM2364      0.0360
     10  N4        44.6220    5.5250   27.9360 N.2   364  IM2364     -0.2688
     11  C31       45.7950    3.4020   28.2820 C.2   364  IM2364      0.4014
     12  O31       45.4740    3.0230   27.1300 O.co2 364  IM2364     -0.2392
     13  O32       46.5260    2.7000   29.0200 O.co2 364  IM2364     -0.2392
     14  S21       46.1810    4.6350   31.2680 S.3   364  IM2364     -0.1329
     15  C22       46.0480    5.7270   32.6480 C.3   364  IM2364      0.0821
     16  C23       46.9610    6.9310   32.4480 C.3   364  IM2364      0.1362
     17  N24       46.6610    7.8280   33.5540 N.pl3 364  IM2364     -0.1655
     18  C25       47.4440    7.9300   34.4850 C.1   364  IM2364      0.1884
     19  N26       48.3500    8.1130   35.2810 N.1   364  IM2364     -0.1726
     20  C1        44.7470    6.6400   29.9660 C.3   364  IM2364      0.0418
@<TRIPOS>BOND
     1     6     1    2
     2     1     3    1
     3    12    11   ar
     4     9     7    1
     5    10     4    1
     6    10     5    2
     7     7     3    1
     8     7     8    1
     9     3     4    1
    10    11     5    1
    11    11    13   ar
    12     4    20    1
    13     5     2    1
    14     2    20    1
    15     2    14    1
    16    14    15    1
    17    16    15    1
    18    16    17    1
    19    17    18    1
    20    18    19    3
