@<TRIPOS>MOLECULE
3mzh_CMP_A_1.pdb
 22 25 0 0 0
SMALL
GASTEIGER

@<TRIPOS>ATOM
      1  P        -14.3590  -19.4220  -35.3050 P.3   623  CMP623      0.2141
      2  O1P      -13.1500  -20.1420  -34.7550 O.3   623  CMP623     -0.4373
      3  O2P      -14.8150  -20.0540  -36.5950 O.2   623  CMP623     -0.5172
      4  O5'      -15.5390  -19.4460  -34.2060 O.3   623  CMP623     -0.3114
      5  C5'      -15.5800  -18.5240  -33.1150 C.3   623  CMP623      0.1812
      6  C4'      -15.4210  -17.1470  -33.7320 C.3   623  CMP623      0.1793
      7  O4'      -15.4580  -16.0550  -32.8140 O.3   623  CMP623     -0.3136
      8  C3'      -14.0450  -17.0710  -34.3440 C.3   623  CMP623      0.1884
      9  O3'      -14.0660  -17.8530  -35.5290 O.3   623  CMP623     -0.3111
     10  C2'      -13.8120  -15.5800  -34.4710 C.3   623  CMP623      0.2541
     11  O2'      -14.4400  -15.0630  -35.6420 O.3   623  CMP623     -0.2131
     12  C1'      -14.5230  -15.0470  -33.2360 C.3   623  CMP623      0.3185
     13  N9       -13.5210  -14.8480  -32.1590 N.pl3 623  CMP623     -0.1439
     14  C8       -12.9070  -15.8320  -31.4690 C.3   623  CMP623      0.3377
     15  N7       -12.0470  -15.3210  -30.5510 N.2   623  CMP623     -0.2095
     16  C5       -12.1030  -13.9780  -30.6420 C.2   623  CMP623      0.2526
     17  C6       -11.4570  -12.8240  -29.9650 C.2   623  CMP623      0.4393
     18  N6       -10.5510  -12.9970  -28.9770 N.pl3 623  CMP623      0.2180
     19  N1       -11.8030  -11.5820  -30.3670 N.2   623  CMP623      0.0021
     20  C2       -12.7020  -11.3850  -31.3430 C.3   623  CMP623      0.5254
     21  N3       -13.3260  -12.3790  -31.9960 N.2   623  CMP623     -0.0055
     22  C4       -13.0770  -13.6760  -31.7020 C.2   623  CMP623      0.3518
@<TRIPOS>BOND
     1     3     1    2
     2    11    10    1
     3     9     1    1
     4     9     8    1
     5     1     2    1
     6     1     4    1
     7    10     8    1
     8    10    12    1
     9     8     6    1
    10     4     5    1
    11     6     5    1
    12     6     7    1
    13    12     7    1
    14    12    13    1
    15    13    22    1
    16    13    14    1
    17    21    22    2
    18    21    20    1
    19    22    16    1
    20    14    15    1
    21    20    19    1
    22    16    15    2
    23    16    17    1
    24    19    17    2
    25    17    18    1
