@<TRIPOS>MOLECULE
3mzi_FMN_A_1.pdb
 31 33 0 0 0
SMALL
GASTEIGER

@<TRIPOS>ATOM
      1  N1       -32.2560   51.6770 -114.2720 N.2   154  FMN154     -0.2887
      2  C2       -33.0610   51.9740 -113.1980 C.1   154  FMN154      0.3669
      3  O2       -34.2830   51.9900 -113.3530 O.2   154  FMN154     -0.1744
      4  N3       -32.4970   52.2500 -111.9690 N.2   154  FMN154     -0.2300
      5  C4       -31.1280   52.2250 -111.8160 C.1   154  FMN154      0.2513
      6  O4       -30.6080   52.4680 -110.7230 O.2   154  FMN154     -0.2057
      7  C4A      -30.3240   51.9230 -112.9050 C.2   154  FMN154      0.2706
      8  N5       -28.9580   51.8980 -112.7490 N.2   154  FMN154     -0.3841
      9  C5A      -28.1590   51.6070 -113.8250 C.2   154  FMN154      0.1452
     10  C6       -26.7800   51.5860 -113.6620 C.2   154  FMN154      0.0252
     11  C7       -25.9590   51.2880 -114.7430 C.2   154  FMN154     -0.0375
     12  C7M      -24.4690   51.2650 -114.5610 C.3   154  FMN154      0.0268
     13  C8       -26.5280   51.0140 -115.9850 C.3   154  FMN154      0.0417
     14  C8M      -25.6560   50.6860 -117.1570 C.3   154  FMN154      0.0091
     15  C9       -27.9080   51.0370 -116.1430 C.2   154  FMN154     -0.0049
     16  C9A      -28.7260   51.3340 -115.0620 C.2   154  FMN154      0.0795
     17  N10      -30.0960   51.3450 -115.2240 N.pl3 154  FMN154     -0.2545
     18  C10      -30.8910   51.6490 -114.1380 C.2   154  FMN154      0.2449
     19  C1'      -30.7060   51.0610 -116.5770 C.3   154  FMN154      0.1336
     20  C2'      -31.5310   49.7780 -116.6540 C.3   154  FMN154      0.2048
     21  O2'      -30.7010   48.7240 -117.0960 O.3   154  FMN154     -0.2185
     22  C3'      -32.6990   49.9430 -117.6270 C.3   154  FMN154      0.2165
     23  O3'      -32.3480   50.9330 -118.5670 O.3   154  FMN154     -0.2175
     24  C4'      -33.9920   50.3760 -116.9370 C.3   154  FMN154      0.2147
     25  O4'      -34.4790   49.4030 -116.0340 O.3   154  FMN154     -0.2176
     26  C5'      -35.0840   50.6350 -117.9570 C.3   154  FMN154      0.1892
     27  O5'      -36.1130   51.2940 -117.2750 O.3   154  FMN154     -0.2674
     28  P        -37.3900   51.8050 -118.0730 P.3   154  FMN154      0.5327
     29  O1P      -38.3300   50.6230 -118.0340 O.3   154  FMN154     -0.1145
     30  O2P      -37.0570   52.1620 -119.5060 O.2   154  FMN154     -0.2224
     31  O3P      -37.8540   53.0540 -117.3670 O.3   154  FMN154     -0.1145
@<TRIPOS>BOND
     1    30    28    2
     2    23    22    1
     3    28    29    1
     4    28    31    1
     5    28    27    1
     6    26    27    1
     7    26    24    1
     8    22    24    1
     9    22    20    1
    10    14    13    1
    11    21    20    1
    12    24    25    1
    13    20    19    1
    14    19    17    1
    15    15    13    1
    16    15    16    2
    17    13    11    1
    18    17    16    1
    19    17    18    1
    20    16     9    1
    21    11    12    1
    22    11    10    2
    23     1    18    2
    24     1     2    2
    25    18     7    1
    26     9    10    1
    27     9     8    2
    28     3     2    2
    29     2     4    2
    30     7     8    2
    31     7     5    1
    32     4     5    2
    33     5     6    2
