@<TRIPOS>MOLECULE
3mzs_HC9_A_1.pdb
 29 32 0 0 0
SMALL
GASTEIGER

@<TRIPOS>ATOM
      1  C1        10.2060   18.9000   11.9860 C.3   501  HC9501      0.0026
      2  O1         9.8320   17.2650   15.3730 O.3   501  HC9501     -0.2232
      3  C2        10.6070   18.5160   13.4290 C.3   501  HC9501      0.0329
      4  O2         7.8660   20.0560    2.0050 O.3   501  HC9501     -0.2232
      5  C3         9.5520   17.5210   13.9890 C.3   501  HC9501      0.1520
      6  C4         9.6240   16.2160   13.1230 C.3   501  HC9501      0.0329
      7  C5         9.2750   16.5360   11.6650 C.3   501  HC9501      0.0025
      8  C6         7.9670   16.3600   11.3150 C.3   501  HC9501      0.0001
      9  C7         7.4380   16.7100    9.9170 C.3   501  HC9501      0.0000
     10  C8         8.5800   17.2170    8.9990 C.3   501  HC9501      0.0000
     11  C9         9.3810   18.2670    9.7510 C.3   501  HC9501      0.0000
     12  C10       10.0410   17.7000   11.0170 C.3   501  HC9501      0.0002
     13  C11       10.3680   19.0040    8.7920 C.3   501  HC9501      0.0000
     14  C12        9.5960   19.6710    7.6350 C.3   501  HC9501      0.0000
     15  C13        9.0150   18.5820    6.7170 C.3   501  HC9501      0.0001
     16  C14        8.0590   17.8200    7.6600 C.3   501  HC9501      0.0000
     17  C15        7.2860   16.9500    6.6860 C.3   501  HC9501      0.0000
     18  C16        6.9770   17.9420    5.5770 C.3   501  HC9501      0.0001
     19  C17        7.9850   19.0830    5.6800 C.3   501  HC9501      0.0024
     20  C18       10.1440   17.8100    6.0920 C.3   501  HC9501      0.0000
     21  C19       11.4090   17.1450   10.6760 C.3   501  HC9501      0.0000
     22  C20        8.4170   19.7090    4.3050 C.3   501  HC9501      0.0304
     23  C21        9.2960   20.9760    4.4210 C.3   501  HC9501      0.0026
     24  C22        7.2840   19.9140    3.2830 C.3   501  HC9501      0.1519
     25  C23        6.3410   21.0720    3.5110 C.3   501  HC9501      0.0329
     26  C24        4.8980   20.8770    3.0700 C.3   501  HC9501      0.0026
     27  C25        4.0660   21.9920    3.7380 C.3   501  HC9501      0.0001
     28  C26        4.4390   22.1450    5.2240 C.3   501  HC9501      0.0000
     29  C27        2.5510   21.9250    3.6300 C.3   501  HC9501      0.0000
@<TRIPOS>BOND
     1     4    24    1
     2    26    25    1
     3    26    27    1
     4    24    25    1
     5    24    22    1
     6    29    27    1
     7    27    28    1
     8    22    23    1
     9    22    19    1
    10    18    19    1
    11    18    17    1
    12    19    15    1
    13    20    15    1
    14    17    16    1
    15    15    14    1
    16    15    16    1
    17    14    13    1
    18    16    10    1
    19    13    11    1
    20    10    11    1
    21    10     9    1
    22    11    12    1
    23     9     8    1
    24    21    12    1
    25    12     7    1
    26    12     1    1
    27     8     7    1
    28     7     6    1
    29     1     3    1
    30     6     5    1
    31     3     5    1
    32     5     2    1
