@<TRIPOS>MOLECULE
3mzs_HEM_A_1.pdb
 43 50 0 0 0
SMALL
GASTEIGER

@<TRIPOS>ATOM
      1  CHA        7.5060   15.8540    2.5140 C.2   500  HEM500      0.0000
      2  CHB       11.9950   17.5170    2.0240 C.2   500  HEM500      0.0000
      3  CHC       10.5270   20.4660   -1.5010 C.2   500  HEM500      0.0000
      4  CHD        5.9420   19.0950   -0.5400 C.2   500  HEM500      0.0000
      5  C1A        8.9790   16.0060    2.6590 C.2   500  HEM500      0.0000
      6  C2A        9.9060   15.2930    3.6130 C.2   500  HEM500      0.0000
      7  C3A       11.1020   15.7700    3.4520 C.2   500  HEM500      0.0000
      8  C4A       11.0620   16.6520    2.2570 C.2   500  HEM500      0.0000
      9  CMA       12.3490   15.2700    4.1560 C.3   500  HEM500      0.0000
     10  CAA        9.5840   14.1690    4.5470 C.3   500  HEM500      0.0000
     11  CBA       10.1200   12.8730    3.8760 C.3   500  HEM500      0.0000
     12  CGA        9.6940   11.5700    4.5120 C.2   500  HEM500      0.0000
     13  O1A        8.6490   11.5270    5.1900 O.co2 500  HEM500      0.0000
     14  O2A       10.4950   10.5370    4.1990 O.co2 500  HEM500      0.0000
     15  C1B       11.9070   18.5180    0.9640 C.ar  500  HEM500      0.0000
     16  C2B       13.0250   19.1820    0.6190 C.ar  500  HEM500      0.0000
     17  C3B       12.6280   20.1880   -0.4180 C.ar  500  HEM500      0.0000
     18  C4B       11.0970   20.0410   -0.3590 C.ar  500  HEM500      0.0000
     19  CMB       14.3490   18.9340    1.1880 C.3   500  HEM500      0.0000
     20  CAB       13.3020   21.0850   -1.1190 C.3   500  HEM500      0.0000
     21  CBB       14.8660   21.1910   -1.1230 C.3   500  HEM500      0.0000
     22  C1C        9.1220   20.2610   -1.7040 C.2   500  HEM500      0.0000
     23  C2C        8.3800   20.7190   -2.6900 C.2   500  HEM500      0.0000
     24  C3C        6.9930   20.4280   -2.2880 C.2   500  HEM500      0.0000
     25  C4C        7.0710   19.8950   -1.0840 C.2   500  HEM500      0.0000
     26  CMC        8.7580   21.7690   -3.7410 C.3   500  HEM500      0.0000
     27  CAC        5.8000   20.5420   -3.1400 C.2   500  HEM500      0.0000
     28  CBC        5.8610   20.3940   -4.4610 C.2   500  HEM500      0.0000
     29  C1D        6.1390   17.9070    0.0450 C.ar  500  HEM500      0.0000
     30  C2D        4.9680   17.0500    0.3980 C.ar  500  HEM500      0.0000
     31  C3D        5.4640   15.9780    1.0250 C.ar  500  HEM500      0.0000
     32  C4D        6.8660   16.3930    1.4270 C.ar  500  HEM500      0.0000
     33  CMD        3.5290   17.3920    0.1010 C.3   500  HEM500      0.0000
     34  CAD        4.6380   14.9710    1.7780 C.3   500  HEM500      0.0000
     35  CBD        4.6200   13.6740    0.9440 C.3   500  HEM500      0.0000
     36  CGD        3.9140   12.5090    1.5900 C.2   500  HEM500      0.0000
     37  O1D        3.8610   12.3870    2.8330 O.co2 500  HEM500      0.0000
     38  O2D        3.3700   11.6410    0.7190 O.co2 500  HEM500      0.0000
     39  NA         9.8310   16.8780    1.8970 N.2   500  HEM500      0.0000
     40  NB        10.7820   18.8260    0.3300 N.ar  500  HEM500      0.0000
     41  NC         8.3870   19.7080   -0.7360 N.2   500  HEM500      0.0000
     42  ND         7.1640   17.5860    0.7620 N.ar  500  HEM500      0.0000
     43 FE          9.0000   18.1190    0.5040 Fe    500  HEM500      0.0000
@<TRIPOS>BOND
     1    28    27    2
     2    26    23    1
     3    27    24    1
     4    23    24    2
     5    23    22    1
     6    24    25    1
     7    22     3    2
     8    22    41    1
     9     3    18    1
    10    21    20    1
    11    20    17    1
    12    25    41    2
    13    25     4    1
    14    41    43    1
    15     4    29    2
    16    17    18   ar
    17    17    16   ar
    18    18    40   ar
    19    29    30   ar
    20    29    42   ar
    21    33    30    1
    22    40    43    1
    23    40    15   ar
    24    30    31   ar
    25    43    42    1
    26    43    39    1
    27    16    15   ar
    28    16    19    1
    29    38    36   ar
    30    42    32   ar
    31    35    36    1
    32    35    34    1
    33    15     2    1
    34    31    32   ar
    35    31    34    1
    36    32     1    2
    37    36    37   ar
    38    39     8    1
    39    39     5    2
    40     2     8    2
    41     8     7    1
    42     1     5    1
    43     5     6    1
    44     7     6    2
    45     7     9    1
    46     6    10    1
    47    11    12    1
    48    11    10    1
    49    14    12   ar
    50    12    13   ar
