@<TRIPOS>MOLECULE
3mzt_TFX_B_1.pdb
 21 22 0 0 0
SMALL
GASTEIGER

@<TRIPOS>ATOM
      1  N1       -26.0980   -9.6810  -11.1910 N.pl3 100  TFX100     -0.3006
      2  N1       -26.9420   -8.3470   -9.2240 N.2   100  TFX100     -0.2001
      3  S1       -26.5320   -8.8170   -8.7770 S.2   100  TFX100      0.0689
      4  C2       -26.5230  -14.0940   -7.3370 C.ar  100  TFX100      0.0479
      5  N2       -26.5060  -15.3580   -6.5730 N.pl3 100  TFX100     -0.3041
      6  C3       -27.6910  -13.2410   -7.3730 C.ar  100  TFX100      0.0142
      7  C4       -27.6810  -11.9860   -8.1410 C.ar  100  TFX100     -0.0013
      8  C5       -26.4130  -11.5560   -8.9130 C.ar  100  TFX100     -0.0023
      9  C6       -25.2190  -12.4640   -8.8630 C.ar  100  TFX100     -0.0013
     10  C7       -25.2170  -13.6650   -8.1360 C.ar  100  TFX100      0.0142
     11  C8       -26.3210  -10.2560   -9.7780 C.3   100  TFX100      0.1178
     12  C9       -26.1540   -8.0900  -11.2480 C.ar  100  TFX100      0.0666
     13  C10      -26.4050   -7.5210   -9.8240 C.ar  100  TFX100      0.1026
     14  C11      -26.4790   -6.1270   -9.6540 C.ar  100  TFX100      0.0168
     15  C12      -26.3150   -5.2030  -10.8340 C.ar  100  TFX100     -0.0203
     16  C13      -26.0810   -5.7360  -12.1590 C.ar  100  TFX100     -0.0029
     17  C14      -26.0020   -7.2250  -12.3510 C.ar  100  TFX100      0.0158
     18  C15      -27.6770  -15.7960   -5.8430 C.3   100  TFX100      0.1122
     19  C16      -25.3080  -16.1720   -6.5430 C.3   100  TFX100      0.1122
     20  C17      -25.8740  -10.5240  -12.3150 C.3   100  TFX100      0.1125
     21  C18      -26.3890   -3.7490  -10.6800 C.3   100  TFX100      0.0311
@<TRIPOS>BOND
     1    17    16   ar
     2    17    12   ar
     3    20     1    1
     4    16    15   ar
     5    12     1    1
     6    12    13   ar
     7     1    11    1
     8    15    21    1
     9    15    14   ar
    10    13    14   ar
    11    13     2    1
    12    11     8    1
    13     2     3    2
    14     8     9   ar
    15     8     7   ar
    16     9    10   ar
    17     7     6   ar
    18    10     4   ar
    19     6     4   ar
    20     4     5    1
    21     5    19    1
    22     5    18    1
