@<TRIPOS>MOLECULE
3n0b_UMP_A_1.pdb
 20 21 0 0 0
SMALL
GASTEIGER

@<TRIPOS>ATOM
      1  N1        43.4410   52.6460  128.7260 N.am  303  UMP303     -0.1790
      2  C2        43.6990   51.2870  128.7430 C.1   303  UMP303      0.2844
      3  N3        44.8100   50.8310  129.3230 N.2   303  UMP303     -0.2452
      4  C4        45.7180   51.6450  129.8690 C.1   303  UMP303      0.2182
      5  C5        45.5060   53.0050  129.8710 C.2   303  UMP303      0.1242
      6  C6        44.3320   53.4750  129.2870 C.2   303  UMP303      0.0928
      7  O2        42.8670   50.5190  128.2310 O.2   303  UMP303     -0.1918
      8  O4        46.7510   51.1670  130.3860 O.2   303  UMP303     -0.2085
      9  C1'       42.2150   53.1190  128.1070 C.3   303  UMP303      0.2090
     10  C2'       41.0090   52.7370  128.9690 C.3   303  UMP303      0.0874
     11  C3'       40.2020   54.0120  129.0800 C.3   303  UMP303      0.1857
     12  C4'       41.2040   55.1200  128.7670 C.3   303  UMP303      0.1774
     13  O3'       39.1920   54.0390  128.0710 O.3   303  UMP303     -0.2203
     14  O4'       42.2740   54.5320  128.0270 O.3   303  UMP303     -0.3339
     15  C5'       41.7530   55.8280  130.0260 C.3   303  UMP303      0.1858
     16  O5'       42.0890   54.8760  131.0430 O.3   303  UMP303     -0.2675
     17  P         42.9330   55.2920  132.3450 P.3   303  UMP303      0.5327
     18  OP1       43.0180   53.9570  133.0890 O.3   303  UMP303     -0.1145
     19  OP2       44.2730   55.8330  131.9410 O.2   303  UMP303     -0.2224
     20  OP3       42.0520   56.3410  132.9750 O.3   303  UMP303     -0.1145
@<TRIPOS>BOND
     1    14     9    1
     2    14    12    1
     3    13    11    1
     4     9     1    1
     5     9    10    1
     6     7     2    2
     7     1     2   am
     8     1     6    1
     9     2     3    2
    10    12    11    1
    11    12    15    1
    12    10    11    1
    13     6     5    2
    14     3     4    2
    15     4     5    1
    16     4     8    2
    17    15    16    1
    18    16    17    1
    19    19    17    2
    20    17    20    1
    21    17    18    1
