@<TRIPOS>MOLECULE
3n0c_UMP_A_1.pdb
 20 21 0 0 0
SMALL
GASTEIGER

@<TRIPOS>ATOM
      1  N1        43.4910   52.6790  128.8950 N.am  303  UMP303     -0.1790
      2  C2        43.7660   51.3060  128.8760 C.1   303  UMP303      0.2844
      3  N3        44.8890   50.8790  129.4740 N.2   303  UMP303     -0.2452
      4  C4        45.7500   51.7130  130.0780 C.1   303  UMP303      0.2182
      5  C5        45.4940   53.0660  130.0840 C.2   303  UMP303      0.1242
      6  C6        44.3320   53.5230  129.4890 C.2   303  UMP303      0.0928
      7  O2        42.9440   50.5100  128.3140 O.2   303  UMP303     -0.1918
      8  O4        46.7940   51.2930  130.6490 O.2   303  UMP303     -0.2085
      9  C1'       42.2660   53.1400  128.2620 C.3   303  UMP303      0.2090
     10  C2'       41.0680   52.7710  129.1600 C.3   303  UMP303      0.0874
     11  C3'       40.2290   54.0180  129.2030 C.3   303  UMP303      0.1857
     12  C4'       41.2520   55.1100  128.9410 C.3   303  UMP303      0.1774
     13  O3'       39.2580   54.0600  128.1480 O.3   303  UMP303     -0.2203
     14  O4'       42.2850   54.5360  128.1330 O.3   303  UMP303     -0.3339
     15  C5'       41.8340   55.7540  130.2260 C.3   303  UMP303      0.1858
     16  O5'       42.1950   54.7850  131.2190 O.3   303  UMP303     -0.2675
     17  P         43.0140   55.2660  132.5010 P.3   303  UMP303      0.5327
     18  OP1       43.0530   53.9950  133.3540 O.3   303  UMP303     -0.1145
     19  OP2       44.3410   55.7560  132.0150 O.2   303  UMP303     -0.2224
     20  OP3       42.1360   56.3990  133.0560 O.3   303  UMP303     -0.1145
@<TRIPOS>BOND
     1    14     9    1
     2    14    12    1
     3    13    11    1
     4     9     1    1
     5     9    10    1
     6     7     2    2
     7     2     1   am
     8     2     3    2
     9     1     6    1
    10    12    11    1
    11    12    15    1
    12    10    11    1
    13     3     4    2
    14     6     5    2
    15     4     5    1
    16     4     8    2
    17    15    16    1
    18    16    17    1
    19    19    17    2
    20    17    20    1
    21    17    18    1
