@<TRIPOS>MOLECULE
3n0g_DST_A_1.pdb
 14 13 0 0 0
SMALL
GASTEIGER

@<TRIPOS>ATOM
      1  O4        45.5640   17.0590   38.4710 O.3   601  DST601     -0.1143
      2  P1        46.4290   18.2420   39.1260 P.3   601  DST601      0.5394
      3  O6        45.9590   18.4070   40.6460 O.3   601  DST601     -0.1143
      4  O5        46.2300   19.5420   38.3900 O.2   601  DST601     -0.2220
      5  O2        47.9650   17.7880   39.1650 O.3   601  DST601     -0.1955
      6  P3        49.2650   18.6910   38.8440 P.3   601  DST601      0.4273
      7  O8        49.1830   19.0160   37.2580 O.2   601  DST601     -0.2431
      8  O7        49.2200   19.9440   39.6650 O.3   601  DST601     -0.1309
      9  S9        50.9810   17.6820   39.2420 S.3   601  DST601     -0.0237
     10  C10       50.8390   16.8300   40.8580 C.3   601  DST601      0.0942
     11  C11       51.3370   17.7200   41.9820 C.2   601  DST601     -0.0224
     12  C12       50.6090   18.4020   42.9090 C.2   601  DST601     -0.0470
     13  C13       51.3020   19.2410   43.9630 C.3   601  DST601      0.0261
     14  C14       49.0890   18.4240   43.0220 C.3   601  DST601      0.0261
@<TRIPOS>BOND
     1     7     6    2
     2     4     2    2
     3     1     2    1
     4     6     5    1
     5     6     9    1
     6     6     8    1
     7     2     5    1
     8     2     3    1
     9     9    10    1
    10    10    11    1
    11    11    12    2
    12    12    14    1
    13    12    13    1
