@<TRIPOS>MOLECULE
3n0h_TOP_A_1.pdb
 21 22 0 0 0
SMALL
GASTEIGER

@<TRIPOS>ATOM
      1  C1        -3.4720  -16.8490    2.7540 C.2   187  TOP187      0.1118
      2  N2        -3.2870  -17.4760    3.9080 N.2   187  TOP187     -0.1675
      3  C3        -2.8880  -18.7560    3.9570 C.1   187  TOP187      0.1877
      4  N4        -2.6720  -19.3000    5.1860 N.pl3 187  TOP187     -0.0345
      5  N5        -2.7070  -19.4680    2.8340 N.2   187  TOP187     -0.3170
      6  C6        -2.8840  -18.9080    1.6270 C.2   187  TOP187      0.2297
      7  N7        -2.6670  -19.6170    0.5020 N.pl3 187  TOP187     -0.0924
      8  C8        -3.2870  -17.4930    1.5600 C.2   187  TOP187      0.0500
      9  C9        -3.5320  -16.7250    0.2650 C.3   187  TOP187      0.0585
     10  C10       -2.2390  -16.0280   -0.2150 C.ar  187  TOP187     -0.0114
     11  C11       -1.7110  -16.4250   -1.4560 C.ar  187  TOP187      0.0363
     12  C12       -0.5550  -15.8560   -1.9990 C.ar  187  TOP187      0.1751
     13  O13        0.0140  -16.2370   -3.1930 O.3   187  TOP187     -0.4683
     14  C14       -0.5820  -17.3170   -3.9080 C.3   187  TOP187      0.2526
     15  C15        0.1650  -14.8360   -1.2380 C.ar  187  TOP187      0.2060
     16  O16        1.2660  -14.2520   -1.7630 O.3   187  TOP187     -0.4654
     17  C17        1.0440  -13.1810   -2.6950 C.3   187  TOP187      0.2528
     18  C18       -0.3760  -14.4190    0.0620 C.ar  187  TOP187      0.1751
     19  O19        0.2950  -13.4150    0.7240 O.3   187  TOP187     -0.4683
     20  C20       -0.3350  -13.0380    1.9590 C.3   187  TOP187      0.2526
     21  C21       -1.5600  -15.0430    0.5560 C.ar  187  TOP187      0.0363
@<TRIPOS>BOND
     1    14    13    1
     2    13    12    1
     3    17    16    1
     4    12    11   ar
     5    12    15   ar
     6    16    15    1
     7    11    10   ar
     8    15    18   ar
     9    10     9    1
    10    10    21   ar
    11    18    21   ar
    12    18    19    1
    13     9     8    1
    14     7     6    1
    15    19    20    1
    16     8     6    1
    17     8     1    2
    18     6     5    2
    19     1     2    1
    20     5     3    2
    21     2     3    2
    22     3     4    1
