@<TRIPOS>MOLECULE
3n0i_SIA_B_1.pdb
 20 20 0 0 0
SMALL
GASTEIGER

@<TRIPOS>ATOM
      1  C1       -19.0320   17.8590  -29.1690 C.2     1  SIA1        0.3914
      2  C2       -19.8770   17.5900  -27.9380 C.3     1  SIA1        0.2203
      3  C3       -20.0340   16.0710  -27.7080 C.3     1  SIA1        0.0760
      4  C4       -18.7400   15.3830  -27.2010 C.3     1  SIA1        0.1773
      5  C5       -18.1780   16.1220  -25.9810 C.3     1  SIA1        0.1552
      6  C6       -17.9950   17.5850  -26.3960 C.3     1  SIA1        0.1710
      7  C7       -17.4990   18.4960  -25.2860 C.3     1  SIA1        0.2134
      8  C8       -17.5050   19.9660  -25.6870 C.3     1  SIA1        0.2173
      9  C9       -16.6420   20.8010  -24.7370 C.3     1  SIA1        0.2175
     10  C10      -16.6470   14.8260  -24.4550 C.2     1  SIA1        0.2420
     11  C11      -15.2020   14.4380  -24.3110 C.3     1  SIA1        0.0964
     12  N5       -16.8830   15.5740  -25.5440 N.am    1  SIA1       -0.2020
     13  O1A      -18.2750   18.8290  -29.1910 O.co2   1  SIA1       -0.2430
     14  O1B      -19.1400   17.0840  -30.1560 O.co2   1  SIA1       -0.2430
     15  O4       -19.0270   14.0160  -26.9040 O.3     1  SIA1       -0.2211
     16  O6       -19.2710   18.1410  -26.7750 O.3     1  SIA1       -0.3429
     17  O7       -18.3490   18.3020  -24.1570 O.3     1  SIA1       -0.2176
     18  O8       -17.0320   20.1270  -27.0230 O.3     1  SIA1       -0.2175
     19  O9       -15.2440   20.4310  -24.8610 O.3     1  SIA1       -0.2175
     20  O10      -17.4870   14.4260  -23.6650 O.2     1  SIA1       -0.2733
@<TRIPOS>BOND
     1    14     1   ar
     2    13     1   ar
     3     1     2    1
     4     2     3    1
     5     2    16    1
     6     3     4    1
     7     4    15    1
     8     4     5    1
     9    18     8    1
    10    16     6    1
    11     6     5    1
    12     6     7    1
    13     5    12    1
    14     8     7    1
    15     8     9    1
    16    12    10   am
    17     7    17    1
    18    19     9    1
    19    10    11    1
    20    10    20    2
