@<TRIPOS>MOLECULE
3n0n_P9B_A_1.pdb
 32 33 0 0 0
SMALL
GASTEIGER

@<TRIPOS>ATOM
      1  C1        -5.1560    2.2640   15.7830 C.ar  263  P9B263      0.1067
      2  N1        -5.3990   -0.3890   16.0460 N.3   263  P9B263     -0.1053
      3  O1        -5.3500    1.0290   18.0300 O.2   263  P9B263     -0.1519
      4  S1        -5.8790    0.9470   16.6980 S.O2  263  P9B263      0.0723
      5  C2        -3.7120    2.2500   15.4550 C.ar  263  P9B263     -0.0336
      6  O2        -7.2950    1.0720   16.6250 O.2   263  P9B263     -0.1519
      7  C3        -3.1370    3.2740   14.7980 C.ar  263  P9B263     -0.0386
      8  C4        -3.9760    4.3770   14.3520 C.ar  263  P9B263      0.0349
      9  C5        -5.3110    4.4310   14.6390 C.ar  263  P9B263     -0.0386
     10  C6        -5.9350    3.3190   15.3850 C.ar  263  P9B263     -0.0336
     11  N7        -3.3560    5.4560   13.6950 N.am  263  P9B263     -0.2692
     12  C8        -4.0350    6.2540   12.7490 C.2   263  P9B263      0.3082
     13  O8        -5.1520    5.9930   12.3080 O.2   263  P9B263     -0.2521
     14  N9        -3.2990    7.3430   12.2220 N.am  263  P9B263     -0.2643
     15  C10       -2.0410    7.7650   12.7340 C.ar  263  P9B263      0.1118
     16  C11       -1.9380    8.0970   14.0730 C.ar  263  P9B263      0.1853
     17  F11       -2.9420    7.9460   14.9360 F     263  P9B263     -0.2003
     18  C12       -0.7460    8.5890   14.5700 C.ar  263  P9B263      0.1982
     19  F12       -0.7340    8.8410   15.8680 F     263  P9B263     -0.1993
     20  C13        0.3580    8.7780   13.7280 C.ar  263  P9B263      0.1992
     21  F13        1.5250    9.2580   14.1640 F     263  P9B263     -0.1993
     22  C14        0.2080    8.4570   12.3750 C.ar  263  P9B263      0.1982
     23  F14        1.2260    8.6330   11.5510 F     263  P9B263     -0.1993
     24  C15       -1.0020    7.9830   11.8820 C.ar  263  P9B263      0.1853
     25  F15       -1.1810    7.6720   10.6030 F     263  P9B263     -0.2003
     26  HN1       -5.6610   -1.1840   16.3950 H     263  P9B263      0.1694
     27  H2        -3.1620    1.5090   15.7570 H     263  P9B263      0.0638
     28  H3        -2.1900    3.2580   14.5900 H     263  P9B263      0.0637
     29  H5        -5.8420    5.1890   14.3550 H     263  P9B263      0.0637
     30  H6        -6.8820    3.3370   15.5930 H     263  P9B263      0.0638
     31  HN7       -2.5580    5.7490   14.0120 H     263  P9B263      0.1564
     32  HN9       -3.7030    7.8680   11.6020 H     263  P9B263      0.1566
@<TRIPOS>BOND
     1    25    24    1
     2    23    22    1
     3    32    14    1
     4    24    22   ar
     5    24    15   ar
     6    14    15    1
     7    14    12   am
     8    13    12    2
     9    22    20   ar
    10    15    16   ar
    11    12    11   am
    12    11    31    1
    13    11     8    1
    14    20    21    1
    15    20    18   ar
    16    16    18   ar
    17    16    17    1
    18     8     9   ar
    19     8     7   ar
    20    29     9    1
    21    18    19    1
    22    28     7    1
    23     9    10   ar
    24     7     5   ar
    25    10    30    1
    26    10     1   ar
    27     5    27    1
    28     5     1   ar
    29     1     4    1
    30     2    26    1
    31     2     4    1
    32     6     4    2
    33     4     3    2
