@<TRIPOS>MOLECULE
3n0y_APC_A_1.pdb
 31 33 0 0 0
SMALL
GASTEIGER

@<TRIPOS>ATOM
      1  PG        -0.8360    4.0480    7.6470 P.3   181  APC181      0.5389
      2  O1G       -1.8860    4.1110    6.5380 O.2   181  APC181     -0.2220
      3  O2G       -0.2710    2.6970    8.0150 O.3   181  APC181     -0.1143
      4  O3G        0.2910    4.9860    7.2870 O.3   181  APC181     -0.1143
      5  PB        -2.2980    4.9510   10.1610 P.3   181  APC181      0.3895
      6  O1B       -3.6170    4.7160    9.4850 O.2   181  APC181     -0.2544
      7  O2B       -2.0150    6.2940   10.7520 O.3   181  APC181     -0.1388
      8  O3B       -1.1600    4.9160    9.0020 O.3   181  APC181     -0.2026
      9  PA        -3.3620    2.8290   12.0790 P.3   181  APC181      0.3820
     10  O1A       -4.1110    2.1470   10.9590 O.2   181  APC181     -0.2548
     11  O2A       -4.1690    3.8470   12.8920 O.3   181  APC181     -0.1392
     12  C3A       -1.8920    3.6570   11.3740 C.3   181  APC181      0.2357
     13  O5'       -2.9170    1.6980   13.1140 O.3   181  APC181     -0.2896
     14  C5'       -3.0980    1.8380   14.5340 C.3   181  APC181      0.1836
     15  C4'       -3.6400    0.5800   15.1880 C.3   181  APC181      0.1822
     16  O4'       -3.7850    0.7480   16.6090 O.3   181  APC181     -0.3135
     17  C3'       -5.0240    0.2260   14.6710 C.3   181  APC181      0.2184
     18  O3'       -4.9430   -0.6790   13.5840 O.3   181  APC181     -0.2174
     19  C2'       -5.7420   -0.4000   15.8590 C.3   181  APC181      0.2570
     20  O2'       -5.5770   -1.8110   15.9870 O.3   181  APC181     -0.2130
     21  C1'       -5.0280    0.1830   17.0610 C.3   181  APC181      0.3186
     22  N9        -5.9060    1.1800   17.7220 N.pl3 181  APC181     -0.1439
     23  C8        -6.4590    2.2880   17.1850 C.3   181  APC181      0.3377
     24  N7        -7.2090    2.9530   18.1110 N.2   181  APC181     -0.2095
     25  C5        -7.1000    2.2510   19.2450 C.2   181  APC181      0.2526
     26  C6        -7.6290    2.3980   20.6000 C.2   181  APC181      0.4393
     27  N6        -8.3880    3.4710   20.8660 N.pl3 181  APC181      0.2180
     28  N1        -7.2960    1.4580   21.5280 N.2   181  APC181      0.0021
     29  C2        -6.5210    0.3990   21.2270 C.3   181  APC181      0.5254
     30  N3        -6.0050    0.1960   19.9900 N.2   181  APC181     -0.0055
     31  C4        -6.2590    1.0840   18.9900 C.2   181  APC181      0.3518
@<TRIPOS>BOND
     1     2     1    2
     2     4     1    1
     3     1     3    1
     4     1     8    1
     5     8     5    1
     6     6     5    2
     7     5     7    1
     8     5    12    1
     9    10     9    2
    10    12     9    1
    11     9    11    1
    12     9    13    1
    13    13    14    1
    14    18    17    1
    15    14    15    1
    16    17    15    1
    17    17    19    1
    18    15    16    1
    19    19    20    1
    20    19    21    1
    21    16    21    1
    22    21    22    1
    23    23    22    1
    24    23    24    1
    25    22    31    1
    26    24    25    2
    27    31    25    1
    28    31    30    2
    29    25    26    1
    30    30    29    1
    31    26    27    1
    32    26    28    2
    33    29    28    1
