@<TRIPOS>MOLECULE
3n0z_3AT_A_1.pdb
 30 32 0 0 0
SMALL
GASTEIGER

@<TRIPOS>ATOM
      1  PG        -1.0920    3.6660    7.6870 P.3   181  3AT181      0.5373
      2  O1G       -2.2570    2.7790    7.9110 O.3   181  3AT181     -0.1143
      3  O2G       -1.2390    4.4000    6.4070 O.2   181  3AT181     -0.2221
      4  O3G        0.1590    2.8530    7.8700 O.3   181  3AT181     -0.1143
      5  PB        -2.3690    4.9690   10.0450 P.3   181  3AT181      0.2277
      6  O1B       -2.1030    6.3100   10.6630 O.3   181  3AT181     -0.4368
      7  O2B       -3.6900    4.8200    9.4030 O.2   181  3AT181     -0.5168
      8  O3B       -1.1890    4.7520    8.9180 O.3   181  3AT181     -0.2258
      9  PA        -3.2230    2.8860   11.6480 P.3   181  3AT181      0.2189
     10  O1A       -4.1120    3.7530   12.5290 O.3   181  3AT181     -0.4371
     11  O2A       -3.8360    2.2060   10.4560 O.2   181  3AT181     -0.5170
     12  O3A       -2.0380    3.8310   11.1570 O.3   181  3AT181     -0.2700
     13  O5'       -2.4380    1.8630   12.5410 O.3   181  3AT181     -0.3113
     14  C5'       -2.5700    2.0040   13.9430 C.3   181  3AT181      0.1787
     15  C4'       -3.3470    0.8190   14.5170 C.3   181  3AT181      0.1520
     16  O4'       -3.5620    1.0230   15.9050 O.3   181  3AT181     -0.3163
     17  C3'       -4.5970    0.5210   13.9890 C.3   181  3AT181      0.0722
     18  C2'       -5.3200   -0.2080   15.0980 C.3   181  3AT181      0.2270
     19  O2'       -5.1020   -1.6070   14.8850 O.3   181  3AT181     -0.2158
     20  C1'       -4.7700    0.3720   16.3030 C.3   181  3AT181      0.3159
     21  N9        -5.6460    1.2620   17.1420 N.pl3 181  3AT181     -0.1439
     22  C8        -6.3080    2.3710   16.7500 C.3   181  3AT181      0.3377
     23  N7        -7.0190    2.8790   17.7910 N.2   181  3AT181     -0.2095
     24  C5        -6.7990    2.0630   18.8470 C.2   181  3AT181      0.2526
     25  C6        -7.2440    2.0760   20.1570 C.2   181  3AT181      0.4393
     26  N6        -8.0630    3.0590   20.5550 N.pl3 181  3AT181      0.2180
     27  N1        -6.8350    1.1030   21.0140 N.2   181  3AT181      0.0021
     28  C2        -6.0060    0.1370   20.5930 C.3   181  3AT181      0.5254
     29  N3        -5.5650    0.1040   19.3220 N.2   181  3AT181     -0.0055
     30  C4        -5.9450    1.0580   18.4380 C.2   181  3AT181      0.3518
@<TRIPOS>BOND
     1     3     1    2
     2     1     4    1
     3     1     2    1
     4     1     8    1
     5     8     5    1
     6     7     5    2
     7     5     6    1
     8     5    12    1
     9    11     9    2
    10    12     9    1
    11     9    10    1
    12     9    13    1
    13    13    14    1
    14    14    15    1
    15    17    15    1
    16    17    18    1
    17    15    16    1
    18    19    18    1
    19    18    20    1
    20    16    20    1
    21    20    21    1
    22    22    21    1
    23    22    23    1
    24    21    30    1
    25    23    24    2
    26    30    24    1
    27    30    29    2
    28    24    25    1
    29    29    28    1
    30    25    26    1
    31    25    27    2
    32    28    27    1
