@<TRIPOS>MOLECULE
3n10_CMP_A_1.pdb
 22 25 0 0 0
SMALL
GASTEIGER

@<TRIPOS>ATOM
      1  P         -3.6910    2.1140   13.0180 P.3   181  CMP181      0.2141
      2  O1P       -3.8950    3.5900   13.2080 O.3   181  CMP181     -0.4373
      3  O2P       -3.4940    1.7970   11.5510 O.2   181  CMP181     -0.5172
      4  O5'       -2.4240    1.6400   13.9140 O.3   181  CMP181     -0.3114
      5  C5'       -2.5500    1.4980   15.3280 C.3   181  CMP181      0.1812
      6  C4'       -3.7570    0.6150   15.5580 C.3   181  CMP181      0.1793
      7  O4'       -4.0470    0.3840   16.9290 O.3   181  CMP181     -0.3136
      8  C3'       -5.0320    1.2610   15.0220 C.3   181  CMP181      0.1884
      9  O3'       -4.9810    1.2880   13.5960 O.3   181  CMP181     -0.3111
     10  C2'       -6.1050    0.4110   15.6810 C.3   181  CMP181      0.2541
     11  O2'       -6.3690   -0.7760   14.9150 O.3   181  CMP181     -0.2131
     12  C1'       -5.4390    0.0390   17.0170 C.3   181  CMP181      0.3185
     13  N9        -6.0370    0.7180   18.2020 N.pl3 181  CMP181     -0.1439
     14  C8        -5.9680    0.2290   19.4520 C.3   181  CMP181      0.3377
     15  N7        -6.5970    1.0400   20.3350 N.2   181  CMP181     -0.2095
     16  C5        -7.0860    2.0840   19.6430 C.2   181  CMP181      0.2526
     17  C6        -7.8640    3.3020   19.9680 C.2   181  CMP181      0.4393
     18  N6        -8.2340    3.5530   21.2500 N.pl3 181  CMP181      0.2180
     19  N1        -8.1760    4.1490   18.9510 N.2   181  CMP181      0.0021
     20  C2        -7.8110    3.8890   17.6750 C.3   181  CMP181      0.5254
     21  N3        -7.1120    2.7920   17.3000 N.2   181  CMP181     -0.0055
     22  C4        -6.7200    1.8680   18.2280 C.2   181  CMP181      0.3518
@<TRIPOS>BOND
     1     3     1    2
     2     1     2    1
     3     1     9    1
     4     1     4    1
     5     9     8    1
     6     4     5    1
     7    11    10    1
     8     8     6    1
     9     8    10    1
    10     5     6    1
    11     6     7    1
    12    10    12    1
    13     7    12    1
    14    12    13    1
    15    21    20    1
    16    21    22    2
    17    20    19    1
    18    13    22    1
    19    13    14    1
    20    22    16    1
    21    19    17    2
    22    14    15    1
    23    16    17    1
    24    16    15    2
    25    17    18    1
