@<TRIPOS>MOLECULE
3n13_NAG_A_1.pdb
 15 15 0 0 0
SMALL
GASTEIGER

@<TRIPOS>ATOM
      1  C1        -7.9910  -22.1270   11.7640 C.3   902  NAG902      0.2917
      2  C2        -8.9600  -22.8060   12.7240 C.3   902  NAG902      0.1871
      3  C3        -8.4000  -24.1580   13.1440 C.3   902  NAG902      0.2095
      4  C4        -7.8140  -24.9430   11.9650 C.3   902  NAG902      0.2136
      5  C5        -7.1130  -24.0700   10.9250 C.3   902  NAG902      0.1835
      6  C6        -6.8370  -24.8850    9.6650 C.3   902  NAG902      0.2142
      7  C7       -10.2800  -21.2830   14.1160 C.2   902  NAG902      0.2421
      8  C8       -10.2240  -20.2700   15.2130 C.3   902  NAG902      0.0964
      9  N2        -9.1660  -21.9800   13.9050 N.am  902  NAG902     -0.1991
     10  O1        -8.4500  -20.8360   11.4400 O.3   902  NAG902     -0.1879
     11  O3        -9.4140  -24.9150   13.7800 O.3   902  NAG902     -0.2183
     12  O4        -6.8150  -25.8100   12.4420 O.3   902  NAG902     -0.2176
     13  O5        -7.8750  -22.9270   10.6110 O.3   902  NAG902     -0.3242
     14  O6        -6.0200  -24.1510    8.7800 O.3   902  NAG902     -0.2176
     15  O7       -11.3190  -21.4300   13.4710 O.2   902  NAG902     -0.2733
@<TRIPOS>BOND
     1    14     6    1
     2     6     5    1
     3    13     5    1
     4    13     1    1
     5     5     4    1
     6    10     1    1
     7     1     2    1
     8     4    12    1
     9     4     3    1
    10     2     3    1
    11     2     9    1
    12     3    11    1
    13    15     7    2
    14     9     7   am
    15     7     8    1
