@<TRIPOS>MOLECULE
3n14_FMN_A_1.pdb
 31 33 0 0 0
SMALL
GASTEIGER

@<TRIPOS>ATOM
      1  N1        -9.6010  -17.6410  -19.1450 N.2   1401  FMN1401    -0.2887
      2  C2        -9.4330  -18.4320  -20.2500 C.1   1401  FMN1401     0.3669
      3  O2        -9.0170  -19.5760  -20.0830 O.2   1401  FMN1401    -0.1744
      4  N3        -9.7450  -17.8400  -21.4570 N.2   1401  FMN1401    -0.2300
      5  C4       -10.2050  -16.5460  -21.5720 C.1   1401  FMN1401     0.2513
      6  O4       -10.4600  -16.0860  -22.6920 O.2   1401  FMN1401    -0.2057
      7  C4A      -10.4020  -15.7230  -20.4760 C.2   1401  FMN1401     0.2703
      8  N5       -10.8670  -14.4200  -20.4960 N.2   1401  FMN1401    -0.3882
      9  C5A      -10.9970  -13.7020  -19.3240 C.2   1401  FMN1401     0.1277
     10  C6       -11.4540  -12.3830  -19.3190 C.3   1401  FMN1401     0.0820
     11  C7       -11.6080  -11.6280  -18.1590 C.2   1401  FMN1401    -0.0408
     12  C7M      -12.1150  -10.2620  -18.5310 C.3   1401  FMN1401     0.0265
     13  C8       -11.2650  -12.2830  -16.9880 C.2   1401  FMN1401    -0.0280
     14  C8M      -11.4440  -11.4230  -15.7590 C.3   1401  FMN1401     0.0304
     15  C9       -10.8150  -13.5970  -16.9960 C.2   1401  FMN1401     0.0123
     16  C9A      -10.6580  -14.3710  -18.1430 C.2   1401  FMN1401     0.0793
     17  N10      -10.2000  -15.6710  -18.1010 N.pl3 1401  FMN1401    -0.2545
     18  C10      -10.0630  -16.3600  -19.2840 C.2   1401  FMN1401     0.2449
     19  C1'       -9.8310  -16.2970  -16.7750 C.3   1401  FMN1401     0.1336
     20  C2'       -8.4380  -15.7390  -16.4260 C.3   1401  FMN1401     0.2048
     21  O2'       -7.4950  -16.2960  -17.3200 O.3   1401  FMN1401    -0.2185
     22  C3'       -7.9700  -16.0430  -14.9960 C.3   1401  FMN1401     0.2165
     23  O3'       -7.9460  -17.4450  -14.7940 O.3   1401  FMN1401    -0.2175
     24  C4'       -8.8880  -15.3780  -13.9610 C.3   1401  FMN1401     0.2147
     25  O4'       -9.0370  -13.9850  -14.1920 O.3   1401  FMN1401    -0.2176
     26  C5'       -8.4340  -15.5620  -12.5110 C.3   1401  FMN1401     0.1892
     27  O5'       -7.1120  -15.0960  -12.3060 O.3   1401  FMN1401    -0.2674
     28  P         -6.8610  -13.6590  -11.6070 P.3   1401  FMN1401     0.5327
     29  O1P       -7.7340  -12.6430  -12.3120 O.2   1401  FMN1401    -0.2224
     30  O2P       -7.3020  -13.6960  -10.1610 O.3   1401  FMN1401    -0.1145
     31  O3P       -5.3910  -13.3170  -11.6700 O.3   1401  FMN1401    -0.1145
@<TRIPOS>BOND
     1     6     5    2
     2     5     4    2
     3     5     7    1
     4     4     2    2
     5     8     7    2
     6     8     9    2
     7     7    18    1
     8     2     3    2
     9     2     1    2
    10     9    10    1
    11     9    16    1
    12    10    11    1
    13    18     1    2
    14    18    17    1
    15    12    11    1
    16    11    13    2
    17    16    17    1
    18    16    15    2
    19    17    19    1
    20    21    20    1
    21    15    13    1
    22    13    14    1
    23    19    20    1
    24    20    22    1
    25    22    23    1
    26    22    24    1
    27    25    24    1
    28    24    26    1
    29    26    27    1
    30    29    28    2
    31    27    28    1
    32    31    28    1
    33    28    30    1
