@<TRIPOS>MOLECULE
3n15_NAG_A_1.pdb
 15 15 0 0 0
SMALL
GASTEIGER

@<TRIPOS>ATOM
      1  C1        -2.9250    8.2810    3.0660 C.3   902  NAG902      0.2917
      2  C2        -2.5050    6.8820    3.5200 C.3   902  NAG902      0.1871
      3  C3        -3.4630    6.2200    4.5170 C.3   902  NAG902      0.2095
      4  C4        -4.0560    7.2480    5.4820 C.3   902  NAG902      0.2136
      5  C5        -4.6330    8.4170    4.6940 C.3   902  NAG902      0.1835
      6  C6        -5.3640    9.4340    5.5740 C.3   902  NAG902      0.2142
      7  C7        -3.1730    5.9640    1.3630 C.2   902  NAG902      0.2421
      8  C8        -3.0640    5.2190    0.3780 C.3   902  NAG902      0.0964
      9  N2        -2.2810    6.0360    2.3500 N.am  902  NAG902     -0.1991
     10  O1        -1.7430    8.9750    2.7160 O.3   902  NAG902     -0.1879
     11  O3        -2.7200    5.2450    5.2180 O.3   902  NAG902     -0.2183
     12  O4        -5.1020    6.6870    6.2310 O.3   902  NAG902     -0.2176
     13  O5        -3.5450    9.0490    4.0720 O.3   902  NAG902     -0.3242
     14  O6        -6.0440   10.3740    4.7640 O.3   902  NAG902     -0.2176
     15  O7        -4.3570    6.8570    1.4990 O.2   902  NAG902     -0.2733
@<TRIPOS>BOND
     1     8     7    1
     2     7    15    2
     3     7     9   am
     4     9     2    1
     5    10     1    1
     6     1     2    1
     7     1    13    1
     8     2     3    1
     9    13     5    1
    10     3    11    1
    11     3     4    1
    12     5     4    1
    13     5     6    1
    14    14     6    1
    15     4    12    1
