@<TRIPOS>MOLECULE
3n16_FMN_A_1.pdb
 47 49 0 0 0
SMALL
GASTEIGER

@<TRIPOS>ATOM
      1  N1        19.4140   23.9800   59.1350 N.2   1401  FMN1401    -0.3029
      2  C2        19.5790   23.2530   57.9730 C.1   1401  FMN1401     0.2727
      3  O2        19.9170   22.0640   58.0920 O.2   1401  FMN1401    -0.1927
      4  N3        19.4280   23.8530   56.7270 N.am  1401  FMN1401    -0.1956
      5  C4        19.0640   25.1530   56.6500 C.2   1401  FMN1401     0.2929
      6  O4        19.0140   25.7470   55.5290 O.2   1401  FMN1401    -0.2661
      7  C4A       18.8080   25.8620   57.7710 C.2   1401  FMN1401     0.2291
      8  N5        18.3870   27.1810   57.7300 N.2   1401  FMN1401    -0.4002
      9  C5A       18.3050   27.9830   58.8660 C.2   1401  FMN1401     0.1045
     10  C6        18.0160   29.3260   58.7550 C.3   1401  FMN1401     0.0308
     11  C7        17.9160   30.0680   59.9410 C.3   1401  FMN1401     0.0080
     12  C7M       17.6430   31.5770   59.7330 C.3   1401  FMN1401    -0.0544
     13  C8        18.1120   29.4960   61.2010 C.2   1401  FMN1401    -0.0666
     14  C8M       18.0380   30.3710   62.4420 C.3   1401  FMN1401    -0.0431
     15  C9        18.4450   28.1600   61.2760 C.2   1401  FMN1401    -0.0518
     16  C9A       18.5350   27.3930   60.1030 C.3   1401  FMN1401     0.1366
     17  N10       18.8460   26.0070   60.1810 N.pl3 1401  FMN1401    -0.2814
     18  C10       19.0340   25.2780   59.0570 C.2   1401  FMN1401     0.2319
     19  C1'       19.2570   25.3900   61.4970 C.3   1401  FMN1401     0.0478
     20  C2'       20.7120   25.9030   61.7820 C.3   1401  FMN1401     0.1410
     21  O2'       21.6500   25.3380   60.8760 O.3   1401  FMN1401    -0.2266
     22  C3'       21.1580   25.5560   63.2590 C.3   1401  FMN1401     0.1553
     23  O3'       21.1360   24.1560   63.4500 O.3   1401  FMN1401    -0.2254
     24  C4'       20.2380   26.2070   64.3220 C.3   1401  FMN1401     0.1490
     25  O4'       20.0920   27.5910   64.0270 O.3   1401  FMN1401    -0.2259
     26  C5'       20.8200   25.9770   65.7400 C.3   1401  FMN1401     0.0910
     27  O5'       22.0940   26.5900   65.9460 O.3   1401  FMN1401    -0.2808
     28  P         22.2150   28.0400   66.6930 P.3   1401  FMN1401     0.5320
     29  O1P       21.4330   29.0170   65.8350 O.2   1401  FMN1401    -0.2224
     30  O2P       21.5860   27.8940   68.0450 O.3   1401  FMN1401    -0.1145
     31  O3P       23.6730   28.2920   66.7050 O.3   1401  FMN1401    -0.1145
     32  HN3       19.4970   23.2790   55.8620 H     1401  FMN1401     0.1693
     33  H6        18.1560   29.8360   57.8020 H     1401  FMN1401     0.0387
     34 HM71       16.6770   31.7070   59.2450 H     1401  FMN1401     0.0239
     35 HM72       18.4270   32.0050   59.1080 H     1401  FMN1401     0.0239
     36 HM73       17.6330   32.0810   60.6990 H     1401  FMN1401     0.0239
     37 HM81       17.0310   30.7740   62.5430 H     1401  FMN1401     0.0275
     38 HM82       18.7500   31.1910   62.3500 H     1401  FMN1401     0.0275
     39 HM83       18.2810   29.7750   63.3220 H     1401  FMN1401     0.0275
     40  H9        18.5870   27.6870   62.2480 H     1401  FMN1401     0.0598
     41 H1'1       18.5800   25.7020   62.2920 H     1401  FMN1401     0.0492
     42 H1'2       19.2440   24.3020   61.4280 H     1401  FMN1401     0.0492
     43  H2'       20.7150   26.9880   61.6730 H     1401  FMN1401     0.0672
     44  H3'       22.1720   25.9270   63.4080 H     1401  FMN1401     0.0684
     45  H4'       19.2630   25.7220   64.2720 H     1401  FMN1401     0.0679
     46 H5'1       20.1180   26.3670   66.4770 H     1401  FMN1401     0.0593
     47 H5'2       20.9130   24.9050   65.9140 H     1401  FMN1401     0.0593
@<TRIPOS>BOND
     1     6     5    2
     2    32     4    1
     3     5     4   am
     4     5     7    1
     5     4     2   am
     6     8     7    2
     7     8     9    2
     8     7    18    1
     9    33    10    1
    10     2     3    2
    11     2     1    2
    12    10     9    1
    13    10    11    1
    14     9    16    1
    15    18     1    2
    16    18    17    1
    17    35    12    1
    18    34    12    1
    19    12    11    1
    20    12    36    1
    21    11    13    1
    22    16    17    1
    23    16    15    1
    24    17    19    1
    25    21    20    1
    26    13    15    2
    27    13    14    1
    28    15    40    1
    29    42    19    1
    30    19    20    1
    31    19    41    1
    32    43    20    1
    33    20    22    1
    34    38    14    1
    35    14    37    1
    36    14    39    1
    37    22    44    1
    38    22    23    1
    39    22    24    1
    40    25    24    1
    41    45    24    1
    42    24    26    1
    43    26    47    1
    44    26    27    1
    45    26    46    1
    46    29    28    2
    47    27    28    1
    48    28    31    1
    49    28    30    1
