@<TRIPOS>MOLECULE
3n16_BU3_A_1.pdb
 16 15 0 0 0
SMALL
GASTEIGER

@<TRIPOS>ATOM
      1  O6        20.8990   20.9830   65.1790 O.3   1508  BU31508    -0.3895
      2  C3        19.6540   21.4800   65.6710 C.3   1508  BU31508     0.0780
      3  C4        19.3110   21.0700   67.0730 C.3   1508  BU31508    -0.0365
      4  C2        18.4850   21.9330   64.8120 C.3   1508  BU31508     0.0780
      5  O5        17.1790   21.3910   65.1270 O.3   1508  BU31508    -0.3895
      6  C1        18.6300   23.1060   63.7360 C.3   1508  BU31508    -0.0365
      7  HO6       20.9190   21.0590   64.2910 H     1508  BU31508     0.2099
      8  H3        20.0060   22.5030   65.8440 H     1508  BU31508     0.0616
      9  H41       18.6740   21.7110   67.4550 H     1508  BU31508     0.0255
     10  H42       18.9130   20.1840   67.0610 H     1508  BU31508     0.0255
     11  H43       20.1260   21.0570   67.6200 H     1508  BU31508     0.0255
     12  H2        18.3150   22.6960   65.5600 H     1508  BU31508     0.0616
     13  HO5       16.8930   20.8870   64.4500 H     1508  BU31508     0.2099
     14  H11       19.4970   23.0310   63.2810 H     1508  BU31508     0.0255
     15  H12       17.9240   23.0440   63.0830 H     1508  BU31508     0.0255
     16  H13       18.5730   23.9630   64.1890 H     1508  BU31508     0.0255
@<TRIPOS>BOND
     1    15     6    1
     2    14     6    1
     3     6    16    1
     4     6     4    1
     5     7     1    1
     6    13     5    1
     7     4     5    1
     8     4    12    1
     9     4     2    1
    10     1     2    1
    11     2     8    1
    12     2     3    1
    13    10     3    1
    14     3     9    1
    15     3    11    1
