@<TRIPOS>MOLECULE
3n17_NAG_A_1.pdb
 15 15 0 0 0
SMALL
GASTEIGER

@<TRIPOS>ATOM
      1  C1        -2.5570   -8.3210   -3.6740 C.3   901  NAG901      0.2917
      2  C2        -2.6370   -6.8050   -3.4610 C.3   901  NAG901      0.1871
      3  C3        -3.4600   -6.1400   -4.5640 C.3   901  NAG901      0.2095
      4  C4        -4.1440   -7.2220   -5.3940 C.3   901  NAG901      0.2136
      5  C5        -4.7990   -8.2430   -4.4650 C.3   901  NAG901      0.1835
      6  C6        -5.6400   -9.2480   -5.2470 C.3   901  NAG901      0.2142
      7  C7        -3.2010   -5.5170   -1.3920 C.2   901  NAG901      0.2421
      8  C8        -3.7050   -5.6380    0.0160 C.3   901  NAG901      0.0964
      9  N2        -3.2100   -6.6220   -2.1390 N.am  901  NAG901     -0.1991
     10  O1        -1.8720   -8.6520   -4.8650 O.3   901  NAG901     -0.1879
     11  O3        -2.6280   -5.3250   -5.3680 O.3   901  NAG901     -0.2183
     12  O4        -5.1720   -6.6680   -6.1800 O.3   901  NAG901     -0.2176
     13  O5        -3.8440   -8.9200   -3.6710 O.3   901  NAG901     -0.3242
     14  O6        -6.2300  -10.1880   -4.3710 O.3   901  NAG901     -0.2176
     15  O7        -2.8230   -4.4260   -1.7960 O.2   901  NAG901     -0.2733
@<TRIPOS>BOND
     1    12     4    1
     2     4     3    1
     3     4     5    1
     4    11     3    1
     5     6     5    1
     6     6    14    1
     7    10     1    1
     8     3     2    1
     9     5    13    1
    10     1    13    1
    11     1     2    1
    12     2     9    1
    13     9     7   am
    14    15     7    2
    15     7     8    1
