@<TRIPOS>MOLECULE
3n18_NAG_A_1.pdb
 15 15 0 0 0
SMALL
GASTEIGER

@<TRIPOS>ATOM
      1  C1         2.3990  -15.3620   -3.5120 C.3     8  NAG8        0.2917
      2  C2         3.1820  -14.4050   -4.4160 C.3     8  NAG8        0.1871
      3  C3         2.2740  -13.5300   -5.2790 C.3     8  NAG8        0.2095
      4  C4         1.1710  -14.3910   -5.8740 C.3     8  NAG8        0.2136
      5  C5         0.4410  -15.1190   -4.7660 C.3     8  NAG8        0.1835
      6  C6        -0.7480  -15.8790   -5.3340 C.3     8  NAG8        0.2142
      7  C7         4.7960  -12.6080   -4.0680 C.2     8  NAG8        0.2421
      8  C8         6.2750  -12.7270   -3.8470 C.3     8  NAG8        0.0964
      9  N2         4.0420  -13.5870   -3.5800 N.am    8  NAG8       -0.1991
     10  O1         3.2810  -16.3270   -2.9820 O.3     8  NAG8       -0.1879
     11  O3         3.0140  -12.9480   -6.3280 O.3     8  NAG8       -0.2183
     12  O4         0.2420  -13.6330   -6.6020 O.3     8  NAG8       -0.2176
     13  O5         1.3550  -16.0230   -4.1970 O.3     8  NAG8       -0.3242
     14  O6        -0.3950  -16.4350   -6.5810 O.3     8  NAG8       -0.2176
     15  O7         4.3250  -11.6450   -4.6720 O.2     8  NAG8       -0.2733
@<TRIPOS>BOND
     1    12     4    1
     2    14     6    1
     3    11     3    1
     4     4     3    1
     5     4     5    1
     6     6     5    1
     7     3     2    1
     8     5    13    1
     9    15     7    2
    10     2     9    1
    11     2     1    1
    12    13     1    1
    13     7     8    1
    14     7     9   am
    15     1    10    1
