@<TRIPOS>MOLECULE
3n1a_CHQ_A_1.pdb
 17 19 0 0 0
SMALL
GASTEIGER

@<TRIPOS>ATOM
      1  N         -4.5860   -7.5820   -5.7090 N.2   1514  CHQ1514    -0.1972
      2  CA        -3.5720   -6.8220   -6.4560 C.3   1514  CHQ1514     0.1959
      3  C         -2.9270   -5.7850   -5.5220 C.2   1514  CHQ1514     0.2499
      4  O         -2.5040   -4.7300   -5.9890 O.2   1514  CHQ1514    -0.2727
      5  CB        -4.2580   -6.1700   -7.6770 C.3   1514  CHQ1514     0.0780
      6  ND1       -4.0400   -3.8610   -8.7400 N.2   1514  CHQ1514    -0.2309
      7  CE1       -3.0780   -3.0980   -9.2540 C.2   1514  CHQ1514     0.1939
      8  NE2       -1.9340   -3.7690   -9.1680 N.2   1514  CHQ1514    -0.2440
      9  CD2       -2.1920   -4.9460   -8.6020 C.3   1514  CHQ1514     0.1683
     10  CG        -3.4940   -5.0040   -8.3310 C.2   1514  CHQ1514     0.0655
     11  NP        -2.7890   -6.0360   -4.1460 N.am  1514  CHQ1514    -0.2658
     12  CAP       -3.2640   -7.2880   -3.5470 C.3   1514  CHQ1514     0.1823
     13  CP        -4.4630   -7.8110   -4.3320 C.1   1514  CHQ1514     0.1445
     14  OP        -5.3330   -8.4470   -3.7410 O.2   1514  CHQ1514    -0.2254
     15  CBP       -3.7240   -6.9000   -2.1330 C.3   1514  CHQ1514     0.0388
     16  CGP       -3.1210   -5.5190   -1.8550 C.3   1514  CHQ1514     0.0244
     17  CDP       -2.2090   -5.2400   -3.0490 C.3   1514  CHQ1514     0.0945
@<TRIPOS>BOND
     1     7     8    2
     2     7     6    1
     3     8     9    1
     4     6    10    2
     5     9    10    1
     6    10     5    1
     7     5     2    1
     8     2     1    1
     9     2     3    1
    10     4     3    2
    11     1    13    2
    12     3    11   am
    13    13    14    2
    14    13    12    1
    15    11    12    1
    16    11    17    1
    17    12    15    1
    18    17    16    1
    19    15    16    1
