@<TRIPOS>MOLECULE
3n1c_F6P_A_1.pdb
 16 16 0 0 0
SMALL
GASTEIGER

@<TRIPOS>ATOM
      1  O1        37.5560  -26.3590   38.6480 O.3   400  F6P400     -0.2148
      2  C1        37.6030  -25.4960   39.7420 C.3   400  F6P400      0.2434
      3  C2        39.0320  -25.5600   40.3670 C.3   400  F6P400      0.2807
      4  O2        40.0070  -26.5460   39.9590 O.3   400  F6P400     -0.1896
      5  C3        39.4510  -24.5020   41.3980 C.3   400  F6P400      0.2409
      6  O3        39.2660  -24.8110   42.7460 O.3   400  F6P400     -0.2149
      7  C4        40.5570  -23.6490   40.8960 C.3   400  F6P400      0.2167
      8  O4        41.1300  -22.5640   41.5750 O.3   400  F6P400     -0.2175
      9  C5        40.5330  -23.8030   39.3950 C.3   400  F6P400      0.1808
     10  O5        39.4590  -24.7790   39.1580 O.3   400  F6P400     -0.3254
     11  C6        41.8790  -24.2870   38.8310 C.3   400  F6P400      0.1859
     12  O6        41.7710  -24.3240   37.4300 O.3   400  F6P400     -0.2675
     13  P         42.9090  -25.0560   36.4780 P.3   400  F6P400      0.5327
     14  O1P       43.0780  -26.6500   36.8770 O.3   400  F6P400     -0.1145
     15  O2P       44.3740  -24.3300   36.6540 O.3   400  F6P400     -0.1145
     16  O3P       42.4730  -24.9830   35.0890 O.2   400  F6P400     -0.2224
@<TRIPOS>BOND
     1    16    13    2
     2    13    15    1
     3    13    14    1
     4    13    12    1
     5    12    11    1
     6     1     2    1
     7    11     9    1
     8    10     9    1
     9    10     3    1
    10     9     7    1
    11     2     3    1
    12     4     3    1
    13     3     5    1
    14     7     5    1
    15     7     8    1
    16     5     6    1
