@<TRIPOS>MOLECULE
3n1d_RIP_A_1.pdb
 10 10 0 0 0
SMALL
GASTEIGER

@<TRIPOS>ATOM
      1  C1       -15.2350  -15.5100   -6.8670 C.3   249  RIP249      0.3024
      2  C2       -16.2700  -16.6110   -7.1180 C.3   249  RIP249      0.2434
      3  C3       -16.8190  -16.3950   -8.5330 C.3   249  RIP249      0.2199
      4  C4       -17.5490  -15.0360   -8.5010 C.3   249  RIP249      0.2143
      5  C5       -16.4370  -13.9880   -8.5530 C.3   249  RIP249      0.1804
      6  O1       -15.0460  -15.4070   -5.4550 O.3   249  RIP249     -0.1869
      7  O2       -15.7090  -17.9060   -6.8620 O.3   249  RIP249     -0.2148
      8  O3       -15.7270  -16.3310   -9.4510 O.3   249  RIP249     -0.2174
      9  O4       -18.5300  -14.8640   -9.5170 O.3   249  RIP249     -0.2176
     10  O5       -15.4680  -14.2130   -7.5250 O.3   249  RIP249     -0.3237
@<TRIPOS>BOND
     1     9     4    1
     2     8     3    1
     3     5     4    1
     4     5    10    1
     5     3     4    1
     6     3     2    1
     7    10     1    1
     8     2     1    1
     9     2     7    1
    10     1     6    1
