@<TRIPOS>MOLECULE
3n1n_GUN_A_1.pdb
 11 12 0 0 0
SMALL
GASTEIGER

@<TRIPOS>ATOM
      1  N9        21.0170    5.9780    9.1190 N.2   4053  GUN4053    -0.1802
      2  C8        21.2830    7.1870    8.6710 C.3   4053  GUN4053     0.2633
      3  N7        21.7500    7.9670    9.6820 N.2   4053  GUN4053    -0.2212
      4  C5        21.7520    7.2450   10.7720 C.2   4053  GUN4053     0.2482
      5  C6        22.1610    7.4000   12.2660 C.1   4053  GUN4053     0.2442
      6  O6        22.5650    8.5170   12.6390 O.2   4053  GUN4053    -0.2063
      7  N1        22.0300    6.3170   13.1960 N.2   4053  GUN4053    -0.2474
      8  C2        21.5440    5.1380   12.5770 C.1   4053  GUN4053     0.2608
      9  N2        21.2910    3.9180   13.0710 N.pl3 4053  GUN4053    -0.0220
     10  N3        21.2400    5.1080   11.3020 N.2   4053  GUN4053    -0.2682
     11  C4        21.3230    6.0220   10.3740 C.1   4053  GUN4053     0.1289
@<TRIPOS>BOND
     1     2     1    1
     2     2     3    1
     3     1    11    2
     4     3     4    2
     5    11     4    1
     6    11    10    2
     7     4     5    1
     8    10     8    2
     9     5     6    2
    10     5     7    2
    11     8     9    1
    12     8     7    2
