@<TRIPOS>MOLECULE
3n1s_5GP_A_1.pdb
 24 26 0 0 0
SMALL
GASTEIGER

@<TRIPOS>ATOM
      1  P        -24.2620    9.2120   17.9120 P.3   201  5GP201      0.5327
      2  O1P      -25.7500    9.1680   17.6820 O.3   201  5GP201     -0.1145
      3  O2P      -23.5720    7.9200   17.6150 O.2   201  5GP201     -0.2224
      4  O3P      -23.8700    9.7920   19.2480 O.3   201  5GP201     -0.1145
      5  O5'      -23.6420   10.3400   16.9550 O.3   201  5GP201     -0.2675
      6  C5'      -23.3660   10.0560   15.5850 C.3   201  5GP201      0.1859
      7  C4'      -23.2250   11.4040   14.9100 C.3   201  5GP201      0.1801
      8  O4'      -22.3780   11.2380   13.7740 O.3   201  5GP201     -0.3326
      9  C3'      -24.5720   11.9020   14.4090 C.3   201  5GP201      0.2158
     10  O3'      -24.8100   13.1970   14.9820 O.3   201  5GP201     -0.2175
     11  C2'      -24.4190   11.9770   12.8950 C.3   201  5GP201      0.2310
     12  O2'      -25.0340   13.1370   12.3250 O.3   201  5GP201     -0.2158
     13  C1'      -22.9110   12.0260   12.7150 C.3   201  5GP201      0.2293
     14  N9       -22.4570   11.3830   11.4600 N.pl3 201  5GP201     -0.2354
     15  C8       -22.8100   10.1640   11.0240 C.3   201  5GP201      0.2246
     16  N7       -22.1800    9.9440    9.8520 N.2   201  5GP201     -0.2322
     17  C5       -21.4260   11.0290    9.5560 C.2   201  5GP201      0.2182
     18  C6       -20.5860   11.3670    8.4930 C.1   201  5GP201      0.2372
     19  O6       -20.3920   10.5690    7.5300 O.2   201  5GP201     -0.2069
     20  N1       -19.9780   12.5560    8.5210 N.2   201  5GP201     -0.2485
     21  C2       -20.1660   13.4270    9.5290 C.1   201  5GP201      0.2531
     22  N2       -19.5350   14.6210    9.4940 N.pl3 201  5GP201     -0.0226
     23  N3       -20.9850   13.1320   10.5660 N.2   201  5GP201     -0.3074
     24  C4       -21.6140   11.9390   10.5890 C.2   201  5GP201      0.2300
@<TRIPOS>BOND
     1    19    18    2
     2    18    20    2
     3    18    17    1
     4    20    21    2
     5    22    21    1
     6    21    23    2
     7    17    16    2
     8    17    24    1
     9    16    15    1
    10    23    24    2
    11    24    14    1
    12    15    14    1
    13    14    13    1
    14    12    11    1
    15    13    11    1
    16    13     8    1
    17    11     9    1
    18     8     7    1
    19     9     7    1
    20     9    10    1
    21     7     6    1
    22     6     5    1
    23     5     1    1
    24     3     1    2
    25     2     1    1
    26     1     4    1
