@<TRIPOS>MOLECULE
3n1t_5GP_A_1.pdb
 24 26 0 0 0
SMALL
GASTEIGER

@<TRIPOS>ATOM
      1  P         12.8450   -4.6130   19.7540 P.3   200  5GP200      0.5327
      2  O1P       12.8940   -4.6580   18.2460 O.2   200  5GP200     -0.2224
      3  O2P       13.3800   -5.8520   20.4320 O.3   200  5GP200     -0.1145
      4  O3P       11.5390   -4.1080   20.3200 O.3   200  5GP200     -0.1145
      5  O5'       13.9060   -3.4680   20.1440 O.3   200  5GP200     -0.2675
      6  C5'       15.0890   -3.2830   19.3700 C.3   200  5GP200      0.1859
      7  C4'       15.1850   -1.8280   18.9270 C.3   200  5GP200      0.1801
      8  O4'       16.3910   -1.2520   19.4380 O.3   200  5GP200     -0.3326
      9  C3'       15.2270   -1.7210   17.4100 C.3   200  5GP200      0.2158
     10  O3'       14.1260   -0.9370   16.9430 O.3   200  5GP200     -0.2175
     11  C2'       16.5350   -1.0360   17.0670 C.3   200  5GP200      0.2310
     12  O2'       16.2790    0.1920   16.3780 O.3   200  5GP200     -0.2158
     13  C1'       17.2290   -0.7560   18.3900 C.3   200  5GP200      0.2293
     14  N9        18.5400   -1.4520   18.4240 N.pl3 200  5GP200     -0.2354
     15  C8        18.7600   -2.7290   18.0840 C.3   200  5GP200      0.2246
     16  N7        20.0730   -3.0080   18.2430 N.2   200  5GP200     -0.2322
     17  C5        20.6760   -1.8880   18.6890 C.2   200  5GP200      0.2182
     18  C6        21.9870   -1.5800   19.0230 C.1   200  5GP200      0.2372
     19  O6        22.8820   -2.4480   18.9290 O.2   200  5GP200     -0.2069
     20  N1        22.2860   -0.3470   19.4460 N.2   200  5GP200     -0.2485
     21  C2        21.3370    0.5950   19.5520 C.1   200  5GP200      0.2531
     22  N2        21.6720    1.8340   19.9840 N.pl3 200  5GP200     -0.0226
     23  N3        20.0510    0.3240   19.2340 N.2   200  5GP200     -0.3074
     24  C4        19.7030   -0.9110   18.8010 C.2   200  5GP200      0.2300
@<TRIPOS>BOND
     1    12    11    1
     2    10     9    1
     3    11     9    1
     4    11    13    1
     5     9     7    1
     6    15    16    1
     7    15    14    1
     8    16    17    2
     9     2     1    2
    10    13    14    1
    11    13     8    1
    12    14    24    1
    13    17    24    1
    14    17    18    1
    15    24    23    2
    16     7     6    1
    17     7     8    1
    18    19    18    2
    19    18    20    2
    20    23    21    2
    21     6     5    1
    22    20    21    2
    23    21    22    1
    24     1     5    1
    25     1     4    1
    26     1     3    1
