@<TRIPOS>MOLECULE
3n1v_3N1_F_1.pdb
 15 16 0 0 0
SMALL
GASTEIGER

@<TRIPOS>ATOM
      1 CL1        -0.1650   77.9230   28.9120 Cl      1  3N11       -0.0822
      2  C2         1.5040   78.0890   28.5960 C.ar    1  3N11        0.0577
      3  C3         2.3460   76.9620   28.6930 C.ar    1  3N11        0.0116
      4  C5         3.6950   77.1810   28.4450 C.ar    1  3N11        0.0031
      5  C6         4.1810   78.4370   28.1120 C.ar    1  3N11        0.0289
      6  S7         5.9200   78.5420   27.8050 S.2     1  3N11       -0.0910
      7  C8         5.9750   76.7620   28.1520 C.ar    1  3N11        0.0146
      8  C9         4.8010   76.1820   28.4740 C.ar    1  3N11       -0.0188
      9  C10        4.5890   74.7150   28.8210 C.3     1  3N11        0.0312
     10  C14        7.2460   75.9870   28.0770 C.3     1  3N11        0.1465
     11  C17        7.5280   75.6680   26.6240 C.2     1  3N11        0.3697
     12  O18        8.6580   75.7440   26.1730 O.co2   1  3N11       -0.2453
     13  O19        6.4840   75.3040   25.8640 O.co2   1  3N11       -0.2453
     14  C21        3.3370   79.5540   28.0130 C.ar    1  3N11        0.0073
     15  C23        1.9810   79.3660   28.2630 C.ar    1  3N11        0.0119
@<TRIPOS>BOND
     1    13    11   ar
     2    12    11   ar
     3    11    10    1
     4     6     5   ar
     5     6     7   ar
     6    14     5   ar
     7    14    15   ar
     8    10     7    1
     9     5     4   ar
    10     7     8   ar
    11    15     2   ar
    12     4     8   ar
    13     4     3   ar
    14     8     9    1
    15     2     3   ar
    16     2     1    1
