@<TRIPOS>MOLECULE
3n1w_3N2_F_1.pdb
 14 15 0 0 0
SMALL
GASTEIGER

@<TRIPOS>ATOM
      1 CL1         1.8190   73.6730   28.3820 Cl      1  3N21       -0.0822
      2  C2         2.1990   75.3580   28.2910 C.ar    1  3N21        0.0577
      3  C3         3.5410   75.7690   28.4230 C.ar    1  3N21        0.0116
      4  C5         3.7950   77.1350   28.3030 C.ar    1  3N21        0.0039
      5  C6         2.7840   78.0600   28.0790 C.ar    1  3N21        0.0292
      6  S7         3.2650   79.6710   27.9700 S.2     1  3N21       -0.0868
      7  C8         4.9790   79.1280   28.1970 C.ar    1  3N21        0.0317
      8  C10        5.1240   77.8050   28.3500 C.ar    1  3N21       -0.0039
      9  C11        6.4400   77.0470   28.4890 C.3     1  3N21        0.1409
     10  C14        6.7500   76.1200   27.2700 C.2     1  3N21        0.3692
     11  O15        5.9150   75.7910   26.4370 O.co2   1  3N21       -0.2453
     12  O16        8.0070   75.6450   27.1610 O.co2   1  3N21       -0.2453
     13  C18        1.4440   77.6780   27.9430 C.ar    1  3N21        0.0073
     14  C20        1.1610   76.3010   28.0500 C.ar    1  3N21        0.0119
@<TRIPOS>BOND
     1    11    10   ar
     2    12    10   ar
     3    10     9    1
     4    13    14   ar
     5    13     5   ar
     6     6     5   ar
     7     6     7   ar
     8    14     2   ar
     9     5     4   ar
    10     7     8   ar
    11     2     1    1
    12     2     3   ar
    13     4     8   ar
    14     4     3   ar
    15     8     9    1
