@<TRIPOS>MOLECULE
3n23_OBN_A_1.pdb
 41 46 0 0 0
SMALL
GASTEIGER

@<TRIPOS>ATOM
      1  C1       -26.3960  -19.0990   74.6690 C.3     1  OBN1        0.1591
      2  C2       -27.9050  -19.3420   74.7150 C.3     1  OBN1        0.0627
      3  C3       -28.2100  -20.3120   75.8420 C.3     1  OBN1        0.1228
      4  C4       -27.4620  -21.6100   75.5740 C.3     1  OBN1        0.0603
      5  C5       -25.9510  -21.4110   75.4250 C.3     1  OBN1        0.1336
      6  C6       -25.2690  -22.7470   75.1730 C.3     1  OBN1        0.0308
      7  C7       -25.6680  -23.2930   73.8150 C.3     1  OBN1        0.0054
      8  C8       -25.3310  -22.2780   72.7220 C.3     1  OBN1        0.0347
      9  C9       -25.9980  -20.9160   72.9380 C.3     1  OBN1        0.0403
     10  C10      -25.6290  -20.3770   74.3270 C.3     1  OBN1        0.0871
     11  C11      -25.5570  -20.0460   71.7540 C.3     1  OBN1        0.1524
     12  C12      -26.2620  -20.5630   70.5080 C.3     1  OBN1        0.0362
     13  C13      -25.8260  -21.9770   70.1400 C.3     1  OBN1        0.0392
     14  C14      -25.5500  -22.9070   71.3430 C.3     1  OBN1        0.1452
     15  C15      -26.6650  -23.9430   71.4350 C.2     1  OBN1       -0.0009
     16  C16      -27.4940  -23.8500   70.1760 C.2     1  OBN1       -0.0244
     17  C17      -27.0150  -22.6260   69.4230 C.3     1  OBN1        0.0464
     18  C18      -24.5910  -21.8050   69.2530 C.3     1  OBN1        0.0035
     19  C19      -24.1160  -20.1600   74.2110 C.3     1  OBN1        0.1869
     20  C20      -26.7240  -23.1300   68.0570 C.2     1  OBN1        0.0093
     21  C21      -25.7380  -24.2390   67.7120 C.3     1  OBN1        0.2317
     22  C22      -27.4020  -22.6550   67.0260 C.2     1  OBN1        0.0773
     23  C23      -26.9570  -23.4640   65.9010 C.2     1  OBN1        0.3412
     24  C1'      -28.2980  -20.0190   78.2670 C.3     1  OBN1        0.2693
     25  C2'      -27.5660  -19.1450   79.2690 C.3     1  OBN1        0.2406
     26  C3'      -27.7650  -17.6720   78.9010 C.3     1  OBN1        0.2197
     27  C4'      -29.2460  -17.3190   78.7390 C.3     1  OBN1        0.2118
     28  C5'      -29.9450  -18.3320   77.8330 C.3     1  OBN1        0.1508
     29  C6'      -31.4490  -18.1250   77.8010 C.3     1  OBN1        0.0350
     30  O1       -25.9480  -18.6020   75.9400 O.3     1  OBN1       -0.2229
     31  O3       -27.6830  -19.7160   77.0210 O.3     1  OBN1       -0.3309
     32  O5       -25.4270  -20.9290   76.6630 O.3     1  OBN1       -0.2254
     33  O11      -25.8020  -18.6360   71.8960 O.3     1  OBN1       -0.2231
     34  O14      -24.3510  -23.6210   71.0630 O.3     1  OBN1       -0.2212
     35  O19      -23.7360  -18.8000   73.9650 O.3     1  OBN1       -0.2203
     36  O21      -26.0670  -24.5070   66.3520 O.3     1  OBN1       -0.4408
     37  O23      -27.2790  -23.3000   64.7480 O.2     1  OBN1       -0.2449
     38  O2'      -28.0640  -19.4390   80.5760 O.3     1  OBN1       -0.2149
     39  O3'      -27.1660  -16.8330   79.8910 O.3     1  OBN1       -0.2174
     40  O4'      -29.3650  -16.0060   78.1770 O.3     1  OBN1       -0.2177
     41  O5'      -29.6880  -19.6740   78.2670 O.3     1  OBN1       -0.3284
@<TRIPOS>BOND
     1    37    23    2
     2    23    36    1
     3    23    22    1
     4    36    21    1
     5    22    20    2
     6    21    20    1
     7    20    17    1
     8    18    13    1
     9    17    13    1
    10    17    16    1
    11    13    12    1
    12    13    14    1
    13    16    15    2
    14    12    11    1
    15    34    14    1
    16    14    15    1
    17    14     8    1
    18    11    33    1
    19    11     9    1
    20     8     9    1
    21     8     7    1
    22     9    10    1
    23     7     6    1
    24    35    19    1
    25    19    10    1
    26    10     1    1
    27    10     5    1
    28     1     2    1
    29     1    30    1
    30     2     3    1
    31     6     5    1
    32     5     4    1
    33     5    32    1
    34     4     3    1
    35     3    31    1
    36    31    24    1
    37    29    28    1
    38    28    41    1
    39    28    27    1
    40    40    27    1
    41    24    41    1
    42    24    25    1
    43    27    26    1
    44    26    25    1
    45    26    39    1
    46    25    38    1
