@<TRIPOS>MOLECULE
3n26_ARG_A_1.pdb
 12 11 0 0 0
SMALL
GASTEIGER

@<TRIPOS>ATOM
      1  N         10.1800  -12.6100   10.9870 N.3   500  ARG500     -0.1208
      2  CA         8.9990  -13.1540   11.7050 C.3   500  ARG500      0.1944
      3  C          8.1990  -12.0060   12.3110 C.2   500  ARG500      0.3819
      4  O          8.6940  -10.8710   12.3760 O.co2 500  ARG500     -0.2441
      5  CB         9.4170  -14.1530   12.7630 C.3   500  ARG500      0.0343
      6  CG        10.4090  -13.6110   13.7690 C.3   500  ARG500      0.0490
      7  CD        10.4820  -14.4650   15.0520 C.3   500  ARG500      0.2205
      8  NE        11.6900  -14.1170   15.7790 N.pl3 500  ARG500     -0.0865
      9  CZ        12.0820  -14.6330   16.9350 C.cat 500  ARG500      0.5346
     10  NH1       11.3620  -15.5110   17.5360 N.pl3 500  ARG500      0.1354
     11  NH2       13.2240  -14.2200   17.4950 N.pl3 500  ARG500      0.1354
     12  OXT        7.0510  -12.1680   12.7190 O.co2 500  ARG500     -0.2441
@<TRIPOS>BOND
     1     1     2    1
     2     2     3    1
     3     2     5    1
     4     3     4   ar
     5     3    12   ar
     6     5     6    1
     7     6     7    1
     8     7     8    1
     9     8     9    2
    10     9    11    1
    11     9    10    1
