@<TRIPOS>MOLECULE
3n29_PLP_A_1.pdb
 15 15 0 0 0
SMALL
GASTEIGER

@<TRIPOS>ATOM
      1  N1        57.9060   34.3190   23.7570 N.ar  1001  PLP1001    -0.2452
      2  C2        57.2650   33.8920   22.6280 C.ar  1001  PLP1001     0.0978
      3  C2A       56.2590   32.7720   22.7110 C.3   1001  PLP1001     0.0555
      4  C3        57.6130   34.5000   21.3820 C.ar  1001  PLP1001     0.2049
      5  O3        56.9850   34.0720   20.2110 O.3   1001  PLP1001    -0.2857
      6  C4        58.5800   35.5220   21.3250 C.ar  1001  PLP1001     0.0182
      7  C4A       58.9640   36.1240   19.9800 C.3   1001  PLP1001     0.0342
      8  C5        59.1790   35.9750   22.5110 C.ar  1001  PLP1001     0.0261
      9  C6        58.8130   35.3410   23.7170 C.ar  1001  PLP1001     0.0965
     10  C5A       60.2130   37.0770   22.5140 C.3   1001  PLP1001     0.1815
     11  O4P       59.7370   38.2400   21.8850 O.3   1001  PLP1001    -0.2653
     12  P         60.5800   39.5710   21.8330 P.3   1001  PLP1001     0.5329
     13  O1P       61.9230   39.2070   21.2280 O.3   1001  PLP1001    -0.1145
     14  O2P       60.7700   40.0640   23.2880 O.3   1001  PLP1001    -0.1145
     15  O3P       59.8060   40.5740   21.1050 O.2   1001  PLP1001    -0.2224
@<TRIPOS>BOND
     1     7     6    1
     2     5     4    1
     3    15    12    2
     4    13    12    1
     5     6     4   ar
     6     6     8   ar
     7     4     2   ar
     8    12    11    1
     9    12    14    1
    10    11    10    1
    11     8    10    1
    12     8     9   ar
    13     2     3    1
    14     2     1   ar
    15     9     1   ar
