@<TRIPOS>MOLECULE
3n2a_ADP_A_1.pdb
 27 29 0 0 0
SMALL
GASTEIGER

@<TRIPOS>ATOM
      1  PB        54.7920   57.0690   21.3830 P.3   1001  ADP1001     0.5373
      2  O1B       55.8160   57.3390   20.3600 O.2   1001  ADP1001    -0.2221
      3  O2B       53.8040   55.9800   20.9640 O.3   1001  ADP1001    -0.1143
      4  O3B       55.2890   56.8910   22.8060 O.3   1001  ADP1001    -0.1143
      5  PA        53.3660   59.4740   20.4030 P.3   1001  ADP1001     0.2231
      6  O1A       53.8460   60.8400   20.7940 O.3   1001  ADP1001    -0.4370
      7  O2A       53.4670   58.9590   18.9990 O.2   1001  ADP1001    -0.5169
      8  O3A       53.8440   58.3550   21.4670 O.3   1001  ADP1001    -0.2261
      9  O5'       51.7870   59.5160   20.7370 O.3   1001  ADP1001    -0.3111
     10  C5'       51.0030   58.3230   20.4550 C.3   1001  ADP1001     0.1813
     11  C4'       49.6530   58.4540   21.1410 C.3   1001  ADP1001     0.1821
     12  O4'       49.7860   58.4410   22.5750 O.3   1001  ADP1001    -0.3135
     13  C3'       49.0290   59.8050   20.8560 C.3   1001  ADP1001     0.2184
     14  O3'       48.2890   59.8590   19.6130 O.3   1001  ADP1001    -0.2174
     15  C2'       48.2010   60.0400   22.0540 C.3   1001  ADP1001     0.2570
     16  O2'       47.0420   59.1430   21.9130 O.3   1001  ADP1001    -0.2130
     17  C1'       49.0170   59.4580   23.1950 C.3   1001  ADP1001     0.3186
     18  N9        49.9180   60.3240   23.9620 N.pl3 1001  ADP1001    -0.1439
     19  C8        51.0790   60.8830   23.5550 C.3   1001  ADP1001     0.3377
     20  N7        51.6600   61.5480   24.5890 N.2   1001  ADP1001    -0.2095
     21  C5        50.8740   61.3700   25.6740 C.2   1001  ADP1001     0.2526
     22  C6        50.8770   61.7910   27.0910 C.2   1001  ADP1001     0.4393
     23  N6        51.8890   62.5530   27.5420 N.pl3 1001  ADP1001     0.2180
     24  N1        49.8620   61.4020   27.8920 N.2   1001  ADP1001     0.0021
     25  C2        48.8530   60.6140   27.4360 C.3   1001  ADP1001     0.5254
     26  N3        48.7750   60.1770   26.1500 N.2   1001  ADP1001    -0.0055
     27  C4        49.7360   60.5530   25.2550 C.2   1001  ADP1001     0.3518
@<TRIPOS>BOND
     1     7     5    2
     2    14    13    1
     3     2     1    2
     4     5     9    1
     5     5     6    1
     6     5     8    1
     7    10     9    1
     8    10    11    1
     9    13    11    1
    10    13    15    1
    11     3     1    1
    12    11    12    1
    13     1     8    1
    14     1     4    1
    15    16    15    1
    16    15    17    1
    17    12    17    1
    18    17    18    1
    19    19    18    1
    20    19    20    1
    21    18    27    1
    22    20    21    2
    23    27    21    1
    24    27    26    2
    25    21    22    1
    26    26    25    1
    27    22    23    1
    28    22    24    2
    29    25    24    1
