@<TRIPOS>MOLECULE
3n2c_LWY_A_1.pdb
 12 12 0 0 0
SMALL
GASTEIGER

@<TRIPOS>ATOM
      1  C         52.8460  -58.2130   19.3220 C.2   427  LWY427      0.3793
      2  N         51.7290  -60.0610   18.1420 N.3   427  LWY427     -0.1996
      3  OXT       53.4550  -57.8980   20.3650 O.co2 427  LWY427     -0.2442
      4  P         50.3750  -60.5230   19.0100 P.3   427  LWY427      0.3142
      5  C1        49.1850  -61.0980   17.9240 C.3   427  LWY427      0.1167
      6  O1        49.7720  -59.2080   19.7050 O.2   427  LWY427     -0.2698
      7  O2        50.7690  -61.6730   19.9000 O.3   427  LWY427     -0.1514
      8  CA        52.9570  -59.6200   18.8020 C.3   427  LWY427      0.1687
      9  CB        54.0100  -59.6960   17.7020 C.3   427  LWY427      0.0294
     10  CD        51.7950  -60.0610   16.6800 C.3   427  LWY427      0.0809
     11  CG        53.2860  -59.9530   16.3870 C.3   427  LWY427      0.0198
     12  O         52.1380  -57.3960   18.7000 O.co2 427  LWY427     -0.2442
@<TRIPOS>BOND
     1    11    10    1
     2    11     9    1
     3    10     2    1
     4     9     8    1
     5     5     4    1
     6     2     8    1
     7     2     4    1
     8    12     1   ar
     9     8     1    1
    10     4     6    2
    11     4     7    1
    12     1     3   ar
