@<TRIPOS>MOLECULE
3n2d_III_B_1.pdb
 43 42 0 0 0
SMALL
GASTEIGER

@<TRIPOS>ATOM
      1  N         11.8750   31.8430    7.4590 N.3     1  SER1       -0.1202
      2  CA        13.1450   32.6170    7.3330 C.3     1  SER1        0.2020
      3  C         14.3730   31.7040    7.3530 C.2     1  SER1        0.2619
      4  O         15.2830   31.8630    6.5360 O.2     1  SER1       -0.2717
      5  CB        13.2450   33.6690    8.4420 C.3     1  SER1        0.2103
      6  OG        14.4570   34.3970    8.3420 O.3     1  SER1       -0.2182
      7  N         14.3840   30.7550    8.2900 N.am    2  ASP2       -0.1959
      8  CA        15.4680   29.7730    8.4480 C.3     2  ASP2        0.1840
      9  C         15.5080   28.7690    7.2880 C.2     2  ASP2        0.2622
     10  O         14.9420   29.0340    6.2240 O.2     2  ASP2       -0.2715
     11  CB        15.3120   29.0410    9.7870 C.3     2  ASP2        0.1450
     12  CG        14.1250   29.4450   10.6540 C.2     2  ASP2        0.3671
     13  OD1       13.1760   28.6450   10.8000 O.co2   2  ASP2       -0.2456
     14  OD2       14.1480   30.5680   11.2000 O.co2   2  ASP2       -0.2456
     15  N         16.2200   27.6490    7.4580 N.am    3  ASP3       -0.1957
     16  CA        16.2490   26.6160    6.4050 C.3     3  ASP3        0.1840
     17  C         16.5130   25.1420    6.8030 C.2     3  ASP3        0.2622
     18  O         15.8840   24.6100    7.7190 O.2     3  ASP3       -0.2715
     19  CB        17.1700   27.0440    5.2460 C.3     3  ASP3        0.1450
     20  CG        16.4130   27.0470    3.9220 C.2     3  ASP3        0.3671
     21  OD1       17.0530   27.2820    2.8760 O.co2   3  ASP3       -0.2456
     22  OD2       15.1830   26.8190    3.9220 O.co2   3  ASP3       -0.2456
     23  N         17.4660   24.5290    6.0960 N.am    4  ASP4       -0.1957
     24  CA        17.6310   23.0660    5.8730 C.3     4  ASP4        0.1840
     25  C         17.0120   21.9600    6.7540 C.2     4  ASP4        0.2622
     26  O         17.0840   21.9840    7.9850 O.2     4  ASP4       -0.2715
     27  CB        19.1080   22.7260    5.5890 C.3     4  ASP4        0.1450
     28  CG        20.0760   23.4920    6.4760 C.2     4  ASP4        0.3671
     29  OD1       19.9160   23.4610    7.7150 O.co2   4  ASP4       -0.2456
     30  OD2       21.0080   24.1180    5.9280 O.co2   4  ASP4       -0.2456
     31  N         16.4130   20.9950    6.0480 N.am    5  MET5       -0.1963
     32  CA        16.1220   19.6250    6.5180 C.3     5  MET5        0.1736
     33  C         15.2350   19.4640    7.7620 C.2     5  MET5        0.2618
     34  O         14.3720   20.3010    8.0310 O.2     5  MET5       -0.2715
     35  CB        17.4200   18.8060    6.6500 C.3     5  MET5        0.0427
     36  CG        18.1740   18.5930    5.3360 C.3     5  MET5        0.0599
     37  SD        17.1050   18.3750    3.8750 S.3     5  MET5       -0.1393
     38  CE        18.2360   18.2930    2.4870 C.3     5  MET5        0.0692
     39  N         15.3580   18.3830    8.4690 N.am    6  GLY6       -0.1917
     40  CA        14.4820   18.0390    9.5860 C.3     6  GLY6        0.2285
     41  C         13.6500   16.8000    9.3060 C.2     6  GLY6        0.3865
     42  O         12.8710   16.3590   10.1500 O.co2   6  GLY6       -0.2437
     43  OXT       13.7280   16.2030    8.2300 O.co2   6  GLY6       -0.2437
@<TRIPOS>BOND
     1    38    37    1
     2    21    20   ar
     3    37    36    1
     4    22    20   ar
     5    20    19    1
     6    19    16    1
     7    36    35    1
     8    27    24    1
     9    27    28    1
    10    24    23    1
    11    24    25    1
    12    30    28   ar
    13    31    32    1
    14    31    25   am
    15    23    17   am
    16    10     9    2
    17    16    17    1
    18    16    15    1
    19    28    29   ar
    20    32    35    1
    21    32    33    1
    22     4     3    2
    23    25    26    2
    24    17    18    2
    25     9    15   am
    26     9     8    1
    27     2     3    1
    28     2     1    1
    29     2     5    1
    30     3     7   am
    31    33    34    2
    32    33    39   am
    33    43    41   ar
    34     7     8    1
    35     6     5    1
    36     8    11    1
    37    39    40    1
    38    41    40    1
    39    41    42   ar
    40    11    12    1
    41    12    13   ar
    42    12    14   ar
