@<TRIPOS>MOLECULE
3n2e_OSA_A_1.pdb
 33 36 0 0 0
SMALL
GASTEIGER

@<TRIPOS>ATOM
      1  CAA       42.3670   15.9390    8.3510 C.ar  1001  OSA1001     0.0182
      2  CAB       41.1260   16.0670    8.9910 C.ar  1001  OSA1001     0.0046
      3  CAC       41.0720   16.4610   10.3450 C.ar  1001  OSA1001     0.0407
      4  CAD       42.2610   16.6980   11.0500 C.ar  1001  OSA1001     0.0058
      5  CAE       43.5170   16.5810   10.4210 C.ar  1001  OSA1001     0.0182
      6  CAF       43.5550   16.2010    9.0690 C.ar  1001  OSA1001     0.0891
      7  NAG       44.7440   16.0810    8.4830 N.pl3 1001  OSA1001    -0.1281
      8  CAH       42.2050   17.0530   12.3930 C.ar  1001  OSA1001     0.0207
      9  CAI       40.9970   17.1730   13.0390 C.ar  1001  OSA1001     0.1348
     10  CAJ       39.7980   16.9740   12.3530 C.ar  1001  OSA1001     0.1591
     11  CAK       39.8510   16.5980   11.0020 C.ar  1001  OSA1001     0.2161
     12  OAL       38.7240   16.3610   10.2920 O.3   1001  OSA1001    -0.2849
     13  NAM       38.6320   17.0950   13.0210 N.2   1001  OSA1001    -0.1434
     14  NAN       37.6060   16.5870   12.5580 N.2   1001  OSA1001    -0.1479
     15  CAO       36.4180   16.5580   13.1630 C.ar  1001  OSA1001     0.1029
     16  CAP       35.3740   15.8750   12.5510 C.ar  1001  OSA1001     0.0210
     17  CAQ       34.1230   15.7940   13.1610 C.ar  1001  OSA1001     0.0048
     18  CAR       33.8890   16.3970   14.3990 C.ar  1001  OSA1001     0.0391
     19  CAS       34.9470   17.0860   14.9980 C.ar  1001  OSA1001     0.0059
     20  CAT       36.2040   17.1640   14.3980 C.ar  1001  OSA1001     0.0210
     21  CAU       34.7560   17.6930   16.2160 C.ar  1001  OSA1001     0.0191
     22  CAV       33.5210   17.6290   16.8600 C.ar  1001  OSA1001     0.1155
     23  CAW       32.4420   16.9580   16.2810 C.ar  1001  OSA1001     0.0609
     24  CAX       32.6270   16.3290   15.0380 C.ar  1001  OSA1001     0.1969
     25  OAY       31.5650   15.6770   14.4500 O.3   1001  OSA1001    -0.2865
     26  SAZ       33.4180   18.4530   18.4150 S.3   1001  OSA1001     0.0422
     27  OBA       32.1130   18.0890   19.1100 O.3   1001  OSA1001    -0.0650
     28  OBB       34.6070   18.1470   19.3070 O.3   1001  OSA1001    -0.0650
     29  OBC       33.4860   19.9480   18.1630 O.3   1001  OSA1001    -0.0650
     30  SBD       41.0880   17.6510   14.6940 S.3   1001  OSA1001     0.0437
     31  OBE       42.5320   17.9350   14.9630 O.3   1001  OSA1001    -0.0649
     32  OBF       40.1350   18.8120   14.8640 O.3   1001  OSA1001    -0.0649
     33  OBG       40.7200   16.6120   15.7180 O.3   1001  OSA1001    -0.0649
@<TRIPOS>BOND
     1     1     2   ar
     2     1     6   ar
     3     7     6    1
     4     2     3   ar
     5     6     5   ar
     6    12    11    1
     7     3    11   ar
     8     3     4   ar
     9     5     4   ar
    10    11    10   ar
    11     4     8   ar
    12    10    13    1
    13    10     9   ar
    14     8     9   ar
    15    16    17   ar
    16    16    15   ar
    17    14    13    2
    18    14    15    1
    19     9    30    1
    20    17    18   ar
    21    15    20   ar
    22    20    19   ar
    23    18    19   ar
    24    18    24   ar
    25    25    24    1
    26    30    32    1
    27    30    31    1
    28    30    33    1
    29    19    21   ar
    30    24    23   ar
    31    21    22   ar
    32    23    22   ar
    33    22    26    1
    34    29    26    1
    35    26    27    1
    36    26    28    1
