@<TRIPOS>MOLECULE
3n2g_GTP_A_1.pdb
 32 34 0 0 0
SMALL
GASTEIGER

@<TRIPOS>ATOM
      1  PG       123.3600   92.5420   17.7040 P.3   600  GTP600      0.5373
      2  O1G      123.6220   91.3970   16.8200 O.2   600  GTP600     -0.2221
      3  O2G      123.6570   92.0820   19.1340 O.3   600  GTP600     -0.1143
      4  O3G      121.9620   93.1700   17.4550 O.3   600  GTP600     -0.1143
      5  O3B      124.3970   93.7220   17.4380 O.3   600  GTP600     -0.2258
      6  PB       123.8560   95.2440   17.4500 P.3   600  GTP600      0.2277
      7  O1B      124.8640   96.1730   18.0540 O.3   600  GTP600     -0.4368
      8  O2B      122.4130   95.3150   18.0490 O.2   600  GTP600     -0.5168
      9  O3A      123.8480   95.5690   15.8740 O.3   600  GTP600     -0.2700
     10  PA       125.2130   95.4840   15.0230 P.3   600  GTP600      0.2189
     11  O1A      125.2640   94.2170   14.2630 O.2   600  GTP600     -0.5170
     12  O2A      126.3800   95.6370   16.0240 O.3   600  GTP600     -0.4371
     13  O5'      125.1460   96.7100   13.9870 O.3   600  GTP600     -0.3112
     14  C5'      124.6930   96.6060   12.6610 C.3   600  GTP600      0.1813
     15  C4'      125.6430   97.5060   11.9190 C.3   600  GTP600      0.1799
     16  O4'      126.8800   97.0970   12.4140 O.3   600  GTP600     -0.3326
     17  C3'      125.6670   97.2450   10.4330 C.3   600  GTP600      0.2158
     18  O3'      126.0930   98.4420    9.8200 O.3   600  GTP600     -0.2175
     19  C2'      126.7850   96.2610   10.2410 C.3   600  GTP600      0.2310
     20  O2'      127.4080   96.4820    8.9980 O.3   600  GTP600     -0.2158
     21  C1'      127.7240   96.6340   11.3760 C.3   600  GTP600      0.2293
     22  N9       128.6360   95.5510   11.8150 N.pl3 600  GTP600     -0.2354
     23  C8       128.2380   94.3720   12.3490 C.3   600  GTP600      0.2246
     24  N7       129.3370   93.6500   12.6390 N.2   600  GTP600     -0.2322
     25  C5       130.4350   94.3350   12.3150 C.2   600  GTP600      0.2182
     26  C6       131.7780   94.0160   12.4130 C.1   600  GTP600      0.2372
     27  O6       132.1260   92.9310   12.8600 O.2   600  GTP600     -0.2069
     28  N1       132.7230   94.9120   12.0010 N.2   600  GTP600     -0.2485
     29  C2       132.2880   96.1130   11.5010 C.1   600  GTP600      0.2531
     30  N2       133.1720   96.9980   11.1020 N.pl3 600  GTP600     -0.0226
     31  N3       130.9530   96.4150   11.3910 N.2   600  GTP600     -0.3074
     32  C4       130.0160   95.5370   11.7940 C.2   600  GTP600      0.2300
@<TRIPOS>BOND
     1    20    19    1
     2    18    17    1
     3    19    17    1
     4    19    21    1
     5    17    15    1
     6    30    29    1
     7    21    22    1
     8    21    16    1
     9    31    29    2
    10    31    32    2
    11    29    28    2
    12    32    22    1
    13    32    25    1
    14    22    23    1
    15    15    16    1
    16    15    14    1
    17    28    26    2
    18    25    26    1
    19    25    24    2
    20    23    24    1
    21    26    27    2
    22    14    13    1
    23    13    10    1
    24    11    10    2
    25    10     9    1
    26    10    12    1
    27     9     6    1
    28     2     1    2
    29     5     6    1
    30     5     1    1
    31     6     8    2
    32     6     7    1
    33     4     1    1
    34     1     3    1
