@<TRIPOS>MOLECULE
3n2g_G2N_B_1.pdb
 24 26 0 0 0
SMALL
GASTEIGER

@<TRIPOS>ATOM
      1  CAA      109.3660   81.0250    9.7160 C.3   700  G2N700      0.0513
      2  CAB      116.9320   84.2600    5.8400 C.3   700  G2N700      0.0692
      3  NAC      112.6140   88.4480    6.2950 N.pl3 700  G2N700     -0.0903
      4  OAD      109.0310   83.1220    8.6240 O.2   700  G2N700     -0.2241
      5  CAE      118.2280   89.4380    4.3600 C.ar  700  G2N700      0.0000
      6  CAF      117.7430   89.1940    5.6460 C.ar  700  G2N700      0.0001
      7  CAG      117.8660   88.6490    3.2610 C.ar  700  G2N700      0.0001
      8  CAH      116.8810   88.1250    5.8040 C.ar  700  G2N700      0.0026
      9  CAI      116.9900   87.5830    3.4300 C.ar  700  G2N700      0.0026
     10  CAJ      112.4300   84.3320    6.6580 C.3   700  G2N700      0.1385
     11  CAK      110.5970   81.1820    8.7950 C.3   700  G2N700      0.2103
     12  NAL      114.5580   86.9330    5.4350 N.2   700  G2N700     -0.3933
     13  NAM      111.4820   86.5000    7.0120 N.2   700  G2N700     -0.3683
     14  NAN      110.3560   84.6570    7.6830 N.am  700  G2N700     -0.1155
     15  NAO      114.5880   84.1690    5.5240 N.2   700  G2N700     -0.4048
     16  OAP      111.0930   82.4680    8.1910 O.3   700  G2N700     -0.4333
     17  CAQ      110.1330   83.4290    8.1620 C.2   700  G2N700      0.4273
     18  CAR      115.6460   86.3210    5.0300 C.2   700  G2N700      0.1568
     19  CAS      112.5180   87.1130    6.4310 C.2   700  G2N700      0.2519
     20  CAT      116.5330   87.3170    4.7130 C.ar  700  G2N700      0.0318
     21  CAU      111.4360   85.1610    7.1400 C.2   700  G2N700      0.1945
     22  CAV      113.5190   84.9330    6.0480 C.2   700  G2N700      0.1505
     23  CAW      113.5210   86.3160    5.9270 C.2   700  G2N700      0.2037
     24  CAX      115.7970   84.7790    4.9700 C.2   700  G2N700      0.1384
@<TRIPOS>BOND
     1     7     9   ar
     2     7     5   ar
     3     9    20   ar
     4     5     6   ar
     5    20    18    1
     6    20     8   ar
     7    24    18    1
     8    24    15    2
     9    24     2    1
    10    18    12    2
    11    12    23    2
    12    15    22    2
    13     6     8   ar
    14    23    22    1
    15    23    19    1
    16    22    10    1
    17     3    19    1
    18    19    13    2
    19    10    21    1
    20    13    21    2
    21    21    14    1
    22    14    17   am
    23    17    16    1
    24    17     4    2
    25    16    11    1
    26    11     1    1
