@<TRIPOS>MOLECULE
3n2g_GDP_B_1.pdb
 28 30 0 0 0
SMALL
GASTEIGER

@<TRIPOS>ATOM
      1  PB        90.8330   72.4280    5.2230 P.3   600  GDP600      0.5373
      2  O1B       92.0890   73.0890    5.7000 O.3   600  GDP600     -0.1143
      3  O2B       91.0380   70.9140    5.1740 O.2   600  GDP600     -0.2221
      4  O3B       89.5540   72.6010    6.0920 O.3   600  GDP600     -0.1143
      5  O3A       90.5690   73.0760    3.7610 O.3   600  GDP600     -0.2261
      6  PA        91.2190   72.5520    2.3790 P.3   600  GDP600      0.2231
      7  O1A       92.4420   71.8440    2.8030 O.3   600  GDP600     -0.4370
      8  O2A       90.1890   71.7630    1.5060 O.2   600  GDP600     -0.5169
      9  O5'       91.7410   73.8590    1.6200 O.3   600  GDP600     -0.3111
     10  C5'       90.9280   74.3640    0.5970 C.3   600  GDP600      0.1813
     11  C4'       91.7770   75.1940   -0.3470 C.3   600  GDP600      0.1799
     12  O4'       93.1100   74.7570   -0.2260 O.3   600  GDP600     -0.3326
     13  C3'       91.3000   74.9620   -1.7780 C.3   600  GDP600      0.2158
     14  O3'       91.3300   76.1580   -2.5320 O.3   600  GDP600     -0.2175
     15  C2'       92.3000   74.0190   -2.3760 C.3   600  GDP600      0.2310
     16  O2'       92.6080   74.4520   -3.6860 O.3   600  GDP600     -0.2158
     17  C1'       93.5070   74.1120   -1.4350 C.3   600  GDP600      0.2293
     18  N9        94.1360   72.7850   -1.1900 N.pl3 600  GDP600     -0.2354
     19  C8        93.5070   71.6110   -0.8340 C.3   600  GDP600      0.2246
     20  N7        94.4560   70.6500   -0.7320 N.2   600  GDP600     -0.2322
     21  C5        95.6730   71.1830   -1.0150 C.2   600  GDP600      0.2182
     22  C6        96.9560   70.6460   -1.0580 C.1   600  GDP600      0.2372
     23  O6        97.1720   69.6330   -0.4070 O.2   600  GDP600     -0.2069
     24  N1        98.0270   71.4490   -1.3970 N.2   600  GDP600     -0.2485
     25  C2        97.8280   72.7780   -1.6930 C.1   600  GDP600      0.2531
     26  N2        98.6440   73.3260   -2.5540 N.pl3 600  GDP600     -0.0226
     27  N3        96.5640   73.3130   -1.6530 N.2   600  GDP600     -0.3074
     28  C4        95.4940   72.5270   -1.3190 C.2   600  GDP600      0.2300
@<TRIPOS>BOND
     1    16    15    1
     2    26    25    1
     3    14    13    1
     4    15    13    1
     5    15    17    1
     6    13    11    1
     7    25    27    2
     8    25    24    2
     9    27    28    2
    10    17    18    1
    11    17    12    1
    12    24    22    2
    13    28    18    1
    14    28    21    1
    15    18    19    1
    16    22    21    1
    17    22    23    2
    18    21    20    2
    19    19    20    1
    20    11    12    1
    21    11    10    1
    22    10     9    1
    23     8     6    2
    24     9     6    1
    25     6     7    1
    26     6     5    1
    27     5     1    1
    28     3     1    2
    29     1     2    1
    30     1     4    1
