@<TRIPOS>MOLECULE
3n2i_THM_A_1.pdb
 17 18 0 0 0
SMALL
GASTEIGER

@<TRIPOS>ATOM
      1  O5'       32.2510  -21.5730    4.5240 O.3   214  THM214     -0.2176
      2  C5'       31.9060  -20.3750    3.7930 C.3   214  THM214      0.2141
      3  C4'       33.1660  -19.5640    3.9700 C.3   214  THM214      0.1802
      4  O4'       33.0670  -18.2670    4.5150 O.3   214  THM214     -0.3338
      5  C3'       34.0020  -19.2230    2.7750 C.3   214  THM214      0.1858
      6  O3'       34.1900  -20.3120    1.9190 O.3   214  THM214     -0.2203
      7  C2'       35.1870  -18.7710    3.6140 C.3   214  THM214      0.0874
      8  C1'       34.4400  -17.8430    4.5760 C.3   214  THM214      0.2090
      9  N1        34.7850  -17.8050    6.0000 N.am  214  THM214     -0.1794
     10  C2        35.3080  -16.6190    6.4720 C.1   214  THM214      0.2844
     11  O2        35.5410  -15.7100    5.6620 O.2   214  THM214     -0.1918
     12  N3        35.6090  -16.4220    7.7450 N.2   214  THM214     -0.2455
     13  C4        35.3900  -17.3500    8.6370 C.1   214  THM214      0.2134
     14  O4        35.6700  -17.0720    9.7980 O.2   214  THM214     -0.2088
     15  C5        34.7810  -18.6140    8.2360 C.2   214  THM214      0.0891
     16  C5M       34.4890  -19.6920    9.2440 C.3   214  THM214      0.0462
     17  C6        34.5010  -18.7870    6.8830 C.2   214  THM214      0.0877
@<TRIPOS>BOND
     1     6     5    1
     2     5     7    1
     3     5     3    1
     4     7     8    1
     5     2     3    1
     6     2     1    1
     7     3     4    1
     8     4     8    1
     9     8     9    1
    10    11    10    2
    11     9    10   am
    12     9    17    1
    13    10    12    2
    14    17    15    2
    15    12    13    2
    16    15    13    1
    17    15    16    1
    18    13    14    2
