@<TRIPOS>MOLECULE
3n2k_GTP_A_1.pdb
 32 34 0 0 0
SMALL
GASTEIGER

@<TRIPOS>ATOM
      1  PG       122.2580   92.8830   17.4170 P.3   600  GTP600      0.5373
      2  O1G      122.4610   91.7510   16.4750 O.2   600  GTP600     -0.2221
      3  O2G      122.4170   92.4010   18.8580 O.3   600  GTP600     -0.1143
      4  O3G      120.8880   93.5700   17.1720 O.3   600  GTP600     -0.1143
      5  O3B      123.4040   93.9940   17.2730 O.3   600  GTP600     -0.2258
      6  PB       122.9390   95.5360   17.1730 P.3   600  GTP600      0.2277
      7  O1B      124.0210   96.3800   17.7520 O.2   600  GTP600     -0.5168
      8  O2B      121.5180   95.7490   17.7840 O.3   600  GTP600     -0.4368
      9  O3A      122.9150   95.7890   15.5660 O.3   600  GTP600     -0.2700
     10  PA       124.2300   95.6980   14.6310 P.3   600  GTP600      0.2189
     11  O1A      124.1810   94.4780   13.7930 O.2   600  GTP600     -0.5170
     12  O2A      125.4370   95.8150   15.5810 O.3   600  GTP600     -0.4371
     13  O5'      124.2030   96.9760   13.6660 O.3   600  GTP600     -0.3112
     14  C5'      123.8390   96.8880   12.3070 C.3   600  GTP600      0.1813
     15  C4'      124.7410   97.8480   11.5390 C.3   600  GTP600      0.1799
     16  O4'      126.0260   97.5200   11.9690 O.3   600  GTP600     -0.3326
     17  C3'      124.7590   97.6140   10.0380 C.3   600  GTP600      0.2158
     18  O3'      125.2620   98.7920    9.4370 O.3   600  GTP600     -0.2175
     19  C2'      125.7580   96.5040    9.8460 C.3   600  GTP600      0.2310
     20  O2'      126.4170   96.6460    8.6250 O.3   600  GTP600     -0.2158
     21  C1'      126.7470   96.8470   10.9360 C.3   600  GTP600      0.2293
     22  N9       127.5670   95.7170   11.4300 N.pl3 600  GTP600     -0.2354
     23  C8       127.1340   94.5630   12.0050 C.3   600  GTP600      0.2246
     24  N7       128.2170   93.8150   12.3350 N.2   600  GTP600     -0.2322
     25  C5       129.3290   94.4810   11.9980 C.2   600  GTP600      0.2182
     26  C6       130.6690   94.1670   12.1010 C.1   600  GTP600      0.2372
     27  O6       131.0190   93.0920   12.5730 O.2   600  GTP600     -0.2069
     28  N1       131.6010   95.0570   11.6460 N.2   600  GTP600     -0.2485
     29  C2       131.1750   96.2400   11.0930 C.1   600  GTP600      0.2531
     30  N2       132.0190   97.1450   10.6310 N.pl3 600  GTP600     -0.0226
     31  N3       129.8550   96.5200   10.9940 N.2   600  GTP600     -0.3074
     32  C4       128.9340   95.6670   11.4340 C.2   600  GTP600      0.2300
@<TRIPOS>BOND
     1    20    19    1
     2    18    17    1
     3    19    17    1
     4    19    21    1
     5    17    15    1
     6    30    29    1
     7    21    22    1
     8    21    16    1
     9    31    29    2
    10    31    32    2
    11    29    28    2
    12    22    32    1
    13    22    23    1
    14    32    25    1
    15    15    16    1
    16    15    14    1
    17    28    26    2
    18    25    26    1
    19    25    24    2
    20    23    24    1
    21    26    27    2
    22    14    13    1
    23    13    10    1
    24    11    10    2
    25    10     9    1
    26    10    12    1
    27     9     6    1
    28     2     1    2
    29     4     1    1
    30     6     5    1
    31     6     7    2
    32     6     8    1
    33     5     1    1
    34     1     3    1
