@<TRIPOS>MOLECULE
3n2k_GDP_B_1.pdb
 28 30 0 0 0
SMALL
GASTEIGER

@<TRIPOS>ATOM
      1  PB        89.4350   73.2310    5.1070 P.3   600  GDP600      0.5373
      2  O1B       90.5730   74.0300    5.6130 O.3   600  GDP600     -0.1143
      3  O2B       89.7250   71.7190    5.1030 O.2   600  GDP600     -0.2221
      4  O3B       88.1120   73.4750    5.8720 O.3   600  GDP600     -0.1143
      5  O3A       89.3300   73.7640    3.6000 O.3   600  GDP600     -0.2261
      6  PA        90.1140   73.0620    2.3740 P.3   600  GDP600      0.2231
      7  O1A       91.2170   72.3170    3.0170 O.3   600  GDP600     -0.4370
      8  O2A       89.1990   72.1690    1.4790 O.2   600  GDP600     -0.5169
      9  O5'       90.6790   74.2930    1.5020 O.3   600  GDP600     -0.3111
     10  C5'       89.8060   74.9150    0.5890 C.3   600  GDP600      0.1813
     11  C4'       90.5900   75.8050   -0.3520 C.3   600  GDP600      0.1799
     12  O4'       91.9430   75.4450   -0.2460 O.3   600  GDP600     -0.3326
     13  C3'       90.1330   75.5640   -1.7800 C.3   600  GDP600      0.2158
     14  O3'       90.0820   76.7850   -2.4710 O.3   600  GDP600     -0.2175
     15  C2'       91.2230   74.7580   -2.4290 C.3   600  GDP600      0.2310
     16  O2'       91.5750   75.3080   -3.6900 O.3   600  GDP600     -0.2158
     17  C1'       92.3850   74.7930   -1.4310 C.3   600  GDP600      0.2293
     18  N9        92.9480   73.4280   -1.1890 N.pl3 600  GDP600     -0.2354
     19  C8        92.2730   72.2650   -0.8650 C.3   600  GDP600      0.2246
     20  N7        93.1780   71.2520   -0.7650 N.2   600  GDP600     -0.2322
     21  C5        94.4250   71.7330   -1.0100 C.2   600  GDP600      0.2182
     22  C6        95.6890   71.1400   -1.0400 C.1   600  GDP600      0.2372
     23  O6        95.8690   70.0900   -0.4320 O.2   600  GDP600     -0.2069
     24  N1        96.7870   71.9180   -1.3480 N.2   600  GDP600     -0.2485
     25  C2        96.6370   73.2700   -1.6280 C.1   600  GDP600      0.2531
     26  N2        97.4660   73.8360   -2.4880 N.pl3 600  GDP600     -0.0226
     27  N3        95.3890   73.8450   -1.5860 N.2   600  GDP600     -0.3074
     28  C4        94.2910   73.0950   -1.2920 C.2   600  GDP600      0.2300
@<TRIPOS>BOND
     1    16    15    1
     2    26    25    1
     3    14    13    1
     4    15    13    1
     5    15    17    1
     6    13    11    1
     7    25    27    2
     8    25    24    2
     9    27    28    2
    10    17    18    1
    11    17    12    1
    12    24    22    2
    13    28    18    1
    14    28    21    1
    15    18    19    1
    16    22    21    1
    17    22    23    2
    18    21    20    2
    19    19    20    1
    20    11    12    1
    21    11    10    1
    22    10     9    1
    23     8     6    2
    24     9     6    1
    25     6     7    1
    26     6     5    1
    27     5     1    1
    28     3     1    2
    29     1     2    1
    30     1     4    1
