@<TRIPOS>MOLECULE
3n2k_K2N_B_1.pdb
 24 26 0 0 0
SMALL
GASTEIGER

@<TRIPOS>ATOM
      1  CAA      108.6690   81.6020   10.1350 C.3   700  K2N700      0.0513
      2  CAB      113.6520   85.1490    3.3950 C.3   700  K2N700      0.0340
      3  NAC      110.7770   88.6490    6.2110 N.pl3 700  K2N700     -0.0903
      4  OAD      107.6900   82.9290    8.4450 O.2   700  K2N700     -0.2241
      5  CAE      117.4210   89.4440    3.9390 C.ar  700  K2N700      0.0000
      6  CAF      116.7640   89.5520    5.1530 C.ar  700  K2N700      0.0001
      7  CAG      116.9650   88.5340    2.9910 C.ar  700  K2N700      0.0001
      8  CAH      115.6560   88.7430    5.3930 C.ar  700  K2N700      0.0023
      9  CAI      115.8490   87.7290    3.2420 C.ar  700  K2N700      0.0023
     10  CAJ      111.2580   84.6450    6.7280 C.3   700  K2N700      0.1249
     11  CAK      109.9160   82.1040    9.3620 C.3   700  K2N700      0.2103
     12  NAL      113.0300   87.5720    5.4000 N.2   700  K2N700     -0.3990
     13  NAM      109.9640   86.5680    6.9810 N.2   700  K2N700     -0.3684
     14  NAN      109.0210   84.6120    7.7180 N.am  700  K2N700     -0.1156
     15  NAO      113.4450   84.8630    5.6800 N.2   700  K2N700     -0.2664
     16  OAP      109.7250   82.3830    7.9600 O.3   700  K2N700     -0.4333
     17  CAQ      108.7770   83.3280    8.0180 C.2   700  K2N700      0.4273
     18  CAR      114.0980   87.0550    4.8240 C.2   700  K2N700      0.1312
     19  CAS      115.1620   87.8490    4.4410 C.ar  700  K2N700      0.0273
     20  CAT      110.9200   87.3390    6.3920 C.2   700  K2N700      0.2508
     21  CAU      110.0870   85.2450    7.1890 C.2   700  K2N700      0.1933
     22  CAV      112.2560   85.4290    6.1140 C.2   700  K2N700      0.0960
     23  CAW      112.0770   86.7860    5.9080 C.2   700  K2N700      0.1912
     24  CAX      114.2360   85.5580    4.6950 C.3   700  K2N700      0.1547
@<TRIPOS>BOND
     1     7     9   ar
     2     7     5   ar
     3     9    19   ar
     4     2    24    1
     5     5     6   ar
     6    19    18    1
     7    19     8   ar
     8    24    18    1
     9    24    15    1
    10    18    12    2
    11     6     8   ar
    12    12    23    2
    13    15    22    2
    14    23    22    1
    15    23    20    1
    16    22    10    1
    17     3    20    1
    18    20    13    2
    19    10    21    1
    20    13    21    2
    21    21    14    1
    22    14    17   am
    23    16    17    1
    24    16    11    1
    25    17     4    2
    26    11     1    1
