@<TRIPOS>MOLECULE
3n2m_FNU_A_1.pdb
 23 24 0 0 0
SMALL
GASTEIGER

@<TRIPOS>ATOM
      1  P         -6.7540   30.9930  -26.0000 P.3   324  FNU324      0.5327
      2  N1        -7.8330   24.9120  -23.2540 N.am  324  FNU324     -0.0533
      3  C2        -6.8830   25.5480  -22.5710 C.1   324  FNU324      0.3761
      4  N2        -6.0230   24.9490  -21.7060 N.2   324  FNU324     -0.2243
      5  O2        -6.7840   26.8570  -22.7690 O.2   324  FNU324     -0.1670
      6  N3        -8.8630   22.8760  -23.7550 N.pl3 324  FNU324      0.2145
      7  C4        -6.1860   23.6260  -21.5230 C.1   324  FNU324      0.2535
      8  O4        -5.3690   23.0000  -20.6740 O.2   324  FNU324     -0.2059
      9  C5        -7.1280   22.8840  -22.2210 C.2   324  FNU324      0.3192
     10  C6        -7.9380   23.5820  -23.0740 C.2   324  FNU324      0.4213
     11  C1'       -8.6940   25.6280  -24.2160 C.3   324  FNU324      0.3331
     12  O1P       -5.6600   30.9080  -27.0440 O.2   324  FNU324     -0.2224
     13  C2'       -9.3930   26.8620  -23.6270 C.3   324  FNU324      0.2581
     14  O2'      -10.5810   26.5770  -22.8790 O.3   324  FNU324     -0.2130
     15  F24       -7.2630   21.5420  -22.0370 F     324  FNU324     -0.1825
     16  O2P       -6.2080   30.9970  -24.5830 O.3   324  FNU324     -0.1145
     17  C3'       -9.6270   27.6760  -24.9000 C.3   324  FNU324      0.2185
     18  O3'      -10.7180   27.1150  -25.6280 O.3   324  FNU324     -0.2174
     19  O3P       -7.7630   32.0920  -26.3190 O.3   324  FNU324     -0.1145
     20  C4'       -8.3280   27.4460  -25.6800 C.3   324  FNU324      0.1823
     21  O4'       -7.9340   26.1290  -25.3430 O.3   324  FNU324     -0.3127
     22  C5'       -7.2570   28.4540  -25.3050 C.3   324  FNU324      0.1860
     23  O5'       -7.5820   29.6150  -26.0410 O.3   324  FNU324     -0.2675
@<TRIPOS>BOND
     1    12     1    2
     2    19     1    1
     3    23     1    1
     4    23    22    1
     5     1    16    1
     6    20    21    1
     7    20    22    1
     8    20    17    1
     9    18    17    1
    10    21    11    1
    11    17    13    1
    12    11    13    1
    13    11     2    1
    14     6    10    1
    15    13    14    1
    16     2    10    1
    17     2     3   am
    18    10     9    2
    19     5     3    2
    20     3     4    2
    21     9    15    1
    22     9     7    1
    23     4     7    2
    24     7     8    2
