@<TRIPOS>MOLECULE
3n2o_PLP_A_1.pdb
 15 15 0 0 0
SMALL
GASTEIGER

@<TRIPOS>ATOM
      1  N1         8.5130   43.8210   58.0680 N.ar  1001  PLP1001    -0.2452
      2  C2         7.4990   44.2550   57.2840 C.ar  1001  PLP1001     0.0978
      3  C2A        6.7010   45.4150   57.7210 C.3   1001  PLP1001     0.0555
      4  C3         7.2140   43.6230   56.1010 C.ar  1001  PLP1001     0.2049
      5  O3         6.1690   44.0030   55.3570 O.3   1001  PLP1001    -0.2857
      6  C4         7.9460   42.5450   55.6830 C.ar  1001  PLP1001     0.0182
      7  C4A        7.5150   41.8440   54.4280 C.3   1001  PLP1001     0.0342
      8  C5         8.9880   42.1050   56.5000 C.ar  1001  PLP1001     0.0261
      9  C6         9.2350   42.7520   57.6820 C.ar  1001  PLP1001     0.0965
     10  C5A        9.9110   40.9920   56.1140 C.3   1001  PLP1001     0.1815
     11  O4P       11.1750   41.4050   55.7340 O.3   1001  PLP1001    -0.2653
     12  P         12.2860   40.4010   55.3180 P.3   1001  PLP1001     0.5329
     13  O1P       11.9930   39.7080   54.1350 O.2   1001  PLP1001    -0.2224
     14  O2P       12.5010   39.4260   56.2810 O.3   1001  PLP1001    -0.1145
     15  O3P       13.4790   41.0880   55.1170 O.3   1001  PLP1001    -0.1145
@<TRIPOS>BOND
     1    13    12    2
     2     7     6    1
     3    15    12    1
     4    12    11    1
     5    12    14    1
     6     5     4    1
     7     6     4   ar
     8     6     8   ar
     9    11    10    1
    10     4     2   ar
    11    10     8    1
    12     8     9   ar
    13     2     3    1
    14     2     1   ar
    15     9     1   ar
