@<TRIPOS>MOLECULE
3n2p_AYX_A_1.pdb
 34 35 0 0 0
SMALL
GASTEIGER

@<TRIPOS>ATOM
      1  C1        -5.4610    2.3780   15.8890 C.ar  263  AYX263      0.1067
      2  N1        -5.3270   -0.3280   16.1250 N.3   263  AYX263     -0.1053
      3  O1        -7.3870    0.9760   16.7930 O.2   263  AYX263     -0.1519
      4  S1        -5.9410    0.9640   16.8390 S.O2  263  AYX263      0.0723
      5  C2        -4.1630    2.4900   15.4090 C.ar  263  AYX263     -0.0336
      6  O2        -5.3590    1.0960   18.1770 O.2   263  AYX263     -0.1519
      7  C3        -3.8120    3.5980   14.6450 C.ar  263  AYX263     -0.0386
      8  C4        -4.7720    4.5670   14.4060 C.ar  263  AYX263      0.0349
      9  C5        -6.0650    4.4680   14.8770 C.ar  263  AYX263     -0.0386
     10  C6        -6.4130    3.3530   15.6390 C.ar  263  AYX263     -0.0336
     11  N7        -4.3580    5.6910   13.5850 N.am  263  AYX263     -0.2692
     12  C8        -5.2390    6.3380   12.6440 C.2   263  AYX263      0.3081
     13  O8        -6.4510    6.1820   12.5680 O.2   263  AYX263     -0.2522
     14  N9        -4.6130    7.4150   11.9430 N.am  263  AYX263     -0.2691
     15  C10       -5.1860    8.3130   10.9980 C.ar  263  AYX263      0.0369
     16  C11       -6.3740    7.9840   10.3530 C.ar  263  AYX263     -0.0102
     17  C12       -6.8900    8.8770    9.4080 C.ar  263  AYX263      0.1279
     18  C13       -6.2520   10.0770    9.1560 C.ar  263  AYX263     -0.0314
     19  C14       -5.0540   10.3820    9.8010 C.ar  263  AYX263     -0.0579
     20  C15       -4.5210    9.5020   10.7460 C.ar  263  AYX263     -0.0403
     21  N16       -8.1120    8.5820    8.7350 N.pl3 263  AYX263      0.0565
     22  O16       -8.6190    9.4650    7.9200 O.2   263  AYX263     -0.1261
     23  O17       -8.6660    7.4290    8.8750 O.2   263  AYX263     -0.1261
     24 H111       -6.8240    7.1440   10.5400 H     263  AYX263      0.0659
     25 H113       -6.6200   10.6930    8.4960 H     263  AYX263      0.0640
     26 H114       -4.6050   11.2240    9.6170 H     263  AYX263      0.0619
     27 H115       -3.6850    9.7140   11.2090 H     263  AYX263      0.0636
     28  H2        -3.5090    1.7950   15.5930 H     263  AYX263      0.0638
     29  H3        -2.9100    3.6970   14.2980 H     263  AYX263      0.0637
     30  H5        -6.7170    5.1620   14.6880 H     263  AYX263      0.0637
     31  H6        -7.3170    3.2570   15.9860 H     263  AYX263      0.0638
     32  HN7       -3.4740    5.8920   13.5490 H     263  AYX263      0.1564
     33  HN9       -3.7230    7.5340   12.1130 H     263  AYX263      0.1564
     34 HN1A       -4.6470   -0.6600   16.6310 H     263  AYX263      0.1694
@<TRIPOS>BOND
     1    22    21    2
     2    25    18    1
     3    21    23    2
     4    21    17    1
     5    18    17   ar
     6    18    19   ar
     7    17    16   ar
     8    26    19    1
     9    19    20   ar
    10    16    24    1
    11    16    15   ar
    12    20    15   ar
    13    20    27    1
    14    15    14    1
    15    14    33    1
    16    14    12   am
    17    13    12    2
    18    12    11   am
    19    32    11    1
    20    11     8    1
    21    29     7    1
    22     8     7   ar
    23     8     9   ar
    24     7     5   ar
    25    30     9    1
    26     9    10   ar
    27     5    28    1
    28     5     1   ar
    29    10     1   ar
    30    10    31    1
    31     1     4    1
    32     2    34    1
    33     2     4    1
    34     3     4    2
    35     4     6    2
