@<TRIPOS>MOLECULE
3n2r_H4B_A_1.pdb
 17 18 0 0 0
SMALL
GASTEIGER

@<TRIPOS>ATOM
      1  N1         9.8980    2.5940   33.9950 N.2   760  H4B760     -0.2683
      2  C2        10.0720    2.2100   32.7050 C.1   760  H4B760      0.2608
      3  N2        11.3520    2.1350   32.1750 N.pl3 760  H4B760     -0.0220
      4  N3         8.9880    1.9310   31.9630 N.2   760  H4B760     -0.2474
      5  C4         7.7230    2.0340   32.4680 C.1   760  H4B760      0.2441
      6  O4         6.7330    1.7670   31.7390 O.2   760  H4B760     -0.2063
      7  C4A        7.5430    2.4510   33.7860 C.2   760  H4B760      0.2463
      8  C8A        8.6770    2.7240   34.5600 C.1   760  H4B760      0.1270
      9  N5         6.3110    2.5530   34.3620 N.2   760  H4B760     -0.2460
     10  N8         8.5790    3.1180   35.8750 N.2   760  H4B760     -0.2054
     11  C6         6.2060    3.4730   35.5020 C.3   760  H4B760      0.1627
     12  C7         7.2710    3.2250   36.5450 C.3   760  H4B760      0.1643
     13  C9         4.8090    3.5430   36.1270 C.3   760  H4B760      0.2063
     14  O9         4.4150    2.2130   36.4980 O.3   760  H4B760     -0.2183
     15  C10        4.7290    4.4620   37.3400 C.3   760  H4B760      0.1842
     16  C11        3.2770    4.6590   37.7780 C.3   760  H4B760      0.0383
     17  O10        5.2580    5.7640   37.0080 O.3   760  H4B760     -0.2204
@<TRIPOS>BOND
     1     6     5    2
     2     4     5    2
     3     4     2    2
     4     3     2    1
     5     5     7    1
     6     2     1    2
     7     7     9    2
     8     7     8    1
     9     1     8    2
    10     9    11    1
    11     8    10    2
    12    11    13    1
    13    11    12    1
    14    10    12    1
    15    13    14    1
    16    13    15    1
    17    17    15    1
    18    15    16    1
