@<TRIPOS>MOLECULE
3n2r_XJH_A_1.pdb
 27 30 0 0 0
SMALL
GASTEIGER

@<TRIPOS>ATOM
      1  N01       13.2850    0.4800   24.0630 N.2   800  XJH800     -0.3924
      2  C02       14.5000    0.2020   23.4890 C.2   800  XJH800      0.2004
      3  N02       15.2730   -0.8170   23.9240 N.pl3 800  XJH800     -0.0977
      4  C03       14.9730    0.9720   22.4230 C.3   800  XJH800      0.1041
      5  C04       14.1820    2.0200   21.9510 C.2   800  XJH800     -0.0149
      6  C05       12.9580    2.2830   22.5480 C.2   800  XJH800      0.0235
      7  C06       12.5030    1.5150   23.6190 C.2   800  XJH800      0.1102
      8  C07       11.1270    1.8350   24.2240 C.3   800  XJH800      0.0641
      9  N1'        9.0840   -1.0540   23.1440 N.3   800  XJH800     -0.2141
     10  O10        8.0740    1.7570   24.7540 O.3   800  XJH800     -0.4775
     11  C11        6.8100    1.8390   25.3570 C.ar  800  XJH800      0.1415
     12  C12        5.8900    0.7790   25.2110 C.ar  800  XJH800      0.0371
     13  C13        4.6250    0.8070   25.7920 C.ar  800  XJH800      0.0062
     14  C14        4.2530    1.9230   26.5440 C.ar  800  XJH800      0.0377
     15  C15        5.1300    3.0090   26.7180 C.ar  800  XJH800      0.1483
     16  C16        6.4140    2.9580   26.1190 C.ar  800  XJH800      0.0743
     17  C2'       10.2280   -0.1880   22.9730 C.3   800  XJH800      0.0929
     18  O20        4.7110    4.1050   27.4710 O.3   800  XJH800     -0.4534
     19  C21        3.3790    4.5060   27.4730 C.ar  800  XJH800      0.1453
     20  C22        2.5000    4.0830   28.4860 C.ar  800  XJH800      0.0375
     21  C23        1.1570    4.4810   28.4820 C.ar  800  XJH800      0.0031
     22  C24        0.6730    5.3080   27.4610 C.ar  800  XJH800      0.0002
     23  C25        1.5360    5.7350   26.4450 C.ar  800  XJH800      0.0031
     24  C26        2.8810    5.3330   26.4520 C.ar  800  XJH800      0.0375
     25  C3'       10.3100    0.5480   24.3060 C.3   800  XJH800      0.0659
     26  C4'        8.8820    0.5610   24.8890 C.3   800  XJH800      0.1849
     27  C5'        8.2030   -0.6290   24.2190 C.3   800  XJH800      0.1321
@<TRIPOS>BOND
     1     5     4    1
     2     5     6    2
     3     4     2    1
     4     6     7    1
     5    17     9    1
     6    17    25    1
     7     9    27    1
     8     2     3    1
     9     2     1    2
    10     7     1    2
    11     7     8    1
    12    27    26    1
    13     8    25    1
    14    25    26    1
    15    10    26    1
    16    10    11    1
    17    12    11   ar
    18    12    13   ar
    19    11    16   ar
    20    13    14   ar
    21    16    15   ar
    22    23    24   ar
    23    23    22   ar
    24    24    19   ar
    25    14    15   ar
    26    15    18    1
    27    22    21   ar
    28    18    19    1
    29    19    20   ar
    30    21    20   ar
