@<TRIPOS>MOLECULE
3n2r_HEM_A_1.pdb
 43 50 0 0 0
SMALL
GASTEIGER

@<TRIPOS>ATOM
      1  CHA       12.9710    4.6250   26.6610 C.2   750  HEM750      0.0000
      2  CHB       16.8020    1.6570   26.2510 C.2   750  HEM750      0.0000
      3  CHC       17.7360    3.5480   21.8760 C.2   750  HEM750      0.0000
      4  CHD       14.6460    7.1850   22.8180 C.2   750  HEM750      0.0000
      5  C1A       13.8290    3.5660   26.8210 C.2   750  HEM750      0.0000
      6  C2A       13.6570    2.4660   27.7460 C.2   750  HEM750      0.0000
      7  C3A       14.7020    1.6570   27.6440 C.2   750  HEM750      0.0000
      8  C4A       15.5840    2.1930   26.6290 C.2   750  HEM750      0.0000
      9  CMA       14.9200    0.3620   28.4620 C.3   750  HEM750      0.0000
     10  CAA       12.4550    2.2520   28.6920 C.3   750  HEM750      0.0000
     11  CBA       11.3830    1.5730   27.8150 C.3   750  HEM750      0.0000
     12  CGA       10.1080    1.2840   28.5630 C.2   750  HEM750      0.0000
     13  O1A       10.1700    0.9200   29.7730 O.co2 750  HEM750      0.0000
     14  O2A        9.0080    1.3800   27.9280 O.co2 750  HEM750      0.0000
     15  C1B       17.3690    1.8740   25.0200 C.ar  750  HEM750      0.0000
     16  C2B       18.4620    1.1200   24.4460 C.ar  750  HEM750      0.0000
     17  C3B       18.7220    1.6300   23.2420 C.ar  750  HEM750      0.0000
     18  C4B       17.8160    2.7630   23.0200 C.ar  750  HEM750      0.0000
     19  CMB       19.1740   -0.1030   25.0930 C.3   750  HEM750      0.0000
     20  CAB       19.8150    1.0440   22.3200 C.2   750  HEM750      0.0000
     21  CBB       20.3400    1.6770   21.2600 C.2   750  HEM750      0.0000
     22  C1C       16.9350    4.6750   21.7030 C.2   750  HEM750      0.0000
     23  C2C       16.8980    5.5010   20.5050 C.2   750  HEM750      0.0000
     24  C3C       16.0430    6.5130   20.7590 C.2   750  HEM750      0.0000
     25  C4C       15.5390    6.3610   22.1260 C.2   750  HEM750      0.0000
     26  CMC       17.6940    5.1660   19.2180 C.3   750  HEM750      0.0000
     27  CAC       15.6190    7.6720   19.8310 C.2   750  HEM750      0.0000
     28  CBC       16.3740    8.0220   18.7820 C.2   750  HEM750      0.0000
     29  C1D       13.8760    6.8220   23.9090 C.ar  750  HEM750      0.0000
     30  C2D       12.7040    7.5240   24.3850 C.ar  750  HEM750      0.0000
     31  C3D       12.2040    6.7310   25.5670 C.ar  750  HEM750      0.0000
     32  C4D       13.0800    5.6120   25.6930 C.ar  750  HEM750      0.0000
     33  CMD       12.1150    8.8450   23.8150 C.3   750  HEM750      0.0000
     34  CAD       10.9730    7.0360   26.4490 C.3   750  HEM750      0.0000
     35  CBD        9.8100    6.3360   25.7630 C.3   750  HEM750      0.0000
     36  CGD        8.5440    6.5640   26.5290 C.2   750  HEM750      0.0000
     37  O1D        8.4420    7.5740   27.2960 O.co2 750  HEM750      0.0000
     38  O2D        7.6470    5.7050   26.3740 O.co2 750  HEM750      0.0000
     39  NA        15.0530    3.4070   26.1910 N.2   750  HEM750      0.0000
     40  NB        17.0610    2.9410   24.1850 N.ar  750  HEM750      0.0000
     41  NC        16.1340    5.2610   22.6680 N.2   750  HEM750      0.0000
     42  ND        14.0880    5.7270   24.7380 N.ar  750  HEM750      0.0000
     43 FE         15.6660    4.4080   24.5410 Fe    750  HEM750      0.0000
@<TRIPOS>BOND
     1    28    27    2
     2    26    23    1
     3    27    24    1
     4    23    24    2
     5    23    22    1
     6    24    25    1
     7    21    20    2
     8    22     3    2
     9    22    41    1
    10     3    18    1
    11    25    41    2
    12    25     4    1
    13    20    17    1
    14    41    43    1
    15     4    29    2
    16    18    17   ar
    17    18    40   ar
    18    17    16   ar
    19    33    30    1
    20    29    30   ar
    21    29    42   ar
    22    40    43    1
    23    40    15   ar
    24    30    31   ar
    25    16    15   ar
    26    16    19    1
    27    43    42    1
    28    43    39    1
    29    42    32   ar
    30    15     2    1
    31    31    32   ar
    32    31    34    1
    33    32     1    2
    34    35    34    1
    35    35    36    1
    36    39     8    1
    37    39     5    2
    38     2     8    2
    39    38    36   ar
    40    36    37   ar
    41     8     7    1
    42     1     5    1
    43     5     6    1
    44     7     6    2
    45     7     9    1
    46     6    10    1
    47    11    12    1
    48    11    10    1
    49    14    12   ar
    50    12    13   ar
