@<TRIPOS>MOLECULE
3n2s_FMN_A_1.pdb
 31 33 0 0 0
SMALL
GASTEIGER

@<TRIPOS>ATOM
      1  N1        39.2670   18.2240   30.3790 N.2   400  FMN400     -0.2887
      2  C2        39.5820   17.7560   29.1420 C.1   400  FMN400      0.3669
      3  O2        40.5670   18.2040   28.5250 O.2   400  FMN400     -0.1744
      4  N3        38.8280   16.7910   28.5520 N.2   400  FMN400     -0.2300
      5  C4        37.7330   16.1590   29.0890 C.1   400  FMN400      0.2513
      6  O4        37.0940   15.2760   28.5030 O.2   400  FMN400     -0.2057
      7  C4A       37.3590   16.6110   30.4480 C.2   400  FMN400      0.2706
      8  N5        36.3690   16.0340   31.0830 N.2   400  FMN400     -0.3841
      9  C5A       36.1640   16.3990   32.4310 C.2   400  FMN400      0.1452
     10  C6        35.1690   15.6900   33.1540 C.2   400  FMN400      0.0252
     11  C7        34.9830   15.9170   34.5100 C.2   400  FMN400     -0.0375
     12  C7M       33.9830   15.0620   35.2740 C.3   400  FMN400      0.0268
     13  C8        35.7250   16.9720   35.1720 C.3   400  FMN400      0.0417
     14  C8M       35.5080   17.2970   36.6080 C.3   400  FMN400      0.0091
     15  C9        36.7100   17.7140   34.4550 C.2   400  FMN400     -0.0049
     16  C9A       36.9370   17.4640   33.0820 C.2   400  FMN400      0.0795
     17  N10       37.9650   18.0910   32.3300 N.pl3 400  FMN400     -0.2545
     18  C10       38.2560   17.7040   31.0590 C.2   400  FMN400      0.2449
     19  C1'       38.7880   19.1420   32.9690 C.3   400  FMN400      0.1336
     20  C2'       37.9810   20.4460   33.0480 C.3   400  FMN400      0.2048
     21  O2'       37.9730   20.9830   31.7920 O.3   400  FMN400     -0.2185
     22  C3'       38.7400   21.3800   33.9860 C.3   400  FMN400      0.2165
     23  O3'       38.7340   20.7530   35.3040 O.3   400  FMN400     -0.2175
     24  C4'       38.1210   22.8480   34.0160 C.3   400  FMN400      0.2147
     25  O4'       38.4990   23.4920   32.7830 O.3   400  FMN400     -0.2176
     26  C5'       38.7940   23.6650   35.1530 C.3   400  FMN400      0.1892
     27  O5'       40.2240   23.6920   34.8670 O.3   400  FMN400     -0.2674
     28  P         41.3200   23.2420   35.9660 P.3   400  FMN400      0.5327
     29  O1P       41.2110   24.1340   37.1770 O.3   400  FMN400     -0.1145
     30  O2P       42.5680   23.3510   35.1180 O.2   400  FMN400     -0.2224
     31  O3P       41.0130   21.7530   36.2020 O.3   400  FMN400     -0.1145
@<TRIPOS>BOND
     1     6     5    2
     2     3     2    2
     3     4     5    2
     4     4     2    2
     5     5     7    1
     6     2     1    2
     7     1    18    2
     8     7    18    1
     9     7     8    2
    10    18    17    1
    11     8     9    2
    12    21    20    1
    13    17    19    1
    14    17    16    1
    15     9    16    1
    16     9    10    1
    17    25    24    1
    18    19    20    1
    19    20    22    1
    20    16    15    2
    21    10    11    2
    22    22    24    1
    23    22    23    1
    24    24    26    1
    25    15    13    1
    26    11    13    1
    27    11    12    1
    28    27    26    1
    29    27    28    1
    30    30    28    2
    31    13    14    1
    32    28    31    1
    33    28    29    1
