@<TRIPOS>MOLECULE
3n2u_D3X_A_1.pdb
 31 32 0 0 0
SMALL
GASTEIGER

@<TRIPOS>ATOM
      1  C1         2.5610   -2.6240    0.1610 C.3     0  D3X0        0.2695
      2  N1         1.5680   -2.0230    5.5050 N.am    0  D3X0       -0.2015
      3  O1         3.2150   -2.6630    4.1170 O.2     0  D3X0       -0.5381
      4  S1         1.4800   -5.9750    4.8860 S.O2    0  D3X0        0.0637
      5  C2         2.1250   -1.1970    0.4310 C.3     0  D3X0        0.2406
      6  N2         1.7050   -4.9750    3.7320 N.3     0  D3X0       -0.1465
      7  O2         0.2280   -5.6700    5.5190 O.2     0  D3X0       -0.1528
      8  C3         2.0390   -2.7320    4.4790 C.2     0  D3X0        0.1047
      9  O3         1.4350   -7.3320    4.4160 O.2     0  D3X0       -0.1528
     10  C4         5.3840   -2.1200   -2.2030 C.3     0  D3X0        0.2142
     11  O4         0.8080   -1.2680    0.9560 O.3     0  D3X0       -0.2149
     12  C5         3.9620   -1.9360   -1.6630 C.3     0  D3X0        0.1835
     13  O5         1.8520    1.0020   -0.4860 O.3     0  D3X0       -0.2174
     14  C6         3.5150   -0.4750   -1.5560 C.3     0  D3X0        0.2144
     15  O6         3.3970    0.0100   -2.8780 O.3     0  D3X0       -0.2176
     16  C7         2.1610   -0.3530   -0.8360 C.3     0  D3X0        0.2198
     17  O7         5.4190   -5.6800    9.1320 O.3     0  D3X0       -0.4714
     18  C8         2.1350   -4.6670    1.3530 C.3     0  D3X0        0.1640
     19  O8         3.8780   -2.6070   -0.3950 O.3     0  D3X0       -0.3256
     20  C9         2.5920   -5.3590    2.6350 C.3     0  D3X0        0.1283
     21  O9         6.3250   -1.2940   -1.5030 O.3     0  D3X0       -0.2176
     22  C10        1.0680   -3.6540    3.7830 C.3     0  D3X0        0.1467
     23  O10        2.5930   -3.3190    1.4060 O.3     0  D3X0       -0.3270
     24  C11        3.3640   -5.0060    8.1510 C.ar    0  D3X0        0.0383
     25  O11        2.4990   -1.2500    6.1770 O.3     0  D3X0       -0.4026
     26  C12        2.6220   -5.8950    6.0180 C.ar    0  D3X0        0.1224
     27  C13        3.7940   -6.6820    5.9530 C.ar    0  D3X0        0.0230
     28  C14        2.4190   -5.0590    7.1260 C.ar    0  D3X0        0.0230
     29  C15        4.7530   -6.6100    6.9770 C.ar    0  D3X0        0.0383
     30  C16        4.5320   -5.7710    8.0820 C.ar    0  D3X0        0.1388
     31  C17        6.4510   -6.6470    9.3830 C.3     0  D3X0        0.2525
@<TRIPOS>BOND
     1    15    14    1
     2    10    12    1
     3    10    21    1
     4    12    14    1
     5    12    19    1
     6    14    16    1
     7    16    13    1
     8    16     5    1
     9    19     1    1
    10     1     5    1
    11     1    23    1
    12     5    11    1
    13    18    23    1
    14    18    20    1
    15    20     6    1
    16     6    22    1
    17     6     4    1
    18    22     8    1
    19     3     8    2
    20     9     4    2
    21     8     2   am
    22     4     7    2
    23     4    26    1
    24     2    25    1
    25    27    26   ar
    26    27    29   ar
    27    26    28   ar
    28    29    30   ar
    29    28    24   ar
    30    30    24   ar
    31    30    17    1
    32    17    31    1
