@<TRIPOS>MOLECULE
3n2v_JT5_A_1.pdb
 24 25 0 0 0
SMALL
GASTEIGER

@<TRIPOS>ATOM
      1  C3         1.7480   -1.9720    4.1270 C.2     0  JT50        0.1047
      2  C4         0.5840   -2.6100    3.3570 C.3     0  JT50        0.1467
      3  C8         2.0910   -4.2340    2.2050 C.3     0  JT50        0.1317
      4  N2         1.3560   -1.3850    5.2190 N.am    0  JT50       -0.2015
      5  O1         2.3080   -0.8300    5.9880 O.3     0  JT50       -0.4026
      6  O5         2.9480   -1.9900    3.8440 O.2     0  JT50       -0.5381
      7  N6         1.0200   -3.9710    3.2200 N.3     0  JT50       -0.1464
      8  S7         0.7400   -5.1240    4.2050 S.O2    0  JT50        0.0637
      9  C9         1.6090   -4.3010    0.7770 C.3     0  JT50        0.2012
     10  O10        0.8810   -3.1050    0.4510 O.3     0  JT50       -0.2188
     11  O11        0.5690   -6.3930    3.4610 O.2     0  JT50       -0.1528
     12  C12        2.0000   -5.3150    5.2240 C.ar    0  JT50        0.1222
     13  O13       -0.4210   -4.9260    5.0770 O.2     0  JT50       -0.1528
     14  C14        3.1090   -6.0710    4.8390 C.ar    0  JT50        0.0199
     15  C15        4.1950   -6.3050    5.6550 C.ar    0  JT50        0.0014
     16  C16        4.1370   -5.7880    6.9720 C.ar    0  JT50        0.0001
     17  C17        3.0540   -4.9820    7.3670 C.ar    0  JT50        0.0014
     18  C18        1.9840   -4.7290    6.5030 C.ar    0  JT50        0.0199
     19  C19        5.2690   -6.0910    7.8960 C.ar    0  JT50        0.0000
     20  C20        4.9760   -6.4030    9.2640 C.ar    0  JT50        0.0000
     21  C21        6.0220   -6.6960   10.1740 C.ar    0  JT50        0.0000
     22  C22        7.3620   -6.7730    9.7210 C.ar    0  JT50        0.0000
     23  C23        7.6260   -6.5490    8.3480 C.ar    0  JT50        0.0000
     24  C24        6.5860   -6.2270    7.4530 C.ar    0  JT50        0.0000
@<TRIPOS>BOND
     1    10     9    1
     2     9     3    1
     3     3     7    1
     4     7     2    1
     5     7     8    1
     6     2     1    1
     7    11     8    2
     8     6     1    2
     9     1     4   am
    10     8    13    2
    11     8    12    1
    12    14    12   ar
    13    14    15   ar
    14     4     5    1
    15    12    18   ar
    16    15    16   ar
    17    18    17   ar
    18    16    17   ar
    19    16    19    1
    20    24    19   ar
    21    24    23   ar
    22    19    20   ar
    23    23    22   ar
    24    20    21   ar
    25    22    21   ar
