@<TRIPOS>MOLECULE
3n2y_TEF_A_1.pdb
 17 18 0 0 0
SMALL
GASTEIGER

@<TRIPOS>ATOM
      1  CA       -23.5960  -38.6500  -14.6280 C.3   315  TEF315      0.1986
      2  N        -23.7230  -38.0740  -15.9550 N.3   315  TEF315     -0.1205
      3  OXT      -23.0430  -37.7150  -12.5360 O.co2 315  TEF315     -0.2440
      4  CB       -22.2440  -39.3230  -14.4930 C.3   315  TEF315      0.0569
      5  N2       -21.4360  -43.8240  -17.8880 N.ar  315  TEF315     -0.1284
      6  O        -24.4240  -36.5660  -13.8340 O.co2 315  TEF315     -0.2440
      7  CG       -22.0910  -40.5310  -15.3860 C.ar  315  TEF315     -0.0201
      8  N3       -22.3700  -44.8400  -18.0640 N.ar  315  TEF315     -0.1220
      9  CD1      -20.9050  -40.6760  -16.0960 C.ar  315  TEF315     -0.0026
     10  N4       -20.5230  -45.2370  -19.2600 N.ar  315  TEF315     -0.1041
     11  CE1      -20.6940  -41.7770  -16.9190 C.ar  315  TEF315      0.0206
     12  N5       -20.2650  -44.0220  -18.6070 N.ar  315  TEF315     -0.0405
     13  CZ       -21.6480  -42.7760  -17.0800 C.ar  315  TEF315      0.1045
     14  C7       -21.7620  -45.6940  -18.9260 C.ar  315  TEF315      0.2451
     15  CE2      -22.8360  -42.6010  -16.3490 C.ar  315  TEF315      0.0206
     16  CD2      -23.0750  -41.5050  -15.5160 C.ar  315  TEF315     -0.0026
     17  C        -23.6960  -37.5690  -13.5940 C.2   315  TEF315      0.3822
@<TRIPOS>BOND
     1    10    14   ar
     2    10    12   ar
     3    14     8   ar
     4    12     5   ar
     5     8     5   ar
     6     5    13    1
     7    13    11   ar
     8    13    15   ar
     9    11     9   ar
    10    15    16   ar
    11     9     7   ar
    12     2     1    1
    13    16     7   ar
    14     7     4    1
    15     1     4    1
    16     1    17    1
    17     6    17   ar
    18    17     3   ar
