@<TRIPOS>MOLECULE
3n31_FCA_A_1.pdb
 11 11 0 0 0
SMALL
GASTEIGER

@<TRIPOS>ATOM
      1  C1        21.7760    8.0600   10.3260 C.3   247  FCA247      0.3023
      2  C2        21.4630    7.0690   11.4500 C.3   247  FCA247      0.2434
      3  C3        21.8460    5.6590   10.9910 C.3   247  FCA247      0.2198
      4  C4        21.1490    5.3720    9.6570 C.3   247  FCA247      0.2118
      5  C5        21.4860    6.4900    8.6680 C.3   247  FCA247      0.1509
      6  C6        20.8230    6.1960    7.3220 C.3   247  FCA247      0.0350
      7  O1        23.1660    7.9920   10.0070 O.3   247  FCA247     -0.1869
      8  O2        22.2150    7.4160   12.6150 O.3   247  FCA247     -0.2148
      9  O3        21.4260    4.7060   11.9690 O.3   247  FCA247     -0.2174
     10  O4        19.7370    5.3150    9.8580 O.3   247  FCA247     -0.2177
     11  O5        21.0070    7.7360    9.1700 O.3   247  FCA247     -0.3264
@<TRIPOS>BOND
     1     6     5    1
     2     5    11    1
     3     5     4    1
     4    11     1    1
     5     4    10    1
     6     4     3    1
     7     7     1    1
     8     1     2    1
     9     3     2    1
    10     3     9    1
    11     2     8    1
