@<TRIPOS>MOLECULE
3n33_AES_A_1.pdb
 13 13 0 0 0
SMALL
GASTEIGER

@<TRIPOS>ATOM
      1  C3        35.7360  -35.5360   11.5270 C.ar  376  AES376     -0.0028
      2  C2        35.1790  -36.4160   12.5820 C.ar  376  AES376      0.0208
      3  C1        33.8260  -36.4430   12.8000 C.ar  376  AES376      0.1382
      4  S         33.1120  -37.5120   14.0170 S.O2  376  AES376      0.1484
      5  F         33.6130  -38.9480   13.7500 F     376  AES376     -0.0562
      6  O1S       31.6510  -37.4870   13.8880 O.2   376  AES376     -0.1378
      7  O2S       33.5230  -37.1030   15.3500 O.2   376  AES376     -0.1378
      8  C6        32.9660  -35.6570   12.0170 C.ar  376  AES376      0.0208
      9  C5        33.5040  -34.8090   11.0000 C.ar  376  AES376     -0.0028
     10  C4        34.8940  -34.7710   10.7740 C.ar  376  AES376     -0.0206
     11  C7        35.4190  -33.8910    9.6890 C.3   376  AES376      0.0468
     12  C8        36.2170  -32.6960   10.0650 C.3   376  AES376      0.1140
     13  N8        35.5070  -31.4730   10.3210 N.3   376  AES376     -0.1310
@<TRIPOS>BOND
     1    11    12    1
     2    11    10    1
     3    12    13    1
     4    10     9   ar
     5    10     1   ar
     6     9     8   ar
     7     1     2   ar
     8     8     3   ar
     9     2     3   ar
    10     3     4    1
    11     5     4    1
    12     6     4    2
    13     4     7    2
