@<TRIPOS>MOLECULE
3n34_FNU_A_1.pdb
 23 24 0 0 0
SMALL
GASTEIGER

@<TRIPOS>ATOM
      1  P          6.7090   10.6390   18.9920 P.3   1000  FNU1000     0.5327
      2  N1         7.8100   16.7180   21.6790 N.am  1000  FNU1000    -0.0533
      3  C2         6.8410   16.1140   22.3640 C.1   1000  FNU1000     0.3761
      4  N2         5.9860   16.7320   23.2130 N.2   1000  FNU1000    -0.2243
      5  O2         6.6550   14.8260   22.1600 O.2   1000  FNU1000    -0.1670
      6  N3         8.9050   18.7400   21.2210 N.pl3 1000  FNU1000     0.2145
      7  C4         6.1800   18.0490   23.4150 C.1   1000  FNU1000     0.2535
      8  O4         5.3210   18.6370   24.2460 O.2   1000  FNU1000    -0.2059
      9  C5         7.1540   18.7540   22.7240 C.2   1000  FNU1000     0.3192
     10  C6         7.9520   18.0540   21.8690 C.2   1000  FNU1000     0.4213
     11  C1'        8.6970   15.9870   20.7620 C.3   1000  FNU1000     0.3331
     12  O1P        5.6590   10.7000   17.9010 O.2   1000  FNU1000    -0.2224
     13  C2'        9.4080   14.7610   21.3680 C.3   1000  FNU1000     0.2581
     14  O2'       10.6510   15.1050   21.9930 O.3   1000  FNU1000    -0.2130
     15  F24        7.3310   20.1060   22.9010 F     1000  FNU1000    -0.1825
     16  O2P        6.1120   10.5940   20.3740 O.3   1000  FNU1000    -0.1145
     17  C3'        9.6420   13.9450   20.1100 C.3   1000  FNU1000     0.2185
     18  O3'       10.7120   14.4640   19.3310 O.3   1000  FNU1000    -0.2174
     19  O3P        7.7430    9.5710   18.7090 O.3   1000  FNU1000    -0.1145
     20  C4'        8.3640   14.1740   19.3220 C.3   1000  FNU1000     0.1823
     21  O4'        7.9130   15.4940   19.6730 O.3   1000  FNU1000    -0.3127
     22  C5'        7.3020   13.1530   19.7090 C.3   1000  FNU1000     0.1860
     23  O5'        7.5950   11.9970   18.9360 O.3   1000  FNU1000    -0.2675
@<TRIPOS>BOND
     1    12     1    2
     2    19     1    1
     3    23     1    1
     4    23    22    1
     5     1    16    1
     6    20    21    1
     7    20    22    1
     8    20    17    1
     9    18    17    1
    10    21    11    1
    11    17    13    1
    12    11    13    1
    13    11     2    1
    14     6    10    1
    15    13    14    1
    16     2    10    1
    17     2     3   am
    18    10     9    2
    19     5     3    2
    20     3     4    2
    21     9    15    1
    22     9     7    1
    23     4     7    2
    24     7     8    2
