@<TRIPOS>MOLECULE
3n35_A2G_A_1.pdb
 15 15 0 0 0
SMALL
GASTEIGER

@<TRIPOS>ATOM
      1  O        -38.1420  -30.9680   -4.4990 O.3   401  A2G401     -0.3242
      2  C1       -39.5710  -31.0370   -4.4820 C.3   401  A2G401      0.2917
      3  O1       -40.0240  -31.3780   -5.8100 O.3   401  A2G401     -0.1879
      4  C2       -40.1010  -29.6570   -4.0580 C.3   401  A2G401      0.1871
      5  N2       -41.5460  -29.6860   -4.2150 N.am  401  A2G401     -0.1991
      6  C3       -39.5820  -28.5810   -5.0160 C.3   401  A2G401      0.2095
      7  O3       -39.9420  -27.2920   -4.5340 O.3   401  A2G401     -0.2183
      8  C4       -38.0600  -28.6610   -5.1530 C.3   401  A2G401      0.2136
      9  O4       -37.4800  -28.3160   -3.8900 O.3   401  A2G401     -0.2176
     10  C5       -37.6370  -30.0810   -5.5030 C.3   401  A2G401      0.1835
     11  C6       -36.1230  -30.2210   -5.5580 C.3   401  A2G401      0.2142
     12  O6       -35.8420  -31.0310   -6.6930 O.3   401  A2G401     -0.2176
     13  C7       -42.3660  -29.1980   -3.2660 C.2   401  A2G401      0.2421
     14  O7       -41.9580  -28.7050   -2.2260 O.2   401  A2G401     -0.2733
     15  C8       -43.8370  -29.2930   -3.5500 C.3   401  A2G401      0.0964
@<TRIPOS>BOND
     1    12    11    1
     2     3     2    1
     3    11    10    1
     4    10     8    1
     5    10     1    1
     6     8     6    1
     7     8     9    1
     8     6     7    1
     9     6     4    1
    10     1     2    1
    11     2     4    1
    12     5     4    1
    13     5    13   am
    14    15    13    1
    15    13    14    2
