@<TRIPOS>MOLECULE
3n36_GLA_A_1.pdb
 12 12 0 0 0
SMALL
GASTEIGER

@<TRIPOS>ATOM
      1  C1       -39.2790  -31.2630   -4.6540 C.3   401  GLA401      0.3024
      2  C2       -39.9960  -30.0320   -4.1110 C.3   401  GLA401      0.2434
      3  C3       -39.5040  -28.7650   -4.8000 C.3   401  GLA401      0.2199
      4  C4       -37.9810  -28.7040   -4.8090 C.3   401  GLA401      0.2144
      5  C5       -37.3850  -30.0130   -5.3110 C.3   401  GLA401      0.1836
      6  C6       -35.8630  -29.9800   -5.2490 C.3   401  GLA401      0.2142
      7  O1       -39.6040  -31.4320   -6.0380 O.3   401  GLA401     -0.1869
      8  O2       -41.4060  -30.1720   -4.3180 O.3   401  GLA401     -0.2148
      9  O3       -40.0240  -27.6180   -4.1170 O.3   401  GLA401     -0.2174
     10  O4       -37.5060  -28.4400   -3.4840 O.3   401  GLA401     -0.2176
     11  O5       -37.8700  -31.0920   -4.5140 O.3   401  GLA401     -0.3236
     12  O6       -35.3290  -31.0490   -6.0370 O.3   401  GLA401     -0.2176
@<TRIPOS>BOND
     1     7     1    1
     2    12     6    1
     3     5     6    1
     4     5     4    1
     5     5    11    1
     6     4     3    1
     7     4    10    1
     8     3     9    1
     9     3     2    1
    10     1    11    1
    11     1     2    1
    12     8     2    1
