@<TRIPOS>MOLECULE
3n39_FMN_C_1.pdb
 31 33 0 0 0
SMALL
GASTEIGER

@<TRIPOS>ATOM
      1  N1       -16.6860  -19.2210   20.8700 N.2   134  FMN134     -0.2890
      2  C2       -17.7110  -18.4480   20.3570 C.1   134  FMN134      0.3669
      3  O2       -17.4570  -17.4720   19.6530 O.2   134  FMN134     -0.1744
      4  N3       -19.0270  -18.7690   20.6300 N.2   134  FMN134     -0.2300
      5  C4       -19.3330  -19.8630   21.4180 C.1   134  FMN134      0.2513
      6  O4       -20.5120  -20.1370   21.6530 O.2   134  FMN134     -0.2057
      7  C4A      -18.3030  -20.6440   21.9390 C.2   134  FMN134      0.2700
      8  N5       -18.5980  -21.7360   22.7280 N.2   134  FMN134     -0.3878
      9  C5A      -17.5840  -22.5170   23.2470 C.2   134  FMN134      0.1320
     10  C6       -17.9060  -23.6170   24.0430 C.2   134  FMN134      0.0250
     11  C7       -16.8980  -24.4170   24.5770 C.2   134  FMN134     -0.0238
     12  C7M      -17.2720  -25.5970   25.4290 C.3   134  FMN134      0.0308
     13  C8       -15.5600  -24.1070   24.3110 C.2   134  FMN134     -0.0280
     14  C8M      -14.4410  -24.9380   24.8650 C.3   134  FMN134      0.0304
     15  C9       -15.2430  -23.0060   23.5170 C.2   134  FMN134     -0.0041
     16  C9A      -16.2480  -22.1990   22.9780 C.3   134  FMN134      0.1497
     17  N10      -15.9430  -21.0930   22.1830 N.pl3 134  FMN134     -0.2691
     18  C10      -16.9710  -20.3190   21.6630 C.2   134  FMN134      0.2416
     19  C1'      -14.5170  -20.7200   21.8690 C.3   134  FMN134      0.1294
     20  C2'      -13.8950  -19.9140   23.0140 C.3   134  FMN134      0.2044
     21  O2'      -14.6380  -18.7340   23.2570 O.3   134  FMN134     -0.2185
     22  C3'      -12.4290  -19.5860   22.7160 C.3   134  FMN134      0.2164
     23  O3'      -11.6530  -20.7700   22.7310 O.3   134  FMN134     -0.2175
     24  C4'      -11.8330  -18.5480   23.6740 C.3   134  FMN134      0.2147
     25  O4'      -10.6920  -17.9920   23.0600 O.3   134  FMN134     -0.2176
     26  C5'      -11.4570  -19.1180   25.0420 C.3   134  FMN134      0.1892
     27  O5'      -10.8100  -18.1320   25.8160 O.3   134  FMN134     -0.2674
     28  P        -10.1730  -18.4750   27.2610 P.3   134  FMN134      0.5327
     29  O1P       -9.0330  -19.4490   27.0910 O.2   134  FMN134     -0.2224
     30  O2P      -11.2210  -19.0770   28.1640 O.3   134  FMN134     -0.1145
     31  O3P       -9.6620  -17.2010   27.8860 O.3   134  FMN134     -0.1145
@<TRIPOS>BOND
     1     3     2    2
     2     2     4    2
     3     2     1    2
     4     4     5    2
     5     1    18    2
     6     5     6    2
     7     5     7    1
     8    18     7    1
     9    18    17    1
    10    19    17    1
    11    19    20    1
    12     7     8    2
    13    17    16    1
    14    22    23    1
    15    22    20    1
    16    22    24    1
    17     8     9    2
    18    16     9    1
    19    16    15    1
    20    20    21    1
    21    25    24    1
    22     9    10    1
    23    15    13    2
    24    24    26    1
    25    10    11    2
    26    13    11    1
    27    13    14    1
    28    11    12    1
    29    26    27    1
    30    27    28    1
    31    29    28    2
    32    28    31    1
    33    28    30    1
