@<TRIPOS>MOLECULE
3n3a_FMN_C_1.pdb
 31 33 0 0 0
SMALL
GASTEIGER

@<TRIPOS>ATOM
      1  N1        14.9600   19.3190   21.2720 N.2   134  FMN134     -0.2890
      2  C2        15.9300   18.5350   20.6950 C.1   134  FMN134      0.3669
      3  O2        15.6070   17.6010   19.9630 O.2   134  FMN134     -0.1744
      4  N3        17.2610   18.8100   20.9490 N.2   134  FMN134     -0.2300
      5  C4        17.6210   19.8670   21.7630 C.1   134  FMN134      0.2513
      6  O4        18.8150   20.0800   21.9640 O.2   134  FMN134     -0.2057
      7  C4A       16.6360   20.6640   22.3570 C.2   134  FMN134      0.2700
      8  N5        16.9590   21.7270   23.1900 N.2   134  FMN134     -0.3878
      9  C5A       15.9540   22.5060   23.7560 C.2   134  FMN134      0.1320
     10  C6        16.2770   23.5830   24.5910 C.2   134  FMN134      0.0250
     11  C7        15.2600   24.3570   25.1660 C.2   134  FMN134     -0.0238
     12  C7M       15.6000   25.5200   26.0620 C.3   134  FMN134      0.0308
     13  C8        13.9210   24.0580   24.8970 C.2   134  FMN134     -0.0280
     14  C8M       12.8060   24.8710   25.4930 C.3   134  FMN134      0.0304
     15  C9        13.6050   22.9860   24.0650 C.2   134  FMN134     -0.0041
     16  C9A       14.6090   22.2020   23.4950 C.3   134  FMN134      0.1497
     17  N10       14.2860   21.1240   22.6690 N.pl3 134  FMN134     -0.2691
     18  C10       15.2940   20.3710   22.0980 C.2   134  FMN134      0.2416
     19  C1'       12.8620   20.7610   22.3380 C.3   134  FMN134      0.1294
     20  C2'       12.1760   19.9680   23.4520 C.3   134  FMN134      0.2044
     21  O2'       12.8970   18.7940   23.7860 O.3   134  FMN134     -0.2185
     22  C3'       10.7550   19.5970   23.0110 C.3   134  FMN134      0.2164
     23  O3'       10.0080   20.7820   22.8410 O.3   134  FMN134     -0.2175
     24  C4'       10.0350   18.6700   23.9920 C.3   134  FMN134      0.2147
     25  O4'        8.7870   18.3080   23.4490 O.3   134  FMN134     -0.2176
     26  C5'        9.7790   19.2940   25.3550 C.3   134  FMN134      0.1892
     27  O5'        9.1650   18.3110   26.1520 O.3   134  FMN134     -0.2674
     28  P          8.4120   18.6460   27.5310 P.3   134  FMN134      0.5327
     29  O1P        7.2970   19.6250   27.2540 O.2   134  FMN134     -0.2224
     30  O2P        9.3600   19.2120   28.5440 O.3   134  FMN134     -0.1145
     31  O3P        7.8470   17.3430   28.0330 O.3   134  FMN134     -0.1145
@<TRIPOS>BOND
     1     3     2    2
     2     2     4    2
     3     2     1    2
     4     4     5    2
     5     1    18    2
     6     5     6    2
     7     5     7    1
     8    18     7    1
     9    18    17    1
    10    19    17    1
    11    19    20    1
    12     7     8    2
    13    17    16    1
    14    23    22    1
    15    22    20    1
    16    22    24    1
    17     8     9    2
    18    25    24    1
    19    20    21    1
    20    16     9    1
    21    16    15    1
    22     9    10    1
    23    24    26    1
    24    15    13    2
    25    10    11    2
    26    13    11    1
    27    13    14    1
    28    11    12    1
    29    26    27    1
    30    27    28    1
    31    29    28    2
    32    28    31    1
    33    28    30    1
