@<TRIPOS>MOLECULE
3n3b_FMN_C_1.pdb
 31 33 0 0 0
SMALL
GASTEIGER

@<TRIPOS>ATOM
      1  N1       -15.5400  -19.3360   21.2100 N.2   134  FMN134     -0.2887
      2  C2       -16.5420  -18.5560   20.6630 C.1   134  FMN134      0.3669
      3  O2       -16.2570  -17.6160   19.9250 O.2   134  FMN134     -0.1744
      4  N3       -17.8670  -18.8290   20.9450 N.2   134  FMN134     -0.2300
      5  C4       -18.1980  -19.8840   21.7750 C.1   134  FMN134      0.2513
      6  O4       -19.3810  -20.1190   22.0190 O.2   134  FMN134     -0.2057
      7  C4A      -17.1910  -20.6730   22.3280 C.2   134  FMN134      0.2703
      8  N5       -17.5160  -21.7270   23.1570 N.2   134  FMN134     -0.3882
      9  C5A      -16.5230  -22.5120   23.7070 C.2   134  FMN134      0.1277
     10  C6       -16.8820  -23.5690   24.5390 C.3   134  FMN134      0.0820
     11  C7       -15.9040  -24.3780   25.1100 C.2   134  FMN134     -0.0408
     12  C7M      -16.3320  -25.5090   26.0030 C.3   134  FMN134      0.0265
     13  C8       -14.5550  -24.1240   24.8400 C.2   134  FMN134     -0.0280
     14  C8M      -13.4710  -24.9760   25.4360 C.3   134  FMN134      0.0304
     15  C9       -14.1980  -23.0640   24.0040 C.2   134  FMN134      0.0123
     16  C9A      -15.1770  -22.2470   23.4300 C.2   134  FMN134      0.0793
     17  N10      -14.8430  -21.1790   22.5960 N.pl3 134  FMN134     -0.2545
     18  C10      -15.8510  -20.3980   22.0430 C.2   134  FMN134      0.2449
     19  C1'      -13.4080  -20.8570   22.2650 C.3   134  FMN134      0.1336
     20  C2'      -12.7400  -19.9920   23.3370 C.3   134  FMN134      0.2048
     21  O2'      -13.5220  -18.8460   23.6010 O.3   134  FMN134     -0.2185
     22  C3'      -11.3280  -19.5830   22.9060 C.3   134  FMN134      0.2165
     23  O3'      -10.5110  -20.7280   22.7710 O.3   134  FMN134     -0.2175
     24  C4'      -10.6710  -18.5790   23.8620 C.3   134  FMN134      0.2147
     25  O4'       -9.4720  -18.1080   23.2920 O.3   134  FMN134     -0.2176
     26  C5'      -10.3690  -19.1490   25.2450 C.3   134  FMN134      0.1892
     27  O5'       -9.6930  -18.1740   26.0070 O.3   134  FMN134     -0.2674
     28  P         -8.9340  -18.5780   27.3680 P.3   134  FMN134      0.5327
     29  O1P       -7.9650  -19.6990   27.0800 O.2   134  FMN134     -0.2224
     30  O2P       -9.9520  -19.0220   28.3870 O.3   134  FMN134     -0.1145
     31  O3P       -8.1710  -17.3920   27.9000 O.3   134  FMN134     -0.1145
@<TRIPOS>BOND
     1     3     2    2
     2     2     4    2
     3     2     1    2
     4     4     5    2
     5     1    18    2
     6     5     6    2
     7     5     7    1
     8    18     7    1
     9    18    17    1
    10    19    17    1
    11    19    20    1
    12     7     8    2
    13    17    16    1
    14    23    22    1
    15    22    20    1
    16    22    24    1
    17     8     9    2
    18    25    24    1
    19    20    21    1
    20    16     9    1
    21    16    15    2
    22     9    10    1
    23    24    26    1
    24    15    13    1
    25    10    11    1
    26    13    11    2
    27    13    14    1
    28    11    12    1
    29    26    27    1
    30    27    28    1
    31    29    28    2
    32    28    31    1
    33    28    30    1
