@<TRIPOS>MOLECULE
3n3g_935_A_1.pdb
 22 23 0 0 0
SMALL
GASTEIGER

@<TRIPOS>ATOM
      1  N1        14.0170    4.9690   22.2760 N.2   220  935220     -0.4043
      2  C2        13.4650    6.0520   22.8690 C.2   220  935220      0.1133
      3  C3        13.0390    5.9330   24.1980 C.3   220  935220      0.0850
      4  C4        13.1810    4.7200   24.8740 C.2   220  935220     -0.0160
      5  C5        13.7520    3.6300   24.2280 C.2   220  935220      0.0296
      6  C6        14.1520    3.7750   22.9060 C.2   220  935220      0.1516
      7  C7        13.3520    7.3370   22.0970 C.ar  220  935220      0.0259
      8  C8        14.2460    7.5950   21.0510 C.ar  220  935220      0.0091
      9  C9        14.1730    8.7860   20.3150 C.ar  220  935220      0.1053
     10  C10       13.2050    9.7430   20.6370 C.ar  220  935220      0.1424
     11  C11       12.3130    9.4870   21.6850 C.ar  220  935220      0.0369
     12  C12       12.3870    8.2960   22.4110 C.ar  220  935220      0.0053
     13  O13       13.1330   10.9170   19.9080 O.3   220  935220     -0.4755
     14  C14       12.5630   12.1420   20.3780 C.3   220  935220      0.2054
     15  C15       13.0450   13.2720   19.4740 C.3   220  935220      0.0473
     16  C16       12.4010   14.6060   19.8300 C.3   220  935220      0.0040
     17  C18       14.8030    2.6790   22.1490 C.2   220  935220      0.1540
     18  N19       15.2270    1.6270   22.6890 N.2   220  935220     -0.1436
     19  C20       15.1470    9.0350   19.1920 C.3   220  935220      0.4214
     20  F21       15.7620   10.1860   19.3850 F     220  935220     -0.1657
     21  F22       14.5620    9.0690   18.0110 F     220  935220     -0.1657
     22  F23       16.0250    8.0570   19.1660 F     220  935220     -0.1657
@<TRIPOS>BOND
     1    21    19    1
     2    22    19    1
     3    19    20    1
     4    19     9    1
     5    15    16    1
     6    15    14    1
     7    13    14    1
     8    13    10    1
     9     9    10   ar
    10     9     8   ar
    11    10    11   ar
    12     8     7   ar
    13    11    12   ar
    14     7    12   ar
    15     7     2    1
    16    17    18    2
    17    17     6    1
    18     1     2    2
    19     1     6    2
    20     2     3    1
    21     6     5    1
    22     3     4    1
    23     5     4    2
