@<TRIPOS>MOLECULE
3n3g_93N_A_1.pdb
 29 31 0 0 0
SMALL
GASTEIGER

@<TRIPOS>ATOM
      1  N1        13.8640   -7.1990   19.2400 N.2   221  93N221     -0.3956
      2  C2        12.5930   -7.2640   18.7550 C.2   221  93N221      0.1142
      3  C3        11.6090   -6.3900   19.2190 C.3   221  93N221      0.0851
      4  C4        11.9430   -5.4270   20.1680 C.2   221  93N221     -0.0153
      5  C5        13.2450   -5.3480   20.6530 C.2   221  93N221      0.0386
      6  C6        14.1710   -6.2530   20.1620 C.2   221  93N221      0.1981
      7  C7        12.3700   -8.3430   17.7690 C.ar  221  93N221      0.0259
      8  C8        11.0940   -8.8740   17.5040 C.ar  221  93N221      0.0091
      9  C9        10.8970   -9.9270   16.5680 C.ar  221  93N221      0.1053
     10  C10       12.0200  -10.4760   15.9010 C.ar  221  93N221      0.1424
     11  C11       13.2860   -9.9520   16.1630 C.ar  221  93N221      0.0369
     12  C12       13.4550   -8.9170   17.0830 C.ar  221  93N221      0.0053
     13  O13       11.8140  -11.4920   14.9990 O.3   221  93N221     -0.4755
     14  C14       12.5470  -12.7070   15.1630 C.3   221  93N221      0.2068
     15  C15       12.6280  -13.5050   13.8570 C.3   221  93N221      0.0646
     16  C16       11.3880  -14.3550   13.6390 C.3   221  93N221      0.0760
     17  N17       10.1150  -13.5530   13.5180 N.3   221  93N221     -0.2702
     18  C18       15.5390   -6.2530   20.5720 C.1   221  93N221      0.1328
     19  N19       16.6710   -6.3080   20.8050 N.1   221  93N221     -0.1882
     20  C20        9.4860  -10.4410   16.3460 C.3   221  93N221      0.4214
     21  F21        9.0570  -10.5110   15.0610 F     221  93N221     -0.1657
     22  F22        8.5270   -9.7050   16.9540 F     221  93N221     -0.1657
     23  F23        9.2970  -11.6840   16.8350 F     221  93N221     -0.1657
     24  C24        7.6240  -13.5260   13.3980 C.3   221  93N221      0.0897
     25  N25        7.7210  -12.6770   12.1360 N.3   221  93N221     -0.2691
     26  C26        8.8790  -11.7250   12.3510 C.3   221  93N221      0.0897
     27  C27       10.1760  -12.5410   12.3890 C.3   221  93N221      0.0897
     28  C28        8.8730  -14.4160   13.4870 C.3   221  93N221      0.0897
     29  C29        6.4260  -11.9730   11.7730 C.3   221  93N221      0.0897
@<TRIPOS>BOND
     1    29    25    1
     2    25    26    1
     3    25    24    1
     4    26    27    1
     5    27    17    1
     6    24    28    1
     7    28    17    1
     8    17    16    1
     9    16    15    1
    10    15    14    1
    11    13    14    1
    12    13    10    1
    13    21    20    1
    14    10    11   ar
    15    10     9   ar
    16    11    12   ar
    17    20     9    1
    18    20    23    1
    19    20    22    1
    20     9     8   ar
    21    12     7   ar
    22     8     7   ar
    23     7     2    1
    24     2     3    1
    25     2     1    2
    26     3     4    1
    27     1     6    2
    28     6    18    1
    29     6     5    1
    30     4     5    2
    31    18    19    3
