@<TRIPOS>MOLECULE
3n3h_CIT_A_1.pdb
 13 12 0 0 0
SMALL
GASTEIGER

@<TRIPOS>ATOM
      1  C1       -38.8220  -32.5350   -5.9170 C.2   323  CIT323      0.3680
      2  O1       -38.7390  -33.1170   -4.8410 O.co2 323  CIT323     -0.2455
      3  O2       -38.7670  -33.2010   -6.9680 O.co2 323  CIT323     -0.2455
      4  C2       -39.0130  -31.0290   -6.0040 C.3   323  CIT323      0.1560
      5  C3       -38.1370  -30.2630   -5.0220 C.3   323  CIT323      0.2402
      6  O7       -38.4420  -30.7950   -3.7340 O.3   323  CIT323     -0.2129
      7  C4       -38.3980  -28.7460   -4.9780 C.3   323  CIT323      0.1560
      8  C5       -39.8410  -28.3920   -4.7130 C.2   323  CIT323      0.3680
      9  O3       -40.7060  -29.2710   -4.5940 O.co2 323  CIT323     -0.2455
     10  O4       -40.2090  -27.2400   -4.6380 O.co2 323  CIT323     -0.2455
     11  C6       -36.6710  -30.5180   -5.3640 C.2   323  CIT323      0.3927
     12  O5       -35.8370  -30.7530   -4.5040 O.co2 323  CIT323     -0.2429
     13  O6       -36.3070  -30.4950   -6.5260 O.co2 323  CIT323     -0.2429
@<TRIPOS>BOND
     1     3     1   ar
     2    13    11   ar
     3     4     1    1
     4     4     5    1
     5     1     2   ar
     6    11     5    1
     7    11    12   ar
     8     5     7    1
     9     5     6    1
    10     7     8    1
    11     8    10   ar
    12     8     9   ar
