@<TRIPOS>MOLECULE
3n3i_ROC_A_1.pdb
 49 53 0 0 0
SMALL
GASTEIGER

@<TRIPOS>ATOM
      1  C         -6.0320   17.9530   22.5470 C.2   201  ROC201      0.2949
      2  O         -6.7510   18.8210   22.0770 O.2   201  ROC201     -0.2655
      3  N1        -3.7460   17.0680   22.8970 N.2   201  ROC201     -0.4012
      4  C2        -4.5380   18.1110   22.5430 C.2   201  ROC201      0.1857
      5  C3        -3.9680   19.3450   22.2350 C.2   201  ROC201      0.0369
      6  C4        -2.5830   19.4980   22.2540 C.2   201  ROC201      0.0050
      7  C5        -0.3960   18.5450   22.6320 C.2   201  ROC201      0.0019
      8  C6         0.3950   17.4560   22.9820 C.2   201  ROC201     -0.0041
      9  C7        -0.2050   16.2400   23.2990 C.2   201  ROC201     -0.0187
     10  C8        -1.5930   16.1040   23.2700 C.3   201  ROC201      0.0849
     11  C4A       -1.7860   18.4120   22.6000 C.2   201  ROC201      0.0258
     12  C8A       -2.3920   17.1940   22.9220 C.2   201  ROC201      0.1135
     13  N         -6.5200   16.8540   23.1110 N.am  201  ROC201     -0.1913
     14  CA        -7.9450   16.5830   23.2540 C.3   201  ROC201      0.1823
     15  C1        -8.2030   16.1200   24.6670 C.2   201  ROC201      0.2618
     16  O1        -8.1780   14.9260   24.9270 O.2   201  ROC201     -0.2715
     17  CB        -8.3230   15.5330   22.2170 C.3   201  ROC201      0.1195
     18  CG        -8.4560   16.2680   20.9010 C.2   201  ROC201      0.2630
     19  OD1       -8.2020   15.7240   19.8350 O.2   201  ROC201     -0.2716
     20  ND2       -8.8500   17.5370   20.9830 N.am  201  ROC201     -0.0877
     21  C9       -10.1090   17.1630   27.3820 C.3   201  ROC201      0.1879
     22  O2       -10.2820   18.5820   27.3770 O.3   201  ROC201     -0.2198
     23  CA1       -8.6720   16.8110   27.0060 C.3   201  ROC201      0.1313
     24  N2        -8.4380   17.0790   25.5820 N.am  201  ROC201     -0.2027
     25  CB1       -7.7400   17.7790   27.7240 C.3   201  ROC201      0.0506
     26  CG1       -6.3110   17.6050   27.2610 C.ar  201  ROC201     -0.0204
     27  CD1       -5.6230   16.4310   27.5380 C.ar  201  ROC201     -0.0042
     28  CD2       -5.6790   18.6270   26.5660 C.ar  201  ROC201     -0.0042
     29  CE1       -4.3060   16.2730   27.1250 C.ar  201  ROC201     -0.0003
     30  CE2       -4.3650   18.4710   26.1520 C.ar  201  ROC201     -0.0003
     31  CZ        -3.6790   17.2950   26.4310 C.ar  201  ROC201     -0.0000
     32  N11      -10.9020   15.2960   28.7220 N.3   201  ROC201     -0.2643
     33  CM       -10.4390   16.6810   28.7880 C.3   201  ROC201      0.1075
     34  C21      -11.0790   14.7390   30.0750 C.3   201  ROC201      0.1365
     35  CC        -9.8630   14.8610   30.9400 C.2   201  ROC201      0.2558
     36  O3        -8.7440   14.7900   30.4650 O.2   201  ROC201     -0.2719
     37  C31      -11.4410   13.2620   29.9600 C.3   201  ROC201      0.0254
     38  C3A      -12.8090   13.1790   29.3060 C.3   201  ROC201      0.0032
     39  C41      -13.2730   11.7270   29.2210 C.3   201  ROC201      0.0001
     40  C51      -12.5000   10.9370   28.1740 C.3   201  ROC201      0.0000
     41  C61      -12.5870   11.6320   26.8260 C.3   201  ROC201      0.0000
     42  C71      -11.9740   13.0220   26.9400 C.3   201  ROC201      0.0014
     43  C7A      -12.7660   13.8570   27.9400 C.3   201  ROC201      0.0161
     44  C81      -12.1970   15.2750   28.0200 C.3   201  ROC201      0.0725
     45  N3       -10.1370   15.0280   32.2350 N.am  201  ROC201     -0.2077
     46  CD        -9.1180   15.1650   33.2590 C.3   201  ROC201      0.0788
     47  C11       -8.2180   13.9330   33.2370 C.3   201  ROC201      0.0217
     48  C22       -9.7650   15.2870   34.6390 C.3   201  ROC201      0.0217
     49  C32       -8.2640   16.3910   32.9710 C.3   201  ROC201      0.0217
@<TRIPOS>BOND
     1    19    18    2
     2    18    20   am
     3    18    17    1
     4     2     1    2
     5    17    14    1
     6     5     6    2
     7     5     4    1
     8     6    11    1
     9     4     1    1
    10     4     3    2
    11     1    13   am
    12    11     7    2
    13    11    12    1
    14     7     8    1
    15     3    12    2
    16    12    10    1
    17     8     9    2
    18    13    14    1
    19    14    15    1
    20    10     9    1
    21    15    16    2
    22    15    24   am
    23    24    23    1
    24    30    31   ar
    25    30    28   ar
    26    31    29   ar
    27    28    26   ar
    28    41    42    1
    29    41    40    1
    30    42    43    1
    31    23    21    1
    32    23    25    1
    33    29    27   ar
    34    26    27   ar
    35    26    25    1
    36    22    21    1
    37    21    33    1
    38    43    44    1
    39    43    38    1
    40    44    32    1
    41    40    39    1
    42    32    33    1
    43    32    34    1
    44    39    38    1
    45    38    37    1
    46    37    34    1
    47    34    35    1
    48    36    35    2
    49    35    45   am
    50    45    46    1
    51    49    46    1
    52    47    46    1
    53    46    48    1
