@<TRIPOS>MOLECULE
3n3j_WWV_A_1.pdb
 41 42 0 0 0
SMALL
GASTEIGER

@<TRIPOS>ATOM
      1  C1        -5.0880    2.1690   15.6700 C.ar  263  WWV263      0.1067
      2  N1        -5.4980   -0.4460   16.0270 N.3   263  WWV263     -0.1053
      3  O1        -7.3660    1.2150   16.5180 O.2   263  WWV263     -0.1519
      4  S1        -5.8960    0.9650   16.6410 S.O2  263  WWV263      0.0723
      5  C2        -5.7990    3.2670   15.1410 C.ar  263  WWV263     -0.0336
      6  O2        -5.4030    1.0890   18.0710 O.2   263  WWV263     -0.1519
      7  C3        -5.1360    4.2520   14.3890 C.ar  263  WWV263     -0.0386
      8  C4        -3.7490    4.1260   14.2030 C.ar  263  WWV263      0.0349
      9  C5        -3.0540    3.0380   14.7230 C.ar  263  WWV263     -0.0386
     10  C6        -3.7050    2.0600   15.4760 C.ar  263  WWV263     -0.0336
     11  N7        -2.9170    5.0450   13.4940 N.am  263  WWV263     -0.2692
     12  C8        -3.2770    6.2130   12.9800 C.2   263  WWV263      0.3081
     13  O8        -4.4530    6.5730   12.9330 O.2   263  WWV263     -0.2522
     14  N9        -2.2520    6.9240   12.4670 N.am  263  WWV263     -0.2689
     15  C10       -2.4220    8.2090   11.9720 C.ar  263  WWV263      0.0382
     16  C11       -1.8080    9.2710   12.6480 C.ar  263  WWV263     -0.0236
     17  C12       -1.9760   10.5720   12.1720 C.ar  263  WWV263     -0.0566
     18  C13       -2.7370   10.7960   11.0150 C.ar  263  WWV263     -0.0614
     19  C14       -3.3530    9.7290   10.3500 C.ar  263  WWV263     -0.0600
     20  C15       -3.2000    8.4250   10.8280 C.ar  263  WWV263     -0.0402
     21  C16       -0.9670    9.0060   13.9320 C.3   263  WWV263     -0.0198
     22  C17        0.0480   10.1280   14.2090 C.3   263  WWV263     -0.0586
     23  C18       -1.8220    8.7470   15.1880 C.3   263  WWV263     -0.0586
     24  H2        -6.7430    3.3380   15.2840 H     263  WWV263      0.0638
     25  H12       -1.5690   11.2810   12.6070 H     263  WWV263      0.0621
     26  H3        -5.6420    5.0360   14.0090 H     263  WWV263      0.0637
     27  H13       -2.8560   11.7310   10.6720 H     263  WWV263      0.0618
     28  H14       -3.9320    9.9070    9.4810 H     263  WWV263      0.0618
     29  H5        -2.0730    2.9680   14.5800 H     263  WWV263      0.0637
     30  H15       -3.6030    7.7020   10.3810 H     263  WWV263      0.0636
     31  H6        -3.2180    1.3140   15.8370 H     263  WWV263      0.0638
     32  H16       -0.4760    8.2170   13.7770 H     263  WWV263      0.0344
     33  HN7       -2.0070    4.8510   13.4780 H     263  WWV263      0.1564
     34  H17        0.7370    9.8050   14.8340 H     263  WWV263      0.0235
     35 H17A        0.4790   10.4000   13.3450 H     263  WWV263      0.0235
     36 H17B       -0.4280   10.9230   14.6150 H     263  WWV263      0.0235
     37  H18       -2.7480    8.5850   14.9250 H     263  WWV263      0.0235
     38 H18A       -1.4760    7.9700   15.6540 H     263  WWV263      0.0235
     39 H18B       -1.7810    9.5730   15.8180 H     263  WWV263      0.0235
     40  HN9       -1.3900    6.5830   12.5410 H     263  WWV263      0.1564
     41 HN1A       -4.8180   -0.7750   16.4670 H     263  WWV263      0.1694
@<TRIPOS>BOND
     1    28    19    1
     2    19    20   ar
     3    19    18   ar
     4    30    20    1
     5    27    18    1
     6    20    15   ar
     7    18    17   ar
     8    15    14    1
     9    15    16   ar
    10    17    25    1
    11    17    16   ar
    12    14    40    1
    13    14    12   am
    14    16    21    1
    15    13    12    2
    16    12    11   am
    17    35    22    1
    18    33    11    1
    19    11     8    1
    20    32    21    1
    21    21    22    1
    22    21    23    1
    23    26     7    1
    24     8     7   ar
    25     8     9   ar
    26    22    36    1
    27    22    34    1
    28     7     5   ar
    29    29     9    1
    30     9    10   ar
    31    37    23    1
    32     5    24    1
    33     5     1   ar
    34    23    38    1
    35    23    39    1
    36    10     1   ar
    37    10    31    1
    38     1     4    1
    39     2    41    1
    40     2     4    1
    41     3     4    2
    42     4     6    2
