@<TRIPOS>MOLECULE
3n3l_MS0_F_1.pdb
 15 16 0 0 0
SMALL
GASTEIGER

@<TRIPOS>ATOM
      1  O1         2.1000   74.9450   27.2660 O.2     1  MS01       -0.4506
      2  C2         2.5930   76.2700   27.2440 C.ar    1  MS01        0.1482
      3  C3         3.9440   76.4060   27.1270 C.ar    1  MS01        0.0344
      4  C4         4.3980   74.9920   27.0330 C.ar    1  MS01        0.0297
      5  C5         3.2800   74.2470   27.1070 C.ar    1  MS01        0.1758
      6  C7         5.8100   74.5190   26.8740 C.3     1  MS01        0.1436
      7  C10        6.2940   74.9010   25.4900 C.2     1  MS01        0.3693
      8  O11        7.2410   75.6630   25.3390 O.co2   1  MS01       -0.2453
      9  O12        5.6260   74.3540   24.4240 O.co2   1  MS01       -0.2453
     10  C14        4.5900   77.6450   27.1140 C.ar    1  MS01        0.0059
     11  C16        3.7780   78.8000   27.2320 C.ar    1  MS01        0.0371
     12  C18        2.3670   78.6760   27.3300 C.ar    1  MS01        0.1418
     13  C19        1.7840   77.3950   27.3440 C.ar    1  MS01        0.0743
     14  O21        1.5230   79.8020   27.3870 O.3     1  MS01       -0.4713
     15  C22        2.1180   81.0930   27.4170 C.3     1  MS01        0.2525
@<TRIPOS>BOND
     1     9     7   ar
     2     8     7   ar
     3     7     6    1
     4     6     4    1
     5     4     5   ar
     6     4     3   ar
     7     5     1   ar
     8    10     3   ar
     9    10    11   ar
    10     3     2   ar
    11    11    12   ar
    12     2     1   ar
    13     2    13   ar
    14    12    13   ar
    15    12    14    1
    16    14    15    1
