@<TRIPOS>MOLECULE
3n3m_NUP_A_1.pdb
 22 23 0 0 0
SMALL
GASTEIGER

@<TRIPOS>ATOM
      1  O4         5.2340   18.4470   24.3030 O.2   2000  NUP2000    -0.2127
      2  C4         6.0920   17.9020   23.4660 C.1   2000  NUP2000     0.2069
      3  N2         5.9830   16.5770   23.2580 N.2   2000  NUP2000    -0.2304
      4  C2         6.8210   15.9730   22.3920 C.1   2000  NUP2000     0.3755
      5  O2         6.6810   14.7630   22.2080 O.2   2000  NUP2000    -0.1670
      6  C5         7.0460   18.6840   22.8320 C.3   2000  NUP2000     0.2581
      7  C6         7.8670   18.0320   21.9680 C.2   2000  NUP2000     0.3875
      8  N3         8.8040   18.7030   21.3050 N.2   2000  NUP2000     0.1905
      9  N1         7.7800   16.6370   21.7510 N.am  2000  NUP2000    -0.0568
     10  C1'        8.6810   15.9670   20.7990 C.3   2000  NUP2000     0.3329
     11  O4'        7.9190   15.4510   19.6970 O.3   2000  NUP2000    -0.3127
     12  C2'        9.4150   14.7550   21.3880 C.3   2000  NUP2000     0.2581
     13  O2'       10.6680   15.0900   21.9790 O.3   2000  NUP2000    -0.2130
     14  C3'        9.6620   13.9530   20.1340 C.3   2000  NUP2000     0.2185
     15  O3'       10.7240   14.5190   19.3620 O.3   2000  NUP2000    -0.2174
     16  C4'        8.3690   14.1390   19.3570 C.3   2000  NUP2000     0.1823
     17  C5'        7.3250   13.1080   19.7500 C.3   2000  NUP2000     0.1860
     18  O5'        7.6000   11.9970   18.9270 O.3   2000  NUP2000    -0.2675
     19  P          6.7890   10.5990   18.9910 P.3   2000  NUP2000     0.5327
     20  O1P        5.7470   10.6740   17.9020 O.2   2000  NUP2000    -0.2224
     21  O2P        6.1600   10.5480   20.3580 O.3   2000  NUP2000    -0.1145
     22  O3P        7.8640    9.5670   18.6790 O.3   2000  NUP2000    -0.1145
@<TRIPOS>BOND
     1    20    19    2
     2    22    19    1
     3    18    19    1
     4    18    17    1
     5    19    21    1
     6    16    11    1
     7    16    17    1
     8    16    14    1
     9    15    14    1
    10    11    10    1
    11    14    12    1
    12    10    12    1
    13    10     9    1
    14     8     7    2
    15    12    13    1
    16     9     7    1
    17     9     4   am
    18     7     6    1
    19     5     4    2
    20     4     3    2
    21     6     2    1
    22     3     2    2
    23     2     1    2
