@<TRIPOS>MOLECULE
3n3n_HEM_A_1.pdb
 43 50 0 0 0
SMALL
GASTEIGER

@<TRIPOS>ATOM
      1  CHA      -10.2180  -60.5910  -39.6810 C.2   1500  HEM1500     0.0000
      2  CHB       -9.6350  -64.4230  -36.8450 C.2   1500  HEM1500     0.0000
      3  CHC      -14.4300  -65.2980  -36.8320 C.2   1500  HEM1500     0.0000
      4  CHD      -15.0200  -61.3590  -39.5610 C.2   1500  HEM1500     0.0000
      5  C1A       -9.6390  -61.4840  -38.8210 C.2   1500  HEM1500     0.0000
      6  C2A       -8.2690  -61.5310  -38.3830 C.2   1500  HEM1500     0.0000
      7  C3A       -8.0840  -62.6150  -37.6440 C.2   1500  HEM1500     0.0000
      8  C4A       -9.3610  -63.2660  -37.5460 C.2   1500  HEM1500     0.0000
      9  CMA       -6.7730  -63.0750  -36.9420 C.3   1500  HEM1500     0.0000
     10  CAA       -7.2230  -60.5210  -38.8120 C.3   1500  HEM1500     0.0000
     11  CBA       -7.2450  -59.2550  -38.0000 C.3   1500  HEM1500     0.0000
     12  CGA       -6.2530  -58.3990  -38.7390 C.2   1500  HEM1500     0.0000
     13  O1A       -5.0450  -58.7630  -38.7500 O.co2 1500  HEM1500     0.0000
     14  O2A       -6.6480  -57.3620  -39.2840 O.co2 1500  HEM1500     0.0000
     15  C1B      -10.8920  -64.9860  -36.6320 C.ar  1500  HEM1500     0.0000
     16  C2B      -11.0960  -66.2450  -35.9500 C.ar  1500  HEM1500     0.0000
     17  C3B      -12.4220  -66.5290  -35.9410 C.ar  1500  HEM1500     0.0000
     18  C4B      -13.0830  -65.4340  -36.6470 C.ar  1500  HEM1500     0.0000
     19  CMB       -9.8880  -67.0220  -35.3390 C.3   1500  HEM1500     0.0000
     20  CAB      -13.1760  -67.7190  -35.2800 C.2   1500  HEM1500     0.0000
     21  CBB      -12.6040  -68.9490  -35.2110 C.2   1500  HEM1500     0.0000
     22  C1C      -15.0670  -64.2420  -37.4750 C.2   1500  HEM1500     0.0000
     23  C2C      -16.4760  -63.9350  -37.4930 C.2   1500  HEM1500     0.0000
     24  C3C      -16.6570  -62.8060  -38.2290 C.2   1500  HEM1500     0.0000
     25  C4C      -15.3450  -62.3780  -38.6850 C.2   1500  HEM1500     0.0000
     26  CMC      -17.5110  -64.7470  -36.7320 C.3   1500  HEM1500     0.0000
     27  CAC      -17.9830  -62.0630  -38.5750 C.2   1500  HEM1500     0.0000
     28  CBC      -19.0140  -62.7710  -39.1170 C.2   1500  HEM1500     0.0000
     29  C1D      -13.8070  -60.8930  -39.9890 C.ar  1500  HEM1500     0.0000
     30  C2D      -13.6110  -59.8900  -40.9990 C.ar  1500  HEM1500     0.0000
     31  C3D      -12.1330  -59.6300  -41.0330 C.ar  1500  HEM1500     0.0000
     32  C4D      -11.5630  -60.5310  -40.0510 C.ar  1500  HEM1500     0.0000
     33  CMD      -14.6430  -59.1730  -41.8970 C.3   1500  HEM1500     0.0000
     34  CAD      -11.4660  -58.6360  -42.0050 C.3   1500  HEM1500     0.0000
     35  CBD      -11.0000  -57.3960  -41.2490 C.3   1500  HEM1500     0.0000
     36  CGD      -10.5660  -56.3430  -42.2290 C.2   1500  HEM1500     0.0000
     37  O1D       -9.8670  -55.3450  -41.8680 O.co2 1500  HEM1500     0.0000
     38  O2D      -10.9090  -56.4890  -43.4160 O.co2 1500  HEM1500     0.0000
     39  NA       -10.2420  -62.5390  -38.2740 N.2   1500  HEM1500     0.0000
     40  NB       -12.1190  -64.5530  -37.1300 N.ar  1500  HEM1500     0.0000
     41  NC       -14.4500  -63.2910  -38.2380 N.2   1500  HEM1500     0.0000
     42  ND       -12.5670  -61.2610  -39.4870 N.ar  1500  HEM1500     0.0000
     43 FE        -12.3510  -62.9480  -38.3680 Fe    1500  HEM1500     0.0000
@<TRIPOS>BOND
     1    38    36   ar
     2    36    37   ar
     3    36    35    1
     4    34    35    1
     5    34    31    1
     6    33    30    1
     7    31    30   ar
     8    31    32   ar
     9    30    29   ar
    10    32     1    2
    11    32    42   ar
    12    29     4    2
    13    29    42   ar
    14     1     5    1
    15     4    25    1
    16    42    43    1
    17    14    12   ar
    18    28    27    2
    19     5     6    1
    20     5    39    2
    21    10     6    1
    22    10    11    1
    23    13    12   ar
    24    12    11    1
    25    25    41    2
    26    25    24    1
    27    27    24    1
    28     6     7    2
    29    43    39    1
    30    43    41    1
    31    43    40    1
    32    39     8    1
    33    41    22    1
    34    24    23    2
    35     7     8    1
    36     7     9    1
    37     8     2    2
    38    23    22    1
    39    23    26    1
    40    22     3    2
    41    40    18   ar
    42    40    15   ar
    43     2    15    1
    44     3    18    1
    45    18    17   ar
    46    15    16   ar
    47    16    17   ar
    48    16    19    1
    49    17    20    1
    50    20    21    2
