@<TRIPOS>MOLECULE
3n3n_NIZ_A_1.pdb
 10 10 0 0 0
SMALL
GASTEIGER

@<TRIPOS>ATOM
      1  C        -23.4390  -56.9490  -15.4550 C.2   749  NIZ749      0.2823
      2  C1       -24.7920  -56.2600  -15.6000 C.ar  749  NIZ749      0.0595
      3  N1       -27.1700  -54.9080  -15.8030 N.ar  749  NIZ749     -0.2423
      4  O1       -23.2780  -57.8140  -14.5670 O.2   749  NIZ749     -0.2669
      5  C2       -24.9940  -55.3260  -16.5960 C.ar  749  NIZ749      0.0253
      6  N2       -22.4160  -56.5020  -16.2350 N.am  749  NIZ749     -0.0886
      7  C3       -26.1840  -54.6540  -16.7000 C.ar  749  NIZ749      0.0990
      8  N3       -21.1850  -57.0030  -16.1770 N.3   749  NIZ749      0.0074
      9  C4       -26.9670  -55.8400  -14.8260 C.ar  749  NIZ749      0.0990
     10  C5       -25.7930  -56.5230  -14.7100 C.ar  749  NIZ749      0.0253
@<TRIPOS>BOND
     1     7     5   ar
     2     7     3   ar
     3     5     2   ar
     4     6     8    1
     5     6     1   am
     6     3     9   ar
     7     2     1    1
     8     2    10   ar
     9     1     4    2
    10     9    10   ar
