@<TRIPOS>MOLECULE
3n3o_HEM_A_1.pdb
 43 50 0 0 0
SMALL
GASTEIGER

@<TRIPOS>ATOM
      1  CHA      -10.4090  -61.4260  -39.4390 C.2   1500  HEM1500     0.0000
      2  CHB       -9.8020  -65.3500  -36.5200 C.2   1500  HEM1500     0.0000
      3  CHC      -14.5920  -66.1570  -36.5280 C.2   1500  HEM1500     0.0000
      4  CHD      -15.2240  -62.2230  -39.3800 C.2   1500  HEM1500     0.0000
      5  C1A       -9.8970  -62.3660  -38.5590 C.2   1500  HEM1500     0.0000
      6  C2A       -8.4900  -62.3910  -38.1620 C.2   1500  HEM1500     0.0000
      7  C3A       -8.3050  -63.4620  -37.3670 C.2   1500  HEM1500     0.0000
      8  C4A       -9.5740  -64.1690  -37.2390 C.2   1500  HEM1500     0.0000
      9  CMA       -6.9890  -63.9550  -36.7240 C.3   1500  HEM1500     0.0000
     10  CAA       -7.4170  -61.3620  -38.6200 C.3   1500  HEM1500     0.0000
     11  CBA       -7.3490  -60.1450  -37.7110 C.3   1500  HEM1500     0.0000
     12  CGA       -6.4080  -59.2560  -38.5080 C.2   1500  HEM1500     0.0000
     13  O1A       -5.1980  -59.6380  -38.5770 O.co2 1500  HEM1500     0.0000
     14  O2A       -6.7950  -58.2220  -39.0790 O.co2 1500  HEM1500     0.0000
     15  C1B      -11.0330  -65.9250  -36.3200 C.ar  1500  HEM1500     0.0000
     16  C2B      -11.2680  -67.1870  -35.6810 C.ar  1500  HEM1500     0.0000
     17  C3B      -12.6180  -67.4530  -35.6880 C.ar  1500  HEM1500     0.0000
     18  C4B      -13.2610  -66.3240  -36.3460 C.ar  1500  HEM1500     0.0000
     19  CMB      -10.0590  -67.9740  -35.0520 C.3   1500  HEM1500     0.0000
     20  CAB      -13.4160  -68.5680  -35.0110 C.2   1500  HEM1500     0.0000
     21  CBB      -12.8400  -69.7850  -34.9290 C.2   1500  HEM1500     0.0000
     22  C1C      -15.1820  -65.0830  -37.2000 C.2   1500  HEM1500     0.0000
     23  C2C      -16.6160  -64.8330  -37.3450 C.2   1500  HEM1500     0.0000
     24  C3C      -16.8090  -63.6850  -38.1030 C.2   1500  HEM1500     0.0000
     25  C4C      -15.4860  -63.2460  -38.4920 C.2   1500  HEM1500     0.0000
     26  CMC      -17.6540  -65.6650  -36.5760 C.3   1500  HEM1500     0.0000
     27  CAC      -18.1290  -62.9870  -38.5130 C.2   1500  HEM1500     0.0000
     28  CBC      -19.2870  -63.7060  -38.7120 C.2   1500  HEM1500     0.0000
     29  C1D      -13.9730  -61.8590  -39.7750 C.ar  1500  HEM1500     0.0000
     30  C2D      -13.7570  -60.8390  -40.8070 C.ar  1500  HEM1500     0.0000
     31  C3D      -12.3130  -60.5720  -40.8190 C.ar  1500  HEM1500     0.0000
     32  C4D      -11.7670  -61.4510  -39.8040 C.ar  1500  HEM1500     0.0000
     33  CMD      -14.7910  -60.1670  -41.7410 C.3   1500  HEM1500     0.0000
     34  CAD      -11.5390  -59.6900  -41.7960 C.3   1500  HEM1500     0.0000
     35  CBD      -11.2460  -58.3240  -41.1100 C.3   1500  HEM1500     0.0000
     36  CGD      -10.6730  -57.3580  -42.1440 C.2   1500  HEM1500     0.0000
     37  O1D      -10.0340  -56.3810  -41.6050 O.co2 1500  HEM1500     0.0000
     38  O2D      -10.9840  -57.4430  -43.3470 O.co2 1500  HEM1500     0.0000
     39  NA       -10.4590  -63.4830  -37.9800 N.2   1500  HEM1500     0.0000
     40  NB       -12.2440  -65.5060  -36.8100 N.ar  1500  HEM1500     0.0000
     41  NC       -14.5350  -64.1570  -37.9560 N.2   1500  HEM1500     0.0000
     42  ND       -12.7640  -62.2240  -39.1840 N.ar  1500  HEM1500     0.0000
     43 FE        -12.4950  -63.9360  -38.1570 Fe    1500  HEM1500     0.0000
@<TRIPOS>BOND
     1    38    36   ar
     2    36    37   ar
     3    36    35    1
     4    34    35    1
     5    34    31    1
     6    33    30    1
     7    31    30   ar
     8    31    32   ar
     9    30    29   ar
    10    32     1    2
    11    32    42   ar
    12    29     4    2
    13    29    42   ar
    14     1     5    1
    15     4    25    1
    16    42    43    1
    17    14    12   ar
    18    28    27    2
    19    10     6    1
    20    10    11    1
    21    13    12   ar
    22     5     6    1
    23     5    39    2
    24    27    24    1
    25    12    11    1
    26    25    24    1
    27    25    41    2
    28     6     7    2
    29    43    39    1
    30    43    41    1
    31    43    40    1
    32    24    23    2
    33    39     8    1
    34    41    22    1
    35     7     8    1
    36     7     9    1
    37    23    22    1
    38    23    26    1
    39     8     2    2
    40    22     3    2
    41    40    18   ar
    42    40    15   ar
    43     3    18    1
    44     2    15    1
    45    18    17   ar
    46    15    16   ar
    47    17    16   ar
    48    17    20    1
    49    16    19    1
    50    20    21    2
