@<TRIPOS>MOLECULE
3n3o_ADP_B_1.pdb
 27 29 0 0 0
SMALL
GASTEIGER

@<TRIPOS>ATOM
      1  PB       -30.8970  -27.6960  -14.5850 P.3   751  ADP751      0.5373
      2  O1B      -30.0240  -27.7480  -15.8380 O.2   751  ADP751     -0.2221
      3  O2B      -30.7990  -28.9160  -13.6950 O.3   751  ADP751     -0.1143
      4  O3B      -30.7950  -26.3750  -13.7790 O.3   751  ADP751     -0.1143
      5  PA       -33.7720  -27.0240  -14.7570 P.3   751  ADP751      0.2231
      6  O1A      -34.8650  -27.8120  -15.5040 O.2   751  ADP751     -0.5169
      7  O2A      -33.7250  -26.9700  -13.2070 O.3   751  ADP751     -0.4370
      8  O3A      -32.3850  -27.7560  -15.2420 O.3   751  ADP751     -0.2261
      9  O5'      -33.9240  -25.4440  -15.2960 O.3   751  ADP751     -0.3111
     10  C5'      -33.5030  -25.0950  -16.6060 C.3   751  ADP751      0.1813
     11  C4'      -33.1380  -23.6540  -16.5540 C.3   751  ADP751      0.1821
     12  O4'      -33.8180  -23.0570  -15.4060 O.3   751  ADP751     -0.3135
     13  C3'      -31.6410  -23.4450  -16.1840 C.3   751  ADP751      0.2184
     14  O3'      -30.7390  -23.6560  -17.2680 O.3   751  ADP751     -0.2174
     15  C2'      -31.5670  -22.0340  -15.5990 C.3   751  ADP751      0.2570
     16  O2'      -31.3530  -20.9790  -16.6420 O.3   751  ADP751     -0.2130
     17  C1'      -32.9880  -22.0110  -14.9150 C.3   751  ADP751      0.3186
     18  N9       -32.8460  -22.1560  -13.4480 N.pl3 751  ADP751     -0.1439
     19  C8       -32.6460  -23.3750  -12.8070 C.3   751  ADP751      0.3377
     20  N7       -32.5480  -23.1870  -11.4570 N.2   751  ADP751     -0.2095
     21  C5       -32.6940  -21.8390  -11.2250 C.2   751  ADP751      0.2526
     22  C6       -32.6250  -21.0680   -9.9850 C.2   751  ADP751      0.4393
     23  N6       -32.3890  -21.8480   -8.8330 N.pl3 751  ADP751      0.2180
     24  N1       -32.7650  -19.7040  -10.1010 N.2   751  ADP751      0.0021
     25  C2       -32.8920  -19.0570  -11.3200 C.3   751  ADP751      0.5254
     26  N3       -32.9420  -19.7730  -12.5320 N.2   751  ADP751     -0.0055
     27  C4       -32.8270  -21.1240  -12.5190 C.2   751  ADP751      0.3518
@<TRIPOS>BOND
     1    14    13    1
     2    16    15    1
     3    10    11    1
     4    10     9    1
     5    11    13    1
     6    11    12    1
     7    13    15    1
     8     2     1    2
     9    15    17    1
    10     6     5    2
    11    12    17    1
    12     9     5    1
    13     8     5    1
    14     8     1    1
    15    17    18    1
    16     5     7    1
    17     1     4    1
    18     1     3    1
    19    18    19    1
    20    18    27    1
    21    19    20    1
    22    26    27    2
    23    26    25    1
    24    27    21    1
    25    20    21    2
    26    25    24    1
    27    21    22    1
    28    24    22    2
    29    22    23    1
