@<TRIPOS>MOLECULE
3n3p_HEM_A_1.pdb
 43 50 0 0 0
SMALL
GASTEIGER

@<TRIPOS>ATOM
      1  CHA      -10.3990  -61.2170  -39.6220 C.2   1500  HEM1500     0.0000
      2  CHB       -9.7360  -65.0720  -36.7940 C.2   1500  HEM1500     0.0000
      3  CHC      -14.5040  -65.9170  -36.6760 C.2   1500  HEM1500     0.0000
      4  CHD      -15.1100  -62.0230  -39.4480 C.2   1500  HEM1500     0.0000
      5  C1A       -9.8300  -62.1230  -38.7690 C.2   1500  HEM1500     0.0000
      6  C2A       -8.4550  -62.1430  -38.3210 C.2   1500  HEM1500     0.0000
      7  C3A       -8.2600  -63.2230  -37.5650 C.2   1500  HEM1500     0.0000
      8  C4A       -9.5210  -63.9030  -37.4780 C.2   1500  HEM1500     0.0000
      9  CMA       -6.9750  -63.6990  -36.8480 C.3   1500  HEM1500     0.0000
     10  CAA       -7.4440  -61.0720  -38.7200 C.3   1500  HEM1500     0.0000
     11  CBA       -7.1950  -59.9270  -37.7650 C.3   1500  HEM1500     0.0000
     12  CGA       -6.2970  -59.0360  -38.6230 C.2   1500  HEM1500     0.0000
     13  O1A       -5.1100  -59.4260  -38.8440 O.co2 1500  HEM1500     0.0000
     14  O2A       -6.7570  -57.9380  -39.1230 O.co2 1500  HEM1500     0.0000
     15  C1B      -10.9700  -65.6510  -36.5510 C.ar  1500  HEM1500     0.0000
     16  C2B      -11.1740  -66.9180  -35.8660 C.ar  1500  HEM1500     0.0000
     17  C3B      -12.5100  -67.1420  -35.7880 C.ar  1500  HEM1500     0.0000
     18  C4B      -13.1470  -66.0730  -36.5140 C.ar  1500  HEM1500     0.0000
     19  CMB       -9.9520  -67.6890  -35.2490 C.3   1500  HEM1500     0.0000
     20  CAB      -13.2930  -68.3320  -35.1360 C.2   1500  HEM1500     0.0000
     21  CBB      -12.7180  -69.5530  -35.1050 C.2   1500  HEM1500     0.0000
     22  C1C      -15.1100  -64.8480  -37.2930 C.2   1500  HEM1500     0.0000
     23  C2C      -16.5410  -64.5730  -37.3660 C.2   1500  HEM1500     0.0000
     24  C3C      -16.6870  -63.4400  -38.1200 C.2   1500  HEM1500     0.0000
     25  C4C      -15.3590  -63.0330  -38.5740 C.2   1500  HEM1500     0.0000
     26  CMC      -17.5970  -65.3630  -36.5960 C.3   1500  HEM1500     0.0000
     27  CAC      -17.9840  -62.6790  -38.4630 C.2   1500  HEM1500     0.0000
     28  CBC      -19.0570  -63.4050  -38.8630 C.2   1500  HEM1500     0.0000
     29  C1D      -13.9630  -61.5320  -39.9160 C.ar  1500  HEM1500     0.0000
     30  C2D      -13.8040  -60.5630  -40.9980 C.ar  1500  HEM1500     0.0000
     31  C3D      -12.2890  -60.3070  -41.0440 C.ar  1500  HEM1500     0.0000
     32  C4D      -11.7330  -61.1230  -39.9840 C.ar  1500  HEM1500     0.0000
     33  CMD      -14.8670  -59.8960  -41.9200 C.3   1500  HEM1500     0.0000
     34  CAD      -11.5040  -59.3520  -41.9880 C.3   1500  HEM1500     0.0000
     35  CBD      -11.2420  -58.0300  -41.2540 C.3   1500  HEM1500     0.0000
     36  CGD      -10.6710  -56.9520  -42.1770 C.2   1500  HEM1500     0.0000
     37  O1D       -9.9620  -56.0310  -41.6860 O.co2 1500  HEM1500     0.0000
     38  O2D      -10.9610  -56.9660  -43.3840 O.co2 1500  HEM1500     0.0000
     39  NA       -10.4020  -63.2360  -38.2770 N.2   1500  HEM1500     0.0000
     40  NB       -12.1930  -65.2130  -37.0160 N.ar  1500  HEM1500     0.0000
     41  NC       -14.4610  -63.9420  -38.0820 N.2   1500  HEM1500     0.0000
     42  ND       -12.7410  -61.8820  -39.3910 N.ar  1500  HEM1500     0.0000
     43 FE        -12.4610  -63.6330  -38.2460 Fe    1500  HEM1500     0.0000
@<TRIPOS>BOND
     1    38    36   ar
     2    36    37   ar
     3    36    35    1
     4    34    35    1
     5    34    31    1
     6    33    30    1
     7    31    30   ar
     8    31    32   ar
     9    30    29   ar
    10    32     1    2
    11    32    42   ar
    12    29     4    2
    13    29    42   ar
    14     1     5    1
    15     4    25    1
    16    42    43    1
    17    14    12   ar
    18    28    27    2
    19    13    12   ar
    20     5     6    1
    21     5    39    2
    22    10     6    1
    23    10    11    1
    24    12    11    1
    25    25    24    1
    26    25    41    2
    27    27    24    1
    28     6     7    2
    29    39    43    1
    30    39     8    1
    31    43    41    1
    32    43    40    1
    33    24    23    2
    34    41    22    1
    35     7     8    1
    36     7     9    1
    37     8     2    2
    38    23    22    1
    39    23    26    1
    40    22     3    2
    41    40    15   ar
    42    40    18   ar
    43     2    15    1
    44     3    18    1
    45    15    16   ar
    46    18    17   ar
    47    16    17   ar
    48    16    19    1
    49    17    20    1
    50    20    21    2
