@<TRIPOS>MOLECULE
3n3p_NIZ_B_1.pdb
 10 10 0 0 0
SMALL
GASTEIGER

@<TRIPOS>ATOM
      1  C        -12.6550  -35.9510   -0.0480 C.2   749  NIZ749      0.2823
      2  C1       -13.9890  -35.2570   -0.0140 C.ar  749  NIZ749      0.0595
      3  N1       -16.3730  -34.0800   -0.1250 N.ar  749  NIZ749     -0.2423
      4  O1       -11.7780  -35.4670   -0.7630 O.2   749  NIZ749     -0.2669
      5  C2       -14.9580  -35.6630    0.8470 C.ar  749  NIZ749      0.0253
      6  N2       -12.5000  -37.1200    0.5940 N.am  749  NIZ749     -0.0886
      7  C3       -16.1490  -35.0550    0.7870 C.ar  749  NIZ749      0.0990
      8  N3       -11.3830  -37.8130    0.5470 N.3   749  NIZ749      0.0074
      9  C4       -15.4170  -33.6650   -0.9750 C.ar  749  NIZ749      0.0990
     10  C5       -14.2200  -34.2640   -0.9370 C.ar  749  NIZ749      0.0253
@<TRIPOS>BOND
     1     9    10   ar
     2     9     3   ar
     3    10     2   ar
     4     4     1    2
     5     3     7   ar
     6     1     2    1
     7     1     6   am
     8     2     5   ar
     9     8     6    1
    10     7     5   ar
