@<TRIPOS>MOLECULE
3n3p_AMP_B_1.pdb
 23 25 0 0 0
SMALL
GASTEIGER

@<TRIPOS>ATOM
      1  P         16.9910  -30.1730   14.8220 P.3   751  AMP751      0.5327
      2  O1P       15.4930  -30.4140   14.6900 O.3   751  AMP751     -0.1145
      3  O2P       17.8530  -30.0670   13.5910 O.2   751  AMP751     -0.2224
      4  O3P       17.2880  -29.0720   15.7990 O.3   751  AMP751     -0.1145
      5  O5'       17.4970  -31.5510   15.4890 O.3   751  AMP751     -0.2675
      6  C5'       16.8400  -32.2690   16.5320 C.3   751  AMP751      0.1860
      7  C4'       17.2770  -33.7160   16.4050 C.3   751  AMP751      0.1823
      8  O4'       16.5440  -34.3380   15.3250 O.3   751  AMP751     -0.3135
      9  C3'       18.7540  -33.9430   16.0200 C.3   751  AMP751      0.2184
     10  O3'       19.6970  -33.7810   17.0820 O.3   751  AMP751     -0.2174
     11  C2'       18.7480  -35.3550   15.4340 C.3   751  AMP751      0.2570
     12  O2'       18.8600  -36.3430   16.4930 O.3   751  AMP751     -0.2130
     13  C1'       17.3480  -35.3980   14.7720 C.3   751  AMP751      0.3186
     14  N9        17.5080  -35.1360   13.3160 N.pl3 751  AMP751     -0.1439
     15  C8        17.6870  -33.8980   12.7330 C.3   751  AMP751      0.3377
     16  N7        17.8070  -34.0350   11.3660 N.2   751  AMP751     -0.2095
     17  C5        17.6960  -35.3860   11.0820 C.2   751  AMP751      0.2526
     18  C6        17.7490  -36.2020    9.8310 C.2   751  AMP751      0.4393
     19  N6        17.9250  -35.5120    8.6370 N.pl3 751  AMP751      0.2180
     20  N1        17.6160  -37.5710    9.9440 N.2   751  AMP751      0.0021
     21  C2        17.4430  -38.2020   11.1350 C.3   751  AMP751      0.5254
     22  N3        17.3850  -37.4920   12.3240 N.2   751  AMP751     -0.0055
     23  C4        17.4960  -36.1200   12.3420 C.2   751  AMP751      0.3518
@<TRIPOS>BOND
     1    19    18    1
     2    18    20    2
     3    18    17    1
     4    20    21    1
     5    17    16    2
     6    17    23    1
     7    21    22    1
     8    16    15    1
     9    22    23    2
    10    23    14    1
    11    15    14    1
    12    14    13    1
    13     3     1    2
    14     2     1    1
    15    13     8    1
    16    13    11    1
    17     1     5    1
    18     1     4    1
    19     8     7    1
    20    11     9    1
    21    11    12    1
    22     5     6    1
    23     9     7    1
    24     9    10    1
    25     7     6    1
