@<TRIPOS>MOLECULE
3n3q_HEM_A_1.pdb
 43 50 0 0 0
SMALL
GASTEIGER

@<TRIPOS>ATOM
      1  CHA      -10.4900  -60.5010  -39.7950 C.2   1500  HEM1500     0.0000
      2  CHB       -9.7600  -64.3710  -36.9680 C.2   1500  HEM1500     0.0000
      3  CHC      -14.4940  -65.1450  -36.7930 C.2   1500  HEM1500     0.0000
      4  CHD      -15.3330  -61.2440  -39.5150 C.2   1500  HEM1500     0.0000
      5  C1A       -9.9110  -61.4120  -38.9540 C.2   1500  HEM1500     0.0000
      6  C2A       -8.5100  -61.5010  -38.6470 C.2   1500  HEM1500     0.0000
      7  C3A       -8.2750  -62.5380  -37.8410 C.2   1500  HEM1500     0.0000
      8  C4A       -9.5540  -63.2060  -37.6680 C.2   1500  HEM1500     0.0000
      9  CMA       -6.9270  -63.0820  -37.2760 C.3   1500  HEM1500     0.0000
     10  CAA       -7.5160  -60.4160  -39.1120 C.3   1500  HEM1500     0.0000
     11  CBA       -7.5180  -59.2220  -38.1640 C.3   1500  HEM1500     0.0000
     12  CGA       -6.4450  -58.3380  -38.7960 C.2   1500  HEM1500     0.0000
     13  O1A       -5.2350  -58.7390  -38.8530 O.co2 1500  HEM1500     0.0000
     14  O2A       -6.8020  -57.2790  -39.3540 O.co2 1500  HEM1500     0.0000
     15  C1B      -10.9960  -64.9340  -36.7060 C.ar  1500  HEM1500     0.0000
     16  C2B      -11.2440  -66.1730  -35.9850 C.ar  1500  HEM1500     0.0000
     17  C3B      -12.5460  -66.3340  -35.9020 C.ar  1500  HEM1500     0.0000
     18  C4B      -13.1630  -65.2590  -36.6340 C.ar  1500  HEM1500     0.0000
     19  CMB      -10.1080  -66.9930  -35.3170 C.3   1500  HEM1500     0.0000
     20  CAB      -13.3460  -67.4730  -35.2140 C.2   1500  HEM1500     0.0000
     21  CBB      -12.7640  -68.6840  -35.1540 C.2   1500  HEM1500     0.0000
     22  C1C      -15.1510  -64.1150  -37.4060 C.2   1500  HEM1500     0.0000
     23  C2C      -16.5930  -63.8770  -37.4140 C.2   1500  HEM1500     0.0000
     24  C3C      -16.7790  -62.7630  -38.1950 C.2   1500  HEM1500     0.0000
     25  C4C      -15.5130  -62.2850  -38.6500 C.2   1500  HEM1500     0.0000
     26  CMC      -17.6630  -64.6520  -36.6120 C.3   1500  HEM1500     0.0000
     27  CAC      -18.0310  -61.9600  -38.5650 C.2   1500  HEM1500     0.0000
     28  CBC      -19.1020  -62.6390  -38.9380 C.2   1500  HEM1500     0.0000
     29  C1D      -14.0860  -60.7600  -39.9510 C.ar  1500  HEM1500     0.0000
     30  C2D      -13.9070  -59.8250  -41.0040 C.ar  1500  HEM1500     0.0000
     31  C3D      -12.4360  -59.5640  -41.0890 C.ar  1500  HEM1500     0.0000
     32  C4D      -11.8250  -60.4360  -40.1260 C.ar  1500  HEM1500     0.0000
     33  CMD      -14.9680  -59.1540  -41.9020 C.3   1500  HEM1500     0.0000
     34  CAD      -11.7470  -58.6430  -42.0800 C.3   1500  HEM1500     0.0000
     35  CBD      -11.1030  -57.4520  -41.3630 C.3   1500  HEM1500     0.0000
     36  CGD      -10.7780  -56.3540  -42.3440 C.2   1500  HEM1500     0.0000
     37  O1D      -10.2310  -55.3230  -41.8620 O.co2 1500  HEM1500     0.0000
     38  O2D      -11.1110  -56.4810  -43.5720 O.co2 1500  HEM1500     0.0000
     39  NA       -10.4720  -62.4990  -38.3980 N.2   1500  HEM1500     0.0000
     40  NB       -12.1990  -64.4380  -37.1820 N.ar  1500  HEM1500     0.0000
     41  NC       -14.5540  -63.1690  -38.1980 N.2   1500  HEM1500     0.0000
     42  ND       -12.8350  -61.1380  -39.5400 N.ar  1500  HEM1500     0.0000
     43 FE        -12.4910  -62.9160  -38.3960 Fe    1500  HEM1500     0.0000
@<TRIPOS>BOND
     1    38    36   ar
     2    36    37   ar
     3    36    35    1
     4    34    35    1
     5    34    31    1
     6    33    30    1
     7    31    30   ar
     8    31    32   ar
     9    30    29   ar
    10    32     1    2
    11    32    42   ar
    12    29    42   ar
    13    29     4    2
    14     1     5    1
    15    42    43    1
    16     4    25    1
    17    14    12   ar
    18    10     6    1
    19    10    11    1
    20     5     6    1
    21     5    39    2
    22    28    27    2
    23    13    12   ar
    24    12    11    1
    25    25    41    2
    26    25    24    1
    27     6     7    2
    28    27    24    1
    29    39    43    1
    30    39     8    1
    31    43    41    1
    32    43    40    1
    33    41    22    1
    34    24    23    2
    35     7     8    1
    36     7     9    1
    37     8     2    2
    38    23    22    1
    39    23    26    1
    40    22     3    2
    41    40    15   ar
    42    40    18   ar
    43     2    15    1
    44     3    18    1
    45    15    16   ar
    46    18    17   ar
    47    16    17   ar
    48    16    19    1
    49    17    20    1
    50    20    21    2
