@<TRIPOS>MOLECULE
3n3q_NIZ_A_1.pdb
 10 10 0 0 0
SMALL
GASTEIGER

@<TRIPOS>ATOM
      1  C        -23.1130  -56.7600  -15.6250 C.2   749  NIZ749      0.2823
      2  C1       -24.5030  -56.1640  -15.5460 C.ar  749  NIZ749      0.0595
      3  N1       -26.9080  -54.9680  -15.3780 N.ar  749  NIZ749     -0.2423
      4  O1       -22.8380  -57.7300  -14.9290 O.2   749  NIZ749     -0.2669
      5  C2       -24.8020  -55.0970  -16.3370 C.ar  749  NIZ749      0.0253
      6  N2       -22.1840  -56.1640  -16.3830 N.am  749  NIZ749     -0.0886
      7  C3       -26.0050  -54.4910  -16.2520 C.ar  749  NIZ749      0.0990
      8  N3       -20.9290  -56.6240  -16.4800 N.3   749  NIZ749      0.0074
      9  C4       -26.6050  -56.0480  -14.5880 C.ar  749  NIZ749      0.0990
     10  C5       -25.4020  -56.6500  -14.6550 C.ar  749  NIZ749      0.0253
@<TRIPOS>BOND
     1     8     6    1
     2     6     1   am
     3     5     7   ar
     4     5     2   ar
     5     7     3   ar
     6     1     2    1
     7     1     4    2
     8     2    10   ar
     9     3     9   ar
    10    10     9   ar
