@<TRIPOS>MOLECULE
3n3r_HEM_A_1.pdb
 43 50 0 0 0
SMALL
GASTEIGER

@<TRIPOS>ATOM
      1  CHA      -10.3620  -61.9370  -39.4330 C.2   1500  HEM1500     0.0000
      2  CHB       -9.7550  -65.8380  -36.5080 C.2   1500  HEM1500     0.0000
      3  CHC      -14.5320  -66.5700  -36.5470 C.2   1500  HEM1500     0.0000
      4  CHD      -15.1690  -62.6480  -39.3900 C.2   1500  HEM1500     0.0000
      5  C1A       -9.8110  -62.8420  -38.5480 C.2   1500  HEM1500     0.0000
      6  C2A       -8.3930  -62.8790  -38.1780 C.2   1500  HEM1500     0.0000
      7  C3A       -8.2660  -63.9760  -37.3700 C.2   1500  HEM1500     0.0000
      8  C4A       -9.5140  -64.6660  -37.1910 C.2   1500  HEM1500     0.0000
      9  CMA       -6.9200  -64.4270  -36.7430 C.3   1500  HEM1500     0.0000
     10  CAA       -7.2850  -61.8570  -38.6330 C.3   1500  HEM1500     0.0000
     11  CBA       -7.2570  -60.5970  -37.7680 C.3   1500  HEM1500     0.0000
     12  CGA       -6.3030  -59.7330  -38.4980 C.2   1500  HEM1500     0.0000
     13  O1A       -5.0870  -60.1340  -38.5520 O.co2 1500  HEM1500     0.0000
     14  O2A       -6.6870  -58.6540  -39.0340 O.co2 1500  HEM1500     0.0000
     15  C1B      -10.9750  -66.4370  -36.3580 C.ar  1500  HEM1500     0.0000
     16  C2B      -11.2150  -67.6710  -35.7310 C.ar  1500  HEM1500     0.0000
     17  C3B      -12.5680  -67.8930  -35.6890 C.ar  1500  HEM1500     0.0000
     18  C4B      -13.1830  -66.7920  -36.3580 C.ar  1500  HEM1500     0.0000
     19  CMB      -10.0310  -68.4610  -35.0980 C.3   1500  HEM1500     0.0000
     20  CAB      -13.3150  -69.0010  -34.9990 C.3   1500  HEM1500     0.0000
     21  CBB      -12.7960  -70.2750  -34.9100 C.3   1500  HEM1500     0.0000
     22  C1C      -15.0710  -65.4770  -37.2130 C.2   1500  HEM1500     0.0000
     23  C2C      -16.5270  -65.2520  -37.2610 C.2   1500  HEM1500     0.0000
     24  C3C      -16.7150  -64.1470  -38.0610 C.2   1500  HEM1500     0.0000
     25  C4C      -15.3950  -63.7050  -38.5100 C.2   1500  HEM1500     0.0000
     26  CMC      -17.6080  -66.0630  -36.5060 C.3   1500  HEM1500     0.0000
     27  CAC      -17.9880  -63.4450  -38.4630 C.2   1500  HEM1500     0.0000
     28  CBC      -19.1150  -64.0400  -38.6900 C.2   1500  HEM1500     0.0000
     29  C1D      -13.8950  -62.2650  -39.7420 C.ar  1500  HEM1500     0.0000
     30  C2D      -13.6310  -61.2980  -40.8200 C.ar  1500  HEM1500     0.0000
     31  C3D      -12.2240  -61.0510  -40.8460 C.ar  1500  HEM1500     0.0000
     32  C4D      -11.6600  -61.8730  -39.8130 C.ar  1500  HEM1500     0.0000
     33  CMD      -14.7140  -60.6370  -41.6970 C.3   1500  HEM1500     0.0000
     34  CAD      -11.5020  -60.1230  -41.7670 C.3   1500  HEM1500     0.0000
     35  CBD      -11.1040  -58.7900  -41.0630 C.3   1500  HEM1500     0.0000
     36  CGD      -10.5610  -57.8040  -42.0800 C.2   1500  HEM1500     0.0000
     37  O1D       -9.9410  -56.8240  -41.5950 O.co2 1500  HEM1500     0.0000
     38  O2D      -10.8370  -57.8910  -43.3360 O.co2 1500  HEM1500     0.0000
     39  NA       -10.3800  -63.9090  -37.9290 N.2   1500  HEM1500     0.0000
     40  NB       -12.1740  -65.9800  -36.8420 N.ar  1500  HEM1500     0.0000
     41  NC       -14.4000  -64.5310  -37.9830 N.2   1500  HEM1500     0.0000
     42  ND       -12.6160  -62.6280  -39.1800 N.ar  1500  HEM1500     0.0000
     43 FE        -12.4050  -64.3890  -38.1700 Fe    1500  HEM1500     0.0000
@<TRIPOS>BOND
     1    38    36   ar
     2    36    37   ar
     3    36    35    1
     4    34    35    1
     5    34    31    1
     6    33    30    1
     7    31    30   ar
     8    31    32   ar
     9    30    29   ar
    10    32     1    2
    11    32    42   ar
    12    29     4    2
    13    29    42   ar
    14     1     5    1
    15     4    25    1
    16    42    43    1
    17    14    12   ar
    18    28    27    2
    19    10     6    1
    20    10    11    1
    21    13    12   ar
    22     5     6    1
    23     5    39    2
    24    25    24    1
    25    25    41    2
    26    12    11    1
    27    27    24    1
    28     6     7    2
    29    43    41    1
    30    43    39    1
    31    43    40    1
    32    24    23    2
    33    41    22    1
    34    39     8    1
    35     7     8    1
    36     7     9    1
    37    23    22    1
    38    23    26    1
    39    22     3    2
    40     8     2    2
    41    40    18   ar
    42    40    15   ar
    43     3    18    1
    44     2    15    1
    45    18    17   ar
    46    15    16   ar
    47    16    17   ar
    48    16    19    1
    49    17    20    1
    50    20    21    1
