@<TRIPOS>MOLECULE
3n3s_HEM_A_1.pdb
 43 50 0 0 0
SMALL
GASTEIGER

@<TRIPOS>ATOM
      1  CHA      -10.3760  -61.9190  -39.3940 C.2   1500  HEM1500     0.0000
      2  CHB       -9.6990  -65.8050  -36.5310 C.2   1500  HEM1500     0.0000
      3  CHC      -14.5850  -66.5880  -36.4730 C.2   1500  HEM1500     0.0000
      4  CHD      -15.2380  -62.6460  -39.3140 C.2   1500  HEM1500     0.0000
      5  C1A       -9.8110  -62.8120  -38.5240 C.2   1500  HEM1500     0.0000
      6  C2A       -8.4010  -62.8540  -38.1490 C.2   1500  HEM1500     0.0000
      7  C3A       -8.2360  -63.9260  -37.4080 C.2   1500  HEM1500     0.0000
      8  C4A       -9.4900  -64.6060  -37.2350 C.2   1500  HEM1500     0.0000
      9  CMA       -6.9310  -64.4450  -36.7280 C.3   1500  HEM1500     0.0000
     10  CAA       -7.3020  -61.8890  -38.6640 C.3   1500  HEM1500     0.0000
     11  CBA       -7.2840  -60.6360  -37.7760 C.3   1500  HEM1500     0.0000
     12  CGA       -6.3630  -59.6880  -38.5600 C.2   1500  HEM1500     0.0000
     13  O1A       -5.1230  -60.0430  -38.6010 O.co2 1500  HEM1500     0.0000
     14  O2A       -6.8020  -58.6160  -39.0700 O.co2 1500  HEM1500     0.0000
     15  C1B      -10.9370  -66.3650  -36.3070 C.ar  1500  HEM1500     0.0000
     16  C2B      -11.2160  -67.6090  -35.6590 C.ar  1500  HEM1500     0.0000
     17  C3B      -12.5620  -67.8690  -35.6080 C.ar  1500  HEM1500     0.0000
     18  C4B      -13.2120  -66.7430  -36.2690 C.ar  1500  HEM1500     0.0000
     19  CMB      -10.0390  -68.4030  -35.0180 C.3   1500  HEM1500     0.0000
     20  CAB      -13.2650  -69.0470  -34.9400 C.2   1500  HEM1500     0.0000
     21  CBB      -12.7820  -70.3120  -34.9410 C.2   1500  HEM1500     0.0000
     22  C1C      -15.1520  -65.4830  -37.1380 C.2   1500  HEM1500     0.0000
     23  C2C      -16.5630  -65.2240  -37.2250 C.2   1500  HEM1500     0.0000
     24  C3C      -16.7390  -64.1210  -38.0150 C.2   1500  HEM1500     0.0000
     25  C4C      -15.4120  -63.6730  -38.4030 C.2   1500  HEM1500     0.0000
     26  CMC      -17.6010  -66.0840  -36.4930 C.3   1500  HEM1500     0.0000
     27  CAC      -18.0790  -63.4850  -38.4020 C.2   1500  HEM1500     0.0000
     28  CBC      -19.2140  -64.0810  -38.6470 C.2   1500  HEM1500     0.0000
     29  C1D      -13.9840  -62.2070  -39.7450 C.ar  1500  HEM1500     0.0000
     30  C2D      -13.7290  -61.2450  -40.7400 C.ar  1500  HEM1500     0.0000
     31  C3D      -12.2650  -61.0260  -40.7850 C.ar  1500  HEM1500     0.0000
     32  C4D      -11.7050  -61.8680  -39.7490 C.ar  1500  HEM1500     0.0000
     33  CMD      -14.7310  -60.6120  -41.6860 C.3   1500  HEM1500     0.0000
     34  CAD      -11.5880  -60.0790  -41.7670 C.3   1500  HEM1500     0.0000
     35  CBD      -11.2420  -58.7710  -41.0520 C.3   1500  HEM1500     0.0000
     36  CGD      -10.6660  -57.7920  -42.1120 C.2   1500  HEM1500     0.0000
     37  O1D       -9.9960  -56.8770  -41.6290 O.co2 1500  HEM1500     0.0000
     38  O2D      -10.9520  -57.9190  -43.3410 O.co2 1500  HEM1500     0.0000
     39  NA       -10.4030  -63.9170  -37.9570 N.2   1500  HEM1500     0.0000
     40  NB       -12.1640  -65.9390  -36.7520 N.ar  1500  HEM1500     0.0000
     41  NC       -14.4960  -64.5570  -37.8660 N.2   1500  HEM1500     0.0000
     42  ND       -12.7660  -62.5940  -39.1700 N.ar  1500  HEM1500     0.0000
     43 FE        -12.4570  -64.3850  -38.1340 Fe    1500  HEM1500     0.0000
@<TRIPOS>BOND
     1    38    36   ar
     2    36    37   ar
     3    36    35    1
     4    34    35    1
     5    34    31    1
     6    33    30    1
     7    31    30   ar
     8    31    32   ar
     9    30    29   ar
    10    32     1    2
    11    32    42   ar
    12    29     4    2
    13    29    42   ar
    14     1     5    1
    15     4    25    1
    16    42    43    1
    17    14    12   ar
    18    10     6    1
    19    10    11    1
    20    28    27    2
    21    13    12   ar
    22    12    11    1
    23     5     6    1
    24     5    39    2
    25    25    24    1
    26    25    41    2
    27    27    24    1
    28     6     7    2
    29    43    39    1
    30    43    41    1
    31    43    40    1
    32    24    23    2
    33    39     8    1
    34    41    22    1
    35     7     8    1
    36     7     9    1
    37     8     2    2
    38    23    22    1
    39    23    26    1
    40    22     3    2
    41    40    15   ar
    42    40    18   ar
    43     2    15    1
    44     3    18    1
    45    15    16   ar
    46    18    17   ar
    47    16    17   ar
    48    16    19    1
    49    17    20    1
    50    21    20    2
