@<TRIPOS>MOLECULE
3n3t_C2E_A_1.pdb
 46 52 0 0 0
SMALL
GASTEIGER

@<TRIPOS>ATOM
      1  P1         3.0470   32.3790   46.7990 P.3   801  C2E801      0.2141
      2  O2P        3.8070   31.2610   46.1360 O.3   801  C2E801     -0.4373
      3  O1P        2.3310   33.4090   45.9790 O.2   801  C2E801     -0.5172
      4  O5'        4.0210   33.1180   47.8380 O.3   801  C2E801     -0.3114
      5  C5'        4.8310   32.3260   48.7090 C.3   801  C2E801      0.1812
      6  C4'        5.6190   33.2290   49.6410 C.3   801  C2E801      0.1771
      7  O4'        6.5610   34.0020   48.8830 O.3   801  C2E801     -0.3327
      8  C3'        4.7580   34.2480   50.3760 C.3   801  C2E801      0.1857
      9  O3'        4.0420   33.6430   51.4640 O.3   801  C2E801     -0.3112
     10  C2'        5.7820   35.3450   50.6930 C.3   801  C2E801      0.2282
     11  O2'        6.5250   35.0730   51.8870 O.3   801  C2E801     -0.2159
     12  C1'        6.6980   35.3050   49.4630 C.3   801  C2E801      0.2292
     13  N9         6.2710   36.4120   48.5650 N.pl3 801  C2E801     -0.2354
     14  C8         5.2210   36.4740   47.7150 C.3   801  C2E801      0.2246
     15  N7         5.1390   37.6850   47.1050 N.2   801  C2E801     -0.2322
     16  C5         6.1510   38.4230   47.5710 C.2   801  C2E801      0.2182
     17  C6         6.6160   39.7050   47.3700 C.1   801  C2E801      0.2372
     18  O6         6.0320   40.4560   46.5900 O.2   801  C2E801     -0.2069
     19  N1         7.7180   40.1390   48.0260 N.2   801  C2E801     -0.2485
     20  C2         8.3830   39.3480   48.9190 C.1   801  C2E801      0.2531
     21  N2         9.4690   39.8250   49.5820 N.pl3 801  C2E801     -0.0226
     22  N3         7.9760   38.0760   49.1670 N.2   801  C2E801     -0.3074
     23  C4         6.8880   37.5820   48.5300 C.2   801  C2E801      0.2300
     24  P11        2.9140   34.3450   52.3920 P.3   801  C2E801      0.2141
     25  O21        2.9340   33.6340   53.7270 O.3   801  C2E801     -0.4373
     26  O11        3.0950   35.8420   52.3770 O.2   801  C2E801     -0.5172
     27  O5A        1.4490   33.9260   51.8660 O.3   801  C2E801     -0.3114
     28  C5A        1.0550   33.8200   50.5160 C.3   801  C2E801      0.1812
     29  C4A        1.2210   32.3950   49.9830 C.3   801  C2E801      0.1771
     30  O4A        0.2470   31.4460   50.4690 O.3   801  C2E801     -0.3327
     31  C3A        1.0240   32.4710   48.4790 C.3   801  C2E801      0.1857
     32  O3A        2.0300   31.6950   47.8270 O.3   801  C2E801     -0.3112
     33  C2A       -0.3600   31.8950   48.2450 C.3   801  C2E801      0.2282
     34  O2A       -0.4690   31.3520   46.9300 O.3   801  C2E801     -0.2159
     35  C1A       -0.4880   30.8640   49.3690 C.3   801  C2E801      0.2292
     36  N91       -1.9180   30.5490   49.7020 N.pl3 801  C2E801     -0.2354
     37  C81       -2.9430   31.4120   49.7010 C.3   801  C2E801      0.2246
     38  N71       -4.0830   30.7730   50.0420 N.2   801  C2E801     -0.2322
     39  C51       -3.7820   29.4780   50.2600 C.2   801  C2E801      0.2182
     40  C61       -4.5680   28.2660   50.6630 C.1   801  C2E801      0.2372
     41  O61       -5.7980   28.3080   50.8770 O.2   801  C2E801     -0.2069
     42  N11       -3.9050   27.0910   50.7900 N.2   801  C2E801     -0.2485
     43  C21       -2.5650   27.0200   50.5580 C.1   801  C2E801      0.2531
     44  N21       -1.9370   25.8330   50.6930 N.pl3 801  C2E801     -0.0226
     45  N31       -1.8330   28.1080   50.1940 N.2   801  C2E801     -0.3074
     46  C41       -2.4100   29.3400   50.0430 C.2   801  C2E801      0.2300
@<TRIPOS>BOND
     1     3     1    2
     2     2     1    1
     3    18    17    2
     4     1    32    1
     5     1     4    1
     6    34    33    1
     7    15    16    2
     8    15    14    1
     9    17    16    1
    10    17    19    2
    11    16    23    1
    12    14    13    1
    13    32    31    1
    14     4     5    1
    15    19    20    2
    16    33    31    1
    17    33    35    1
    18    31    29    1
    19    23    13    1
    20    23    22    2
    21    13    12    1
    22     5     6    1
    23     7    12    1
    24     7     6    1
    25    20    22    2
    26    20    21    1
    27    35    36    1
    28    35    30    1
    29    12    10    1
    30     6     8    1
    31    37    36    1
    32    37    38    1
    33    36    46    1
    34    29    30    1
    35    29    28    1
    36    38    39    2
    37    46    45    2
    38    46    39    1
    39    45    43    2
    40    39    40    1
    41     8    10    1
    42     8     9    1
    43    28    27    1
    44    43    44    1
    45    43    42    2
    46    40    42    2
    47    40    41    2
    48    10    11    1
    49     9    24    1
    50    27    24    1
    51    26    24    2
    52    24    25    1
