@<TRIPOS>MOLECULE
3n3x_III_B_1.pdb
 43 42 0 0 0
SMALL
GASTEIGER

@<TRIPOS>ATOM
      1  N         12.1990  -32.1330   -7.1660 N.3     1  SER1       -0.1202
      2  CA        13.5940  -32.5820   -6.8830 C.3     1  SER1        0.2020
      3  C         14.6200  -31.4960   -7.2130 C.2     1  SER1        0.2619
      4  O         15.5340  -31.2400   -6.4260 O.2     1  SER1       -0.2717
      5  CB        13.9110  -33.8670   -7.6570 C.3     1  SER1        0.2103
      6  OG        15.2410  -34.2910   -7.4100 O.3     1  SER1       -0.2182
      7  N         14.6360  -30.5470   -8.1490 N.am    2  ASP2       -0.1959
      8  CA        15.7200  -29.5640   -8.3010 C.3     2  ASP2        0.1840
      9  C         15.7530  -28.5600   -7.1400 C.2     2  ASP2        0.2622
     10  O         15.1810  -28.8270   -6.0790 O.2     2  ASP2       -0.2715
     11  CB        15.5700  -28.8310   -9.6400 C.3     2  ASP2        0.1450
     12  CG        14.3880  -29.2350  -10.5140 C.2     2  ASP2        0.3671
     13  OD1       13.4390  -28.4360  -10.6640 O.co2   2  ASP2       -0.2456
     14  OD2       14.4150  -30.3580  -11.0610 O.co2   2  ASP2       -0.2456
     15  N         16.4650  -27.4400   -7.3050 N.am    3  ASP3       -0.1957
     16  CA        16.4870  -26.4070   -6.2510 C.3     3  ASP3        0.1840
     17  C         16.7520  -24.9330   -6.6470 C.2     3  ASP3        0.2622
     18  O         16.1280  -24.4010   -7.5660 O.2     3  ASP3       -0.2715
     19  CB        17.4020  -26.8360   -5.0880 C.3     3  ASP3        0.1450
     20  CG        16.6380  -26.8400   -3.7680 C.2     3  ASP3        0.3671
     21  OD1       17.2730  -27.0760   -2.7190 O.co2   3  ASP3       -0.2456
     22  OD2       15.4080  -26.6130   -3.7740 O.co2   3  ASP3       -0.2456
     23  N         17.7010  -24.3200   -5.9340 N.am    4  ASP4       -0.1957
     24  CA        17.8640  -22.8570   -5.7090 C.3     4  ASP4        0.1840
     25  C         17.2480  -21.7510   -6.5930 C.2     4  ASP4        0.2622
     26  O         17.3270  -21.7740   -7.8230 O.2     4  ASP4       -0.2715
     27  CB        19.3390  -22.5160   -5.4170 C.3     4  ASP4        0.1450
     28  CG        20.3120  -23.2800   -6.3000 C.2     4  ASP4        0.3671
     29  OD1       20.1590  -23.2490   -7.5400 O.co2   4  ASP4       -0.2456
     30  OD2       21.2420  -23.9060   -5.7470 O.co2   4  ASP4       -0.2456
     31  N         16.6450  -20.7870   -5.8890 N.am    5  MET5       -0.1963
     32  CA        16.3550  -19.4170   -6.3600 C.3     5  MET5        0.1736
     33  C         15.4750  -19.2550   -7.6080 C.2     5  MET5        0.2618
     34  O         14.6140  -20.0930   -7.8830 O.2     5  MET5       -0.2715
     35  CB        17.6530  -18.5960   -6.4840 C.3     5  MET5        0.0427
     36  CG        18.4000  -18.3840   -5.1660 C.3     5  MET5        0.0599
     37  SD        17.3230  -18.1680   -3.7110 S.3     5  MET5       -0.1393
     38  CE        18.4470  -18.0860   -2.3170 C.3     5  MET5        0.0692
     39  N         15.6010  -18.1740   -8.3140 N.am    6  GLY6       -0.1917
     40  CA        14.7300  -17.8290   -9.4350 C.3     6  GLY6        0.2285
     41  C         13.8960  -16.5910   -9.1590 C.2     6  GLY6        0.3865
     42  O         13.1210  -16.1500  -10.0070 O.co2   6  GLY6       -0.2437
     43  OXT       13.9680  -15.9950   -8.0820 O.co2   6  GLY6       -0.2437
@<TRIPOS>BOND
     1    14    12   ar
     2    13    12   ar
     3    12    11    1
     4    42    41   ar
     5    11     8    1
     6    40    41    1
     7    40    39    1
     8    41    43   ar
     9    39    33   am
    10     8     7    1
    11     8     9    1
    12     7     3   am
    13    34    33    2
    14    26    25    2
    15     5     6    1
    16     5     2    1
    17    33    32    1
    18    18    17    2
    19    29    28   ar
    20    15     9   am
    21    15    16    1
    22     3     2    1
    23     3     4    2
    24     1     2    1
    25     9    10    2
    26    17    16    1
    27    17    23   am
    28    25    31   am
    29    25    24    1
    30    35    32    1
    31    35    36    1
    32    32    31    1
    33    28    30   ar
    34    28    27    1
    35    16    19    1
    36    23    24    1
    37    24    27    1
    38    36    37    1
    39    19    20    1
    40    22    20   ar
    41    20    21   ar
    42    37    38    1
