@<TRIPOS>MOLECULE
3n3y_UMP_A_1.pdb
 20 21 0 0 0
SMALL
GASTEIGER

@<TRIPOS>ATOM
      1  N1       -15.9990    6.0540   48.5260 N.am  305  UMP305     -0.1790
      2  C2       -15.3200    5.2380   49.4140 C.1   305  UMP305      0.2844
      3  N3       -15.4220    5.4580   50.7720 N.2   305  UMP305     -0.2452
      4  C4       -16.1940    6.4960   51.2310 C.1   305  UMP305      0.2182
      5  C5       -16.8770    7.3180   50.3440 C.2   305  UMP305      0.1242
      6  C6       -16.7740    7.0870   48.9770 C.2   305  UMP305      0.0928
      7  O2       -14.6320    4.3090   48.9890 O.2   305  UMP305     -0.1918
      8  O4       -16.2650    6.6840   52.4340 O.2   305  UMP305     -0.2085
      9  C1'      -15.8550    5.7730   47.0890 C.3   305  UMP305      0.2090
     10  C2'      -17.1380    5.2360   46.4900 C.3   305  UMP305      0.0874
     11  C3'      -17.0040    5.6880   45.0480 C.3   305  UMP305      0.1857
     12  C4'      -16.0280    6.8640   45.0560 C.3   305  UMP305      0.1774
     13  O3'      -16.4760    4.6290   44.2910 O.3   305  UMP305     -0.2203
     14  O4'      -15.4640    6.9160   46.3540 O.3   305  UMP305     -0.3339
     15  C5'      -16.7500    8.1740   44.7690 C.3   305  UMP305      0.1858
     16  O5'      -17.7610    8.3670   45.7370 O.3   305  UMP305     -0.2675
     17  P        -18.5130    9.7860   45.9090 P.3   305  UMP305      0.5327
     18  OP1      -19.2420    9.7750   47.2330 O.3   305  UMP305     -0.1145
     19  OP2      -19.5110    9.9060   44.7810 O.2   305  UMP305     -0.2224
     20  OP3      -17.5150   10.8850   45.8790 O.3   305  UMP305     -0.1145
@<TRIPOS>BOND
     1    13    11    1
     2    15    12    1
     3    15    16    1
     4    19    17    2
     5    11    12    1
     6    11    10    1
     7    12    14    1
     8    16    17    1
     9    20    17    1
    10    17    18    1
    11    14     9    1
    12    10     9    1
    13     9     1    1
    14     1     6    1
    15     1     2   am
    16     6     5    2
    17     7     2    2
    18     2     3    2
    19     5     4    1
    20     3     4    2
    21     4     8    2
