@<TRIPOS>MOLECULE
3n49_3N4_F_1.pdb
 17 19 0 0 0
SMALL
GASTEIGER

@<TRIPOS>ATOM
      1  S1         1.1280   73.4230   27.9610 S.2     1  3N41       -0.0868
      2  C2         1.6060   75.1050   28.1870 C.ar    1  3N41        0.0292
      3  C3         2.9480   75.3290   28.5010 C.ar    1  3N41        0.0031
      4  C4         3.4580   76.6330   28.6340 C.ar    1  3N41        0.0002
      5  C5         2.5740   77.7330   28.4760 C.ar    1  3N41        0.0000
      6  C6         1.2030   77.4970   28.1860 C.ar    1  3N41        0.0005
      7  C8         0.7090   76.1710   28.0490 C.ar    1  3N41        0.0065
      8  C10        3.0270   79.0540   28.5890 C.ar    1  3N41        0.0000
      9  C12        4.3980   79.2850   28.8130 C.ar    1  3N41        0.0000
     10  C14        5.2940   78.1970   28.9660 C.ar    1  3N41        0.0000
     11  C16        4.8280   76.8850   28.9170 C.ar    1  3N41        0.0000
     12  C18        3.6330   73.9920   28.6390 C.ar    1  3N41       -0.0040
     13  C19        2.8020   72.9540   28.4520 C.ar    1  3N41        0.0317
     14  C21        5.1240   73.8530   28.9360 C.3     1  3N41        0.1409
     15  C24        5.8750   73.7820   27.5080 C.2     1  3N41        0.3692
     16  O25        6.3300   72.7430   27.0830 O.co2   1  3N41       -0.2453
     17  O26        6.0310   74.8590   26.7330 O.co2   1  3N41       -0.2453
@<TRIPOS>BOND
     1    17    15   ar
     2    16    15   ar
     3    15    14    1
     4     1     2   ar
     5     1    13   ar
     6     7     6   ar
     7     7     2   ar
     8     6     5   ar
     9     2     3   ar
    10    13    12   ar
    11     5     8   ar
    12     5     4   ar
    13     3     4   ar
    14     3    12   ar
    15     8     9   ar
    16     4    11   ar
    17    12    14    1
    18     9    10   ar
    19    11    10   ar
