@<TRIPOS>MOLECULE
3n4b_WWZ_A_1.pdb
 32 33 0 0 0
SMALL
GASTEIGER

@<TRIPOS>ATOM
      1  C1        -5.1510    2.2500   15.8270 C.ar  263  WWZ263      0.1067
      2  N1        -5.3600   -0.4230   16.1920 N.3   263  WWZ263     -0.1053
      3  O1        -7.2610    1.0780   16.6840 O.2   263  WWZ263     -0.1519
      4  S1        -5.8180    0.9350   16.7960 S.O2  263  WWZ263      0.0723
      5  C2        -3.7920    2.1880   15.5790 C.ar  263  WWZ263     -0.0336
      6  O2        -5.3910    1.0360   18.1800 O.2   263  WWZ263     -0.1519
      7  C3        -3.1870    3.2030   14.8810 C.ar  263  WWZ263     -0.0386
      8  C4        -3.9280    4.2770   14.4250 C.ar  263  WWZ263      0.0349
      9  C5        -5.3000    4.3410   14.6820 C.ar  263  WWZ263     -0.0386
     10  C6        -5.9110    3.3260   15.3990 C.ar  263  WWZ263     -0.0336
     11  N7        -3.2110    5.2940   13.7500 N.am  263  WWZ263     -0.2692
     12  C8        -3.8310    6.1170   12.7710 C.2   263  WWZ263      0.3081
     13  O8        -4.9110    5.8450   12.2720 O.2   263  WWZ263     -0.2522
     14  N9        -3.1430    7.2740   12.3470 N.am  263  WWZ263     -0.2692
     15  C10       -2.1080    7.8560   13.1250 C.ar  263  WWZ263      0.0349
     16  C11       -1.0160    8.5130   12.3770 C.ar  263  WWZ263     -0.0377
     17  C12       -0.0410    9.1710   13.0610 C.ar  263  WWZ263     -0.0247
     18  C13       -0.0940    9.2330   14.5470 C.ar  263  WWZ263      0.1235
     19  F13        0.8400    9.9120   15.2030 F     263  WWZ263     -0.2055
     20  C14       -1.1080    8.6380   15.2340 C.ar  263  WWZ263     -0.0247
     21  C15       -2.1760    7.9140   14.4870 C.ar  263  WWZ263     -0.0377
     22  H11       -0.9900    8.4690   11.4100 H     263  WWZ263      0.0637
     23  HN1       -5.2810   -1.1530   16.7240 H     263  WWZ263      0.1694
     24  H2        -3.2700    1.4350   15.8990 H     263  WWZ263      0.0638
     25  H12        0.6850    9.6000   12.5820 H     263  WWZ263      0.0647
     26  H3        -2.2380    3.1620   14.6980 H     263  WWZ263      0.0637
     27  H14       -1.1340    8.6830   16.2020 H     263  WWZ263      0.0647
     28  H5        -5.8190    5.0990   14.3690 H     263  WWZ263      0.0637
     29  H15       -2.9060    7.4870   14.9630 H     263  WWZ263      0.0637
     30  H6        -6.8640    3.3580   15.5800 H     263  WWZ263      0.0638
     31  HN7       -2.3710    5.4960   14.0270 H     263  WWZ263      0.1564
     32  HN9       -3.4820    7.7530   11.6550 H     263  WWZ263      0.1564
@<TRIPOS>BOND
     1    22    16    1
     2    32    14    1
     3    13    12    2
     4    14    12   am
     5    14    15    1
     6    16    17   ar
     7    16    15   ar
     8    25    17    1
     9    12    11   am
    10    17    18   ar
    11    15    21   ar
    12    11    31    1
    13    11     8    1
    14    28     9    1
    15     8     9   ar
    16     8     7   ar
    17    21    29    1
    18    21    20   ar
    19    18    19    1
    20    18    20   ar
    21     9    10   ar
    22    26     7    1
    23     7     5   ar
    24    20    27    1
    25    10    30    1
    26    10     1   ar
    27     5     1   ar
    28     5    24    1
    29     1     4    1
    30     2    23    1
    31     2     4    1
    32     3     4    2
    33     4     6    2
