@<TRIPOS>MOLECULE
3n4c_EF3_A_1.pdb
 33 36 0 0 0
SMALL
GASTEIGER

@<TRIPOS>ATOM
      1  C1        13.6730    3.4240   24.0180 C.2   218  EF3218      0.1224
      2  C2        12.8210    4.3700   24.5960 C.2   218  EF3218      0.0719
      3  N3        12.2610    3.7230   25.6710 N.pl3 218  EF3218     -0.2842
      4  C4        12.7650    2.4590   25.7160 C.3   218  EF3218      0.2201
      5  N5        13.6140    2.2470   24.7390 N.2   218  EF3218     -0.2442
      6  C6        14.1510    8.8270   20.5330 C.ar  218  EF3218      0.1053
      7  C7        13.2910    9.8250   21.0080 C.ar  218  EF3218      0.1424
      8  C8        12.4790    9.5590   22.1130 C.ar  218  EF3218      0.0369
      9  C9        12.5200    8.3090   22.7440 C.ar  218  EF3218      0.0056
     10  C10       13.3690    7.2870   22.2930 C.ar  218  EF3218      0.0298
     11  C11       14.1790    7.5730   21.1800 C.ar  218  EF3218      0.0095
     12  C12       13.4240    5.9620   22.9480 C.2   218  EF3218      0.1328
     13  C13       12.6710    5.6600   24.0830 C.2   218  EF3218      0.0482
     14  C14       14.3940    3.8080   22.8810 C.2   218  EF3218      0.1706
     15  N15       14.2600    5.0670   22.3630 N.2   218  EF3218     -0.3986
     16  C16       11.3060    4.2760   26.5980 C.3   218  EF3218      0.1141
     17  O17       13.3180   11.0120   20.3310 O.3   218  EF3218     -0.4755
     18  C18       12.7680   12.1630   20.9720 C.3   218  EF3218      0.2068
     19  C19       12.3560   13.1570   19.8880 C.3   218  EF3218      0.0646
     20  C20       13.5840   13.7180   19.1660 C.3   218  EF3218      0.0760
     21  N21       14.3620   14.6580   19.9870 N.3   218  EF3218     -0.2702
     22  C22       15.0400    9.0830   19.3410 C.3   218  EF3218      0.4214
     23  F23       15.9630   10.0620   19.5580 F     218  EF3218     -0.1657
     24  F24       14.3500    9.4480   18.2240 F     218  EF3218     -0.1657
     25  F25       15.7650    7.9870   18.9690 F     218  EF3218     -0.1657
     26  C26       15.3300    2.9480   22.1480 C.2   218  EF3218      0.1556
     27  N27       15.4680    1.6710   22.3090 N.2   218  EF3218     -0.1435
     28  C28       16.5060   15.9570   20.2430 C.3   218  EF3218      0.0897
     29  N29       15.7870   17.2420   20.3250 N.3   218  EF3218     -0.2691
     30  C30       14.4460   17.0070   20.8910 C.3   218  EF3218      0.0897
     31  C31       13.6550   15.9540   20.0830 C.3   218  EF3218      0.0897
     32  C32       15.7180   14.8940   19.4420 C.3   218  EF3218      0.0897
     33  C33       16.5310   18.2000   21.1380 C.3   218  EF3218      0.0897
@<TRIPOS>BOND
     1    24    22    1
     2    25    22    1
     3    20    19    1
     4    20    21    1
     5    22    23    1
     6    22     6    1
     7    32    21    1
     8    32    28    1
     9    19    18    1
    10    21    31    1
    11    31    30    1
    12    28    29    1
    13    29    30    1
    14    29    33    1
    15    17    18    1
    16    17     7    1
    17     6     7   ar
    18     6    11   ar
    19     7     8   ar
    20    11    10   ar
    21     8     9   ar
    22    26    27    2
    23    26    14    1
    24    10     9   ar
    25    10    12    1
    26    15    14    2
    27    15    12    2
    28    14     1    1
    29    12    13    1
    30     1     2    1
    31     1     5    2
    32    13     2    2
    33     2     3    1
    34     5     4    1
    35     3     4    1
    36     3    16    1
