@<TRIPOS>MOLECULE
3n4k_SAH_A_1.pdb
 26 28 0 0 0
SMALL
GASTEIGER

@<TRIPOS>ATOM
      1  N        -21.7920   -4.5460  -13.1870 N.3   201  SAH201     -0.1208
      2  CA       -21.7320   -5.3620  -14.4090 C.3   201  SAH201      0.1952
      3  CB       -20.4570   -4.9940  -15.1920 C.3   201  SAH201      0.0422
      4  CG       -20.6400   -4.7270  -16.6840 C.3   201  SAH201      0.0597
      5  SD       -19.0530   -4.4400  -17.4880 S.3   201  SAH201     -0.1375
      6  C        -21.7400   -6.7910  -13.9360 C.2   201  SAH201      0.3819
      7  O        -20.9430   -7.6610  -14.3030 O.co2 201  SAH201     -0.2441
      8  OXT      -22.5840   -7.1340  -13.1040 O.co2 201  SAH201     -0.2441
      9  C5'      -19.5810   -4.3440  -19.2060 C.3   201  SAH201      0.0899
     10  C4'      -19.4730   -5.6600  -19.9920 C.3   201  SAH201      0.1630
     11  O4'      -18.0750   -6.0630  -20.0510 O.3   201  SAH201     -0.3153
     12  C3'      -20.1620   -6.8980  -19.3920 C.3   201  SAH201      0.2168
     13  O3'      -21.5730   -6.8340  -19.6540 O.3   201  SAH201     -0.2175
     14  C2'      -19.4570   -8.0760  -20.0580 C.3   201  SAH201      0.2569
     15  O2'      -19.9390   -8.3060  -21.3800 O.3   201  SAH201     -0.2130
     16  C1'      -18.0250   -7.5080  -20.1600 C.3   201  SAH201      0.3185
     17  N9       -17.2190   -7.9860  -19.0240 N.pl3 201  SAH201     -0.1439
     18  C8       -16.6910   -7.2810  -17.9870 C.3   201  SAH201      0.3377
     19  N7       -15.9730   -8.1180  -17.1510 N.2   201  SAH201     -0.2095
     20  C5       -16.0580   -9.3590  -17.7160 C.2   201  SAH201      0.2526
     21  C6       -15.5030  -10.6870  -17.3860 C.2   201  SAH201      0.4393
     22  N6       -14.7360  -10.8220  -16.2800 N.pl3 201  SAH201      0.2180
     23  N1       -15.8550  -11.7250  -18.1780 N.2   201  SAH201      0.0021
     24  C2       -16.6140  -11.5540  -19.3010 C.3   201  SAH201      0.5254
     25  N3       -17.1110  -10.3590  -19.6950 N.2   201  SAH201     -0.0055
     26  C4       -16.8620   -9.2650  -18.9110 C.2   201  SAH201      0.3518
@<TRIPOS>BOND
     1    15    14    1
     2    16    14    1
     3    16    11    1
     4    16    17    1
     5    14    12    1
     6    11    10    1
     7    10    12    1
     8    10     9    1
     9    25    24    1
    10    25    26    2
    11    13    12    1
    12    24    23    1
    13     9     5    1
    14    17    26    1
    15    17    18    1
    16    26    20    1
    17    23    21    2
    18    18    19    1
    19    20    21    1
    20    20    19    2
    21     5     4    1
    22    21    22    1
    23     4     3    1
    24     3     2    1
    25     2     6    1
    26     2     1    1
    27     7     6   ar
    28     6     8   ar
