@<TRIPOS>MOLECULE
3n4l_842_A_1.pdb
 35 38 0 0 0
SMALL
GASTEIGER

@<TRIPOS>ATOM
      1  C1        28.2980    6.8020   16.3230 C.3   407  842407      0.0964
      2  C2        29.2890    6.7570   15.1970 C.2   407  842407      0.2419
      3  N3        30.5420    6.3800   15.5190 N.am  407  842407     -0.2042
      4  C4        31.6670    6.3250   14.5860 C.3   407  842407      0.1313
      5  C5        32.1000    4.8810   14.2560 C.3   407  842407      0.1894
      6  C6        30.9870    4.1100   13.5630 C.3   407  842407      0.1235
      7  N7        31.3770    2.7450   13.1820 N.3   407  842407     -0.2140
      8  C8        30.5730    1.9570   12.2010 C.3   407  842407      0.0782
      9  C9        31.2820    0.6480   11.9230 C.3   407  842407      0.0202
     10  C10       30.4490   -0.2380   11.0160 C.3   407  842407      0.0017
     11  C11       29.1320   -0.5700   11.7060 C.3   407  842407      0.0001
     12  C12       28.3510    0.6850   11.9900 C.3   407  842407      0.0017
     13  C13       29.1800    1.6570   12.8070 C.3   407  842407      0.0202
     14  C14       30.5810    2.8200   10.9300 C.ar  407  842407     -0.0065
     15  C15       31.7800    2.9850   10.1960 C.ar  407  842407      0.0162
     16  C16       31.9210    3.7930    9.0490 C.ar  407  842407      0.0826
     17  C17       30.7870    4.5120    8.6790 C.ar  407  842407      0.0191
     18  C18       29.5870    4.4010    9.3970 C.ar  407  842407      0.0013
     19  C19       29.4660    3.5650   10.5180 C.ar  407  842407     -0.0029
     20  N20       33.0950    3.8990    8.4390 N.ar  407  842407     -0.2282
     21  N21       33.8650    2.8100    8.0370 N.ar  407  842407     -0.1635
     22  C22       34.9950    3.3720    7.5570 C.ar  407  842407      0.1221
     23  C23       34.9150    4.7520    7.7070 C.ar  407  842407      0.0431
     24  C24       33.7030    5.0770    8.2820 C.ar  407  842407      0.1020
     25  O25       28.9320    7.0360   14.0540 O.2   407  842407     -0.2733
     26  C26       32.7710    7.2230   15.1610 C.3   407  842407      0.0508
     27  C27       32.1160    8.5440   15.5500 C.ar  407  842407     -0.0159
     28  C28       31.9620    8.8920   16.8940 C.ar  407  842407      0.0256
     29  C29       31.3380   10.0960   17.2270 C.ar  407  842407      0.1421
     30  C30       30.8410   10.9630   16.2600 C.ar  407  842407      0.0592
     31  C31       30.9930   10.6040   14.9450 C.ar  407  842407      0.1421
     32  C32       31.6130    9.4170   14.5690 C.ar  407  842407      0.0256
     33  F33       31.1880   10.4500   18.4980 F     407  842407     -0.2041
     34  F34       30.5180   11.4300   14.0530 F     407  842407     -0.2041
     35  O35       33.2340    4.8280   13.3820 O.3   407  842407     -0.2197
@<TRIPOS>BOND
     1    22    23   ar
     2    22    21   ar
     3    23    24   ar
     4    21    20   ar
     5    24    20   ar
     6    20    16    1
     7    17    16   ar
     8    17    18   ar
     9    16    15   ar
    10    18    19   ar
    11    15    14   ar
    12    19    14   ar
    13    14     8    1
    14    10    11    1
    15    10     9    1
    16    11    12    1
    17     9     8    1
    18    12    13    1
    19     8    13    1
    20     8     7    1
    21     7     6    1
    22    35     5    1
    23     6     5    1
    24    34    31    1
    25    25     2    2
    26     5     4    1
    27    32    31   ar
    28    32    27   ar
    29     4    26    1
    30     4     3    1
    31    31    30   ar
    32    26    27    1
    33     2     3   am
    34     2     1    1
    35    27    28   ar
    36    30    29   ar
    37    28    29   ar
    38    29    33    1
