@<TRIPOS>MOLECULE
3n4m_CMP_A_1.pdb
 22 25 0 0 0
SMALL
GASTEIGER

@<TRIPOS>ATOM
      1  P         86.9960  -62.8700  148.8520 P.3   210  CMP210      0.2141
      2  O1P       85.7440  -62.2200  149.4000 O.3   210  CMP210     -0.4373
      3  O2P       86.7030  -64.2180  148.2450 O.2   210  CMP210     -0.5172
      4  O5'       87.7150  -61.9100  147.7790 O.3   210  CMP210     -0.3114
      5  C5'       88.3890  -60.7330  148.2130 C.3   210  CMP210      0.1812
      6  C4'       89.4280  -61.1920  149.2190 C.3   210  CMP210      0.1793
      7  O4'       90.2210  -60.1600  149.8090 O.3   210  CMP210     -0.3136
      8  C3'       88.7580  -61.8240  150.4140 C.3   210  CMP210      0.1884
      9  O3'       88.1120  -63.0200  150.0060 O.3   210  CMP210     -0.3111
     10  C2'       89.9340  -61.9420  151.3570 C.3   210  CMP210      0.2541
     11  O2'       90.7740  -63.0390  150.9950 O.3   210  CMP210     -0.2131
     12  C1'       90.6650  -60.6310  151.0870 C.3   210  CMP210      0.3185
     13  N9        90.2520  -59.6700  152.1390 N.pl3 210  CMP210     -0.1439
     14  C8        89.0610  -59.0370  152.2190 C.3   210  CMP210      0.3377
     15  N7        88.9970  -58.2400  153.3190 N.2   210  CMP210     -0.2095
     16  C5        90.1760  -58.3610  153.9630 C.2   210  CMP210      0.2526
     17  C6        90.7800  -57.7990  155.1920 C.2   210  CMP210      0.4393
     18  N6        90.0980  -56.9230  155.9650 N.pl3 210  CMP210      0.2180
     19  N1        92.0350  -58.1960  155.5120 N.2   210  CMP210      0.0021
     20  C2        92.7250  -59.0700  154.7470 C.3   210  CMP210      0.5254
     21  N3        92.2420  -59.6220  153.6180 N.2   210  CMP210     -0.0055
     22  C4        90.9960  -59.3090  153.1850 C.2   210  CMP210      0.3518
@<TRIPOS>BOND
     1     4     5    1
     2     4     1    1
     3     5     6    1
     4     3     1    2
     5     1     2    1
     6     1     9    1
     7     6     7    1
     8     6     8    1
     9     7    12    1
    10     9     8    1
    11     8    10    1
    12    11    10    1
    13    12    10    1
    14    12    13    1
    15    13    14    1
    16    13    22    1
    17    14    15    1
    18    22    21    2
    19    22    16    1
    20    15    16    2
    21    21    20    1
    22    16    17    1
    23    20    19    1
    24    17    19    2
    25    17    18    1
