@<TRIPOS>MOLECULE
3n51_BK3_A_1.pdb
 28 32 0 0 0
SMALL
GASTEIGER

@<TRIPOS>ATOM
      1  N1        21.6940   12.4400   63.6670 N.2   701  BK3701     -0.0027
      2  C2        22.8590   13.1000   63.6330 C.3   701  BK3701      0.5248
      3  N3        22.9250   14.4290   63.6390 N.2   701  BK3701     -0.0088
      4  C4        21.8030   15.1680   63.6190 C.2   701  BK3701      0.3403
      5  C5        20.5760   14.5300   63.6460 C.3   701  BK3701      0.2601
      6  C6        20.5400   13.1220   63.6920 C.2   701  BK3701      0.4078
      7  NAA       19.4100   12.4350   63.7320 N.pl3 701  BK3701      0.2118
      8  NBB       21.5430   16.4880   63.5890 N.pl3 701  BK3701     -0.0800
      9  NAR       20.3360   16.7300   63.6230 N.2   701  BK3701     -0.0952
     10  NAS       23.4930   19.7110   59.9360 N.3   701  BK3701     -0.2180
     11  CAB       13.2990   15.4720   65.4770 C.ar  701  BK3701     -0.0000
     12  CAC       13.8890   15.8410   64.2660 C.ar  701  BK3701     -0.0000
     13  CAD       17.6420   14.3820   67.2670 C.ar  701  BK3701     -0.0003
     14  CAE       18.2490   14.7370   66.0560 C.ar  701  BK3701     -0.0039
     15  CAG       14.1000   15.0150   66.5180 C.ar  701  BK3701     -0.0000
     16  CAH       16.2740   14.4720   67.4060 C.ar  701  BK3701     -0.0000
     17  CAI       15.2740   15.7450   64.1230 C.ar  701  BK3701     -0.0003
     18  CAJ       24.6500   19.1850   60.6900 C.3   701  BK3701      0.0888
     19  CAK       22.4720   18.6460   59.7760 C.3   701  BK3701      0.0888
     20  CAL       24.1710   18.8860   62.1320 C.3   701  BK3701      0.0231
     21  CAM       21.9290   18.2680   61.1660 C.3   701  BK3701      0.0231
     22  CAN       18.1380   15.5610   63.6770 C.3   701  BK3701      0.0724
     23  CAO       22.5290   17.5570   63.5520 C.3   701  BK3701      0.2317
     24  CAU       17.4690   15.1840   64.9950 C.ar  701  BK3701     -0.0164
     25  CAV       19.6510   15.5890   63.6570 C.2   701  BK3701      0.1047
     26  CAW       15.4880   14.9280   66.3600 C.ar  701  BK3701     -0.0003
     27  CAX       16.0820   15.2840   65.1650 C.ar  701  BK3701     -0.0036
     28  CBA       23.0650   17.8080   62.1160 C.3   701  BK3701      0.0522
@<TRIPOS>BOND
     1    19    10    1
     2    19    21    1
     3    10    18    1
     4    18    20    1
     5    21    28    1
     6    28    20    1
     7    28    23    1
     8    23     8    1
     9     8     4    1
    10     8     9    1
    11     4     3    2
    12     4     5    1
    13     9    25    2
    14     2     3    1
    15     2     1    1
    16     5    25    1
    17     5     6    1
    18    25    22    1
    19     1     6    2
    20    22    24    1
    21     6     7    1
    22    17    12   ar
    23    17    27   ar
    24    12    11   ar
    25    24    27   ar
    26    24    14   ar
    27    27    26   ar
    28    11    15   ar
    29    14    13   ar
    30    26    15   ar
    31    26    16   ar
    32    13    16   ar
