@<TRIPOS>MOLECULE
3n57_III_C_1.pdb
 25 24 0 0 0
SMALL
GASTEIGER

@<TRIPOS>ATOM
      1  N         56.0470 -102.9290   14.1770 N.3     1  SER1       -0.1202
      2  CA        54.6240 -102.4850   14.0800 C.3     1  SER1        0.2020
      3  C         53.8180 -103.2840   13.0490 C.2     1  SER1        0.2619
      4  O         54.3400 -104.1780   12.3740 O.2     1  SER1       -0.2717
      5  CB        54.5490 -100.9860   13.7690 C.3     1  SER1        0.2103
      6  OG        55.0210 -100.7130   12.4630 O.3     1  SER1       -0.2182
      7  N         52.5370 -102.9400   12.9560 N.am    2  LEU2       -0.1965
      8  CA        51.5960 -103.5350   12.0200 C.3     2  LEU2        0.1728
      9  C         51.6070 -102.7490   10.7000 C.2     2  LEU2        0.2616
     10  O         52.0070 -101.5810   10.6690 O.2     2  LEU2       -0.2715
     11  CB        50.2140 -103.5230   12.6770 C.3     2  LEU2        0.0311
     12  CG        48.8600 -103.8440   12.0370 C.3     2  LEU2        0.0022
     13  CD1       48.8430 -105.1500   11.2180 C.3     2  LEU2        0.0001
     14  CD2       47.8640 -103.9050   13.1830 C.3     2  LEU2        0.0001
     15  N         51.1930 -103.3960    9.6110 N.am    3  ARG3       -0.1977
     16  CA        51.1180 -102.7390    8.3070 C.3     3  ARG3        0.1597
     17  C         49.8570 -101.8890    8.1460 C.2     3  ARG3        0.2287
     18  O         49.9110 -100.7830    7.6020 O.2     3  ARG3       -0.2864
     19  CB        51.2110 -103.7620    7.1800 C.3     3  ARG3        0.0334
     20  CG        52.5810 -103.8110    6.5270 C.3     3  ARG3        0.0492
     21  CD        52.4890 -104.1760    5.0440 C.3     3  ARG3        0.2205
     22  NE        51.2580 -103.6430    4.4290 N.pl3   3  ARG3       -0.0865
     23  CZ        51.1460 -103.2870    3.1480 C.cat   3  ARG3        0.5346
     24  NH1       52.2020 -103.3810    2.3160 N.pl3   3  ARG3        0.1354
     25  NH2       49.9720 -102.8210    2.6990 N.pl3   3  ARG3        0.1354
@<TRIPOS>BOND
     1    24    23    1
     2    25    23    1
     3    23    22    2
     4    22    21    1
     5    21    20    1
     6    20    19    1
     7    19    16    1
     8    18    17    2
     9    17    16    1
    10    16    15    1
    11    15     9   am
    12    10     9    2
    13     9     8    1
    14    13    12    1
    15     8    11    1
    16     8     7    1
    17    12    11    1
    18    12    14    1
    19     4     3    2
    20     6     5    1
    21     7     3   am
    22     3     2    1
    23     5     2    1
    24     2     1    1
