@<TRIPOS>MOLECULE
3n58_NAD_A_1.pdb
 44 48 0 0 0
SMALL
GASTEIGER

@<TRIPOS>ATOM
      1  PA       -17.2610  -14.6170    9.2380 P.3   550  NAD550      0.2189
      2  O1A      -16.7260  -14.5110    7.8330 O.2   550  NAD550     -0.5170
      3  O2A      -18.0480  -13.4380    9.7720 O.3   550  NAD550     -0.4371
      4  O5B      -16.1070  -15.0500   10.2480 O.3   550  NAD550     -0.3112
      5  C5B      -15.0250  -15.8630    9.8120 C.3   550  NAD550      0.1813
      6  C4B      -13.7320  -15.1510   10.1380 C.3   550  NAD550      0.1821
      7  O4B      -12.6930  -16.1040   10.1430 O.3   550  NAD550     -0.3135
      8  C3B      -13.3210  -14.1120    9.1030 C.3   550  NAD550      0.2184
      9  O3B      -13.1550  -12.8760    9.7950 O.3   550  NAD550     -0.2174
     10  C2B      -11.9710  -14.5770    8.5920 C.3   550  NAD550      0.2570
     11  O2B      -11.0280  -13.5200    8.4720 O.3   550  NAD550     -0.2130
     12  C1B      -11.4900  -15.5100    9.6800 C.3   550  NAD550      0.3186
     13  N9A      -10.5790  -16.5790    9.2310 N.pl3 550  NAD550     -0.1439
     14  C8A      -10.6660  -17.2620    8.0780 C.3   550  NAD550      0.3377
     15  N7A       -9.6610  -18.1680    8.0380 N.2   550  NAD550     -0.2095
     16  C5A       -8.9250  -18.0390    9.1670 C.2   550  NAD550      0.2526
     17  C6A       -7.7990  -18.6890    9.6640 C.2   550  NAD550      0.4393
     18  N6A       -7.2270  -19.6820    8.9190 N.pl3 550  NAD550      0.2180
     19  N1A       -7.2980  -18.3450   10.8770 N.2   550  NAD550      0.0021
     20  C2A       -7.8950  -17.3600   11.5790 C.3   550  NAD550      0.5254
     21  N3A       -8.9800  -16.7170   11.1170 N.2   550  NAD550     -0.0055
     22  C4A       -9.5170  -17.0300    9.9190 C.2   550  NAD550      0.3518
     23  O3       -18.2920  -15.8240    9.2550 O.3   550  NAD550     -0.2703
     24  PN       -19.1530  -16.2100   10.5550 P.3   550  NAD550      0.2189
     25  O1N      -18.4970  -15.8000   11.8510 O.3   550  NAD550     -0.4371
     26  O2N      -20.5810  -15.7450   10.3610 O.2   550  NAD550     -0.5170
     27  O5D      -19.1640  -17.8040   10.3570 O.3   550  NAD550     -0.3112
     28  C5D      -18.0850  -18.6680   10.7200 C.3   550  NAD550      0.1813
     29  C4D      -18.5850  -20.0980   10.6870 C.3   550  NAD550      0.1799
     30  O4D      -19.5020  -20.3870   11.7360 O.3   550  NAD550     -0.3327
     31  C3D      -19.3260  -20.4130    9.4070 C.3   550  NAD550      0.2158
     32  O3D      -18.9650  -21.7620    9.1320 O.3   550  NAD550     -0.2175
     33  C2D      -20.7790  -20.3810    9.8150 C.3   550  NAD550      0.2309
     34  O2D      -21.6150  -21.0690    8.8740 O.3   550  NAD550     -0.2158
     35  C1D      -20.6940  -21.0000   11.2060 C.3   550  NAD550      0.2263
     36  N1N      -21.7980  -20.6670   12.1130 N.pl3 550  NAD550     -0.2787
     37  C2N      -22.0810  -21.4980   13.1390 C.3   550  NAD550      0.1244
     38  C3N      -23.0750  -21.2420   14.0760 C.2   550  NAD550      0.0544
     39  C7N      -23.3340  -22.2330   15.1990 C.2   550  NAD550      0.2818
     40  O7N      -24.4740  -22.2490   15.8710 O.2   550  NAD550     -0.2670
     41  N7N      -22.4460  -23.0940   15.4960 N.am  550  NAD550     -0.0839
     42  C4N      -23.8290  -20.0660   13.9450 C.2   550  NAD550      0.0033
     43  C5N      -23.5170  -19.2200   12.8700 C.2   550  NAD550      0.0157
     44  C6N      -22.4980  -19.5260   11.9790 C.2   550  NAD550      0.0633
@<TRIPOS>BOND
     1     2     1    2
     2    15    14    1
     3    15    16    2
     4    14    13    1
     5    11    10    1
     6    10     8    1
     7    10    12    1
     8    34    33    1
     9    18    17    1
    10     8     9    1
    11     8     6    1
    12    32    31    1
    13    16    17    1
    14    16    22    1
    15    13    12    1
    16    13    22    1
    17     1    23    1
    18     1     3    1
    19     1     4    1
    20    23    24    1
    21    31    33    1
    22    31    29    1
    23    17    19    2
    24    12     7    1
    25     5     6    1
    26     5     4    1
    27    33    35    1
    28    22    21    2
    29     6     7    1
    30    27    24    1
    31    27    28    1
    32    26    24    2
    33    24    25    1
    34    29    28    1
    35    29    30    1
    36    19    20    1
    37    21    20    1
    38    35    30    1
    39    35    36    1
    40    44    36    1
    41    44    43    2
    42    36    37    1
    43    43    42    1
    44    37    38    1
    45    42    38    2
    46    38    39    1
    47    39    41   am
    48    39    40    2
