@<TRIPOS>MOLECULE
3n58_ADN_A_1.pdb
 19 21 0 0 0
SMALL
GASTEIGER

@<TRIPOS>ATOM
      1  O5'      -24.6140  -24.1320   10.9070 O.3   500  ADN500     -0.2176
      2  C5'      -24.7540  -23.0750   11.8410 C.3   500  ADN500      0.2143
      3  C4'      -26.1820  -22.6010   11.8790 C.3   500  ADN500      0.1851
      4  O4'      -26.8770  -23.3250   12.9050 O.3   500  ADN500     -0.3134
      5  C3'      -26.3590  -21.1160   12.1960 C.3   500  ADN500      0.2186
      6  O3'      -26.7440  -20.4120   11.0340 O.3   500  ADN500     -0.2174
      7  C2'      -27.4970  -21.0610   13.1970 C.3   500  ADN500      0.2570
      8  O2'      -28.5760  -20.2450   12.7850 O.3   500  ADN500     -0.2130
      9  C1'      -27.9210  -22.5280   13.3760 C.3   500  ADN500      0.3186
     10  N9       -28.2300  -22.8890   14.7770 N.pl3 500  ADN500     -0.1439
     11  C8       -27.5760  -22.5230   15.9040 C.3   500  ADN500      0.3377
     12  N7       -28.2440  -22.9420   17.0090 N.2   500  ADN500     -0.2095
     13  C5       -29.3790  -23.5600   16.5890 C.2   500  ADN500      0.2526
     14  C6       -30.5610  -24.2080   17.2290 C.2   500  ADN500      0.4393
     15  N6       -30.7180  -24.3470   18.5850 N.pl3 500  ADN500      0.2180
     16  N1       -31.5150  -24.7190   16.4220 N.2   500  ADN500      0.0021
     17  C2       -31.4340  -24.6300   15.0830 C.3   500  ADN500      0.5254
     18  N3       -30.4060  -24.0440   14.4460 N.2   500  ADN500     -0.0055
     19  C4       -29.3660  -23.5060   15.1220 C.2   500  ADN500      0.3518
@<TRIPOS>BOND
     1     1     2    1
     2     6     5    1
     3     2     3    1
     4     3     5    1
     5     3     4    1
     6     5     7    1
     7     8     7    1
     8     4     9    1
     9     7     9    1
    10     9    10    1
    11    18    17    1
    12    18    19    2
    13    10    19    1
    14    10    11    1
    15    17    16    1
    16    19    13    1
    17    11    12    1
    18    16    14    2
    19    13    12    2
    20    13    14    1
    21    14    15    1
