@<TRIPOS>MOLECULE
3n59_3DS_C_1.pdb
 12 12 0 0 0
SMALL
GASTEIGER

@<TRIPOS>ATOM
      1  OAA      -20.2160   61.0020  -26.5740 O.co2 147  3DS147     -0.2409
      2  OAB      -19.7160   57.2820  -29.8030 O.2   147  3DS147     -0.2886
      3  OAC      -21.7300   60.2630  -25.1490 O.co2 147  3DS147     -0.2409
      4  OAD      -22.5690   55.3370  -26.4880 O.3   147  3DS147     -0.2196
      5  OAE      -20.8300   55.0140  -28.7430 O.3   147  3DS147     -0.2120
      6  CAF      -20.3460   58.6040  -28.0730 C.2   147  3DS147      0.0425
      7  CAG      -22.0900   57.7170  -26.4360 C.3   147  3DS147      0.0692
      8  CAH      -21.0100   60.1290  -26.1580 C.2   147  3DS147      0.3840
      9  CAI      -20.4170   57.4160  -28.8000 C.2   147  3DS147      0.2057
     10  CAJ      -21.1210   58.8080  -26.9290 C.2   147  3DS147      0.0631
     11  CAK      -21.6020   56.3250  -26.8530 C.3   147  3DS147      0.1942
     12  CAL      -21.3670   56.2850  -28.3680 C.3   147  3DS147      0.2432
@<TRIPOS>BOND
     1     2     9    2
     2     9    12    1
     3     9     6    1
     4     5    12    1
     5    12    11    1
     6     6    10    2
     7    10     7    1
     8    10     8    1
     9    11     4    1
    10    11     7    1
    11     1     8   ar
    12     8     3   ar
