@<TRIPOS>MOLECULE
3n5b_ADP_A_1.pdb
 27 29 0 0 0
SMALL
GASTEIGER

@<TRIPOS>ATOM
      1  PB        23.9140    4.8380   31.4920 P.3   113  ADP113      0.5373
      2  O1B       24.2730    3.5560   32.1940 O.3   113  ADP113     -0.1143
      3  O2B       22.4760    4.8130   31.0530 O.2   113  ADP113     -0.2221
      4  O3B       24.3090    6.1150   32.1750 O.3   113  ADP113     -0.1143
      5  PA        26.4010    4.5310   29.9230 P.3   113  ADP113      0.2231
      6  O1A       26.5630    4.1910   28.4490 O.2   113  ADP113     -0.5169
      7  O2A       27.0210    3.5790   30.9260 O.3   113  ADP113     -0.4370
      8  O3A       24.8080    4.7990   30.1380 O.3   113  ADP113     -0.2261
      9  O5'       27.1170    5.9570   30.2050 O.3   113  ADP113     -0.3111
     10  C5'       26.5110    7.2050   29.8700 C.3   113  ADP113      0.1813
     11  C4'       27.5810    8.2810   29.6650 C.3   113  ADP113      0.1821
     12  O4'       28.0950    8.7410   30.9250 O.3   113  ADP113     -0.3135
     13  C3'       28.7890    7.7700   28.8910 C.3   113  ADP113      0.2184
     14  O3'       28.5800    7.8450   27.4740 O.3   113  ADP113     -0.2174
     15  C2'       29.9320    8.6230   29.4110 C.3   113  ADP113      0.2570
     16  O2'       29.9810    9.8800   28.7360 O.3   113  ADP113     -0.2130
     17  C1'       29.5080    8.9640   30.8260 C.3   113  ADP113      0.3186
     18  N9        30.1970    8.1820   31.8820 N.pl3 113  ADP113     -0.1439
     19  C8        30.0040    6.8810   32.1830 C.3   113  ADP113      0.3377
     20  N7        30.7760    6.5110   33.2490 N.2   113  ADP113     -0.2095
     21  C5        31.4720    7.5930   33.6510 C.2   113  ADP113      0.2526
     22  C6        32.4650    7.9040   34.7110 C.2   113  ADP113      0.4393
     23  N6        32.8940    6.9540   35.5830 N.pl3 113  ADP113      0.2180
     24  N1        32.9460    9.1610   34.7740 N.2   113  ADP113      0.0021
     25  C2        32.5570   10.1330   33.9170 C.3   113  ADP113      0.5254
     26  N3        31.6580    9.9220   32.9340 N.2   113  ADP113     -0.0055
     27  C4        31.0880    8.6970   32.7480 C.2   113  ADP113      0.3518
@<TRIPOS>BOND
     1    14    13    1
     2     6     5    2
     3    16    15    1
     4    13    15    1
     5    13    11    1
     6    15    17    1
     7    11    10    1
     8    11    12    1
     9    10     9    1
    10     5     8    1
    11     5     9    1
    12     5     7    1
    13     8     1    1
    14    17    12    1
    15    17    18    1
    16     3     1    2
    17     1     4    1
    18     1     2    1
    19    18    19    1
    20    18    27    1
    21    19    20    1
    22    27    26    2
    23    27    21    1
    24    26    25    1
    25    20    21    2
    26    21    22    1
    27    25    24    1
    28    22    24    2
    29    22    23    1
