@<TRIPOS>MOLECULE
3n5c_GDP_A_1.pdb
 28 30 0 0 0
SMALL
GASTEIGER

@<TRIPOS>ATOM
      1  PB        18.6870    4.1030   15.2700 P.3   200  GDP200      0.5373
      2  O1B       19.6040    5.3180   15.0170 O.3   200  GDP200     -0.1143
      3  O2B       18.5260    3.8680   16.8400 O.3   200  GDP200     -0.1143
      4  O3B       17.3200    4.1740   14.5250 O.2   200  GDP200     -0.2221
      5  O3A       19.5360    2.7930   14.8690 O.3   200  GDP200     -0.2261
      6  PA        19.4150    1.8690   13.5200 P.3   200  GDP200      0.2231
      7  O1A       18.1960    1.0260   13.6140 O.3   200  GDP200     -0.4370
      8  O2A       19.4950    2.7160   12.2440 O.2   200  GDP200     -0.5169
      9  O5'       20.6290    0.8400   13.7290 O.3   200  GDP200     -0.3111
     10  C5'       21.9360    1.4090   13.6440 C.3   200  GDP200      0.1813
     11  C4'       22.8570    0.2200   13.1580 C.3   200  GDP200      0.1799
     12  O4'       22.9130   -0.9450   14.0550 O.3   200  GDP200     -0.3326
     13  C3'       22.3170   -0.3340   11.8080 C.3   200  GDP200      0.2158
     14  O3'       23.4360   -0.5920   10.9560 O.3   200  GDP200     -0.2175
     15  C2'       21.5740   -1.6400   12.1940 C.3   200  GDP200      0.2310
     16  O2'       21.7390   -2.6430   11.2270 O.3   200  GDP200     -0.2158
     17  C1'       22.4640   -2.1450   13.3490 C.3   200  GDP200      0.2293
     18  N9        21.6790   -2.9850   14.2540 N.pl3 200  GDP200     -0.2354
     19  C8        20.4350   -2.7520   14.7800 C.3   200  GDP200      0.2246
     20  N7        20.1200   -3.6900   15.6760 N.2   200  GDP200     -0.2322
     21  C5        21.1420   -4.6140   15.6540 C.2   200  GDP200      0.2182
     22  C6        21.4080   -5.8670   16.3210 C.1   200  GDP200      0.2372
     23  O6        20.6350   -6.4070   17.1040 O.2   200  GDP200     -0.2069
     24  N1        22.6250   -6.4650   16.0710 N.2   200  GDP200     -0.2485
     25  C2        23.5760   -5.9270   15.1920 C.1   200  GDP200      0.2531
     26  N2        24.7790   -6.5860   15.0570 N.pl3 200  GDP200     -0.0226
     27  N3        23.3540   -4.8050   14.5380 N.2   200  GDP200     -0.3074
     28  C4        22.1570   -4.1150   14.7870 C.2   200  GDP200      0.2300
@<TRIPOS>BOND
     1    14    13    1
     2    16    15    1
     3    13    15    1
     4    13    11    1
     5    15    17    1
     6     8     6    2
     7    11    10    1
     8    11    12    1
     9    17    12    1
    10    17    18    1
    11     6     7    1
    12     6     9    1
    13     6     5    1
    14    10     9    1
    15    18    19    1
    16    18    28    1
    17     4     1    2
    18    27    28    2
    19    27    25    2
    20    19    20    1
    21    28    21    1
    22     5     1    1
    23     2     1    1
    24    26    25    1
    25    25    24    2
    26     1     3    1
    27    21    20    2
    28    21    22    1
    29    24    22    2
    30    22    23    2
