@<TRIPOS>MOLECULE
3n5d_NAG_A_1.pdb
 14 14 0 0 0
SMALL
GASTEIGER

@<TRIPOS>ATOM
      1  C1         9.6800  -42.1710  -31.5990 C.3   247  NAG247      0.1665
      2  C2         9.9450  -42.5070  -33.0730 C.3   247  NAG247      0.1576
      3  C3        11.4280  -42.3840  -33.5050 C.3   247  NAG247      0.2069
      4  C4        12.0320  -41.0940  -32.9850 C.3   247  NAG247      0.2134
      5  C5        11.6760  -40.8600  -31.5130 C.3   247  NAG247      0.1809
      6  C6        12.0760  -39.4500  -31.1290 C.3   247  NAG247      0.2141
      7  C7         8.1840  -44.0180  -33.8940 C.2   247  NAG247      0.2420
      8  C8         7.7770  -45.4590  -34.0590 C.3   247  NAG247      0.0964
      9  N2         9.3940  -43.8400  -33.3170 N.am  247  NAG247     -0.2019
     10  O3        11.6520  -42.4060  -34.9160 O.3   247  NAG247     -0.2184
     11  O4        13.4360  -41.1800  -33.2070 O.3   247  NAG247     -0.2176
     12  O5        10.2850  -40.9530  -31.2420 O.3   247  NAG247     -0.3489
     13  O6        11.9090  -39.3100  -29.7460 O.3   247  NAG247     -0.2176
     14  O7         7.4190  -43.0900  -34.2600 O.2   247  NAG247     -0.2733
@<TRIPOS>BOND
     1    10     3    1
     2    14     7    2
     3     8     7    1
     4     7     9   am
     5     3     2    1
     6     3     4    1
     7     9     2    1
     8    11     4    1
     9     2     1    1
    10     4     5    1
    11     1    12    1
    12     5    12    1
    13     5     6    1
    14     6    13    1
