@<TRIPOS>MOLECULE
3n5d_BGC_A_1.pdb
 12 12 0 0 0
SMALL
GASTEIGER

@<TRIPOS>ATOM
      1  C2        -5.5370  -21.1050  -19.1070 C.3   1970  BGC1970     0.2434
      2  C3        -4.7720  -21.6190  -17.8850 C.3   1970  BGC1970     0.2199
      3  C4        -4.9170  -23.1420  -17.8210 C.3   1970  BGC1970     0.2144
      4  C5        -4.4830  -23.7410  -19.1600 C.3   1970  BGC1970     0.1836
      5  C6        -4.5900  -25.2660  -19.0950 C.3   1970  BGC1970     0.2142
      6  C1        -5.0580  -21.8570  -20.3500 C.3   1970  BGC1970     0.3024
      7  O1        -5.7470  -21.3630  -21.5000 O.3   1970  BGC1970    -0.1869
      8  O2        -5.2970  -19.7070  -19.2720 O.3   1970  BGC1970    -0.2148
      9  O3        -5.3100  -21.0320  -16.6990 O.3   1970  BGC1970    -0.2174
     10  O4        -4.0910  -23.6580  -16.7760 O.3   1970  BGC1970    -0.2176
     11  O5        -5.3230  -23.2500  -20.2020 O.3   1970  BGC1970    -0.3236
     12  O6        -4.1820  -25.8270  -20.3430 O.3   1970  BGC1970    -0.2176
@<TRIPOS>BOND
     1     7     6    1
     2     6    11    1
     3     6     1    1
     4    12     5    1
     5    11     4    1
     6     8     1    1
     7     4     5    1
     8     4     3    1
     9     1     2    1
    10     2     3    1
    11     2     9    1
    12     3    10    1
