@<TRIPOS>MOLECULE
3n5h_GO0_F_1.pdb
 18 19 0 0 0
SMALL
GASTEIGER

@<TRIPOS>ATOM
      1 CL1         0.6950   77.2340   29.2470 Cl      1  GO01       -0.0799
      2  C2         2.4080   77.4900   29.1490 C.2     1  GO01        0.0829
      3  C3         3.2510   76.3740   29.1460 C.2     1  GO01        0.1383
      4  N4         2.8880   75.0780   29.2560 N.2     1  GO01       -0.3987
      5  C6         3.9500   74.2950   29.2080 C.2     1  GO01        0.1924
      6  C7         5.0620   75.0790   29.0360 C.3     1  GO01        0.0956
      7  C8         4.5940   76.5070   29.0260 C.2     1  GO01        0.0222
      8  C9         5.1860   77.7680   28.9250 C.2     1  GO01        0.0387
      9  C10        4.3700   78.9290   28.9580 C.3     1  GO01        0.0646
     10  C12        2.9710   78.7910   29.0710 C.2     1  GO01       -0.0066
     11 CL14        6.8750   77.9220   28.7440 Cl      1  GO01       -0.0868
     12  C15        6.5040   74.6500   28.8830 C.3     1  GO01        0.1258
     13  C18        6.8980   74.6690   27.4030 C.2     1  GO01        0.3656
     14  O19        6.1170   74.9080   26.4870 O.co2   1  GO01       -0.2456
     15  O20        8.1770   74.4010   27.1450 O.co2   1  GO01       -0.2456
     16  C22        3.8110   72.9550   29.3200 C.2     1  GO01        0.4130
     17  O23        4.7780   72.2020   29.2930 O.co2   1  GO01       -0.2380
     18  O24        2.5820   72.4290   29.4500 O.co2   1  GO01       -0.2380
@<TRIPOS>BOND
     1    14    13   ar
     2    15    13   ar
     3    13    12    1
     4    11     8    1
     5    12     6    1
     6     8     9    1
     7     8     7    2
     8     9    10    1
     9     7     6    1
    10     7     3    1
    11     6     5    1
    12    10     2    2
    13     3     2    1
    14     3     4    2
    15     2     1    1
    16     5     4    2
    17     5    16    1
    18    17    16   ar
    19    16    18   ar
