@<TRIPOS>MOLECULE
3n5j_GO1_F_1.pdb
 18 19 0 0 0
SMALL
GASTEIGER

@<TRIPOS>ATOM
      1 CL1         1.3970   75.3980   29.7180 Cl      1  GO11       -0.0796
      2  C2         2.9780   75.9050   29.3200 C.ar    1  GO11        0.0880
      3  C3         4.0170   75.0090   29.1350 C.ar    1  GO11        0.1419
      4  N4         3.9590   73.6700   29.2160 N.2     1  GO11       -0.3946
      5  C6         5.1590   73.1460   28.9910 C.2     1  GO11        0.2073
      6  C7         6.0450   74.1600   28.7380 C.2     1  GO11        0.0278
      7  C8         5.2820   75.4490   28.8360 C.ar    1  GO11        0.0305
      8  C9         5.5890   76.8250   28.6860 C.ar    1  GO11        0.0138
      9  C11        4.4980   77.7250   28.8600 C.ar    1  GO11        0.0587
     10  C12        3.2260   77.2640   29.1900 C.ar    1  GO11        0.0254
     11 CL14        4.6090   79.4610   28.6970 Cl      1  GO11       -0.0822
     12  C15        7.5190   74.0440   28.4070 C.3     1  GO11        0.1432
     13  C18        7.7770   74.6580   27.0580 C.2     1  GO11        0.3693
     14  O19        6.9050   74.7210   26.2000 O.co2   1  GO11       -0.2453
     15  O20        9.0200   75.1210   26.8630 O.co2   1  GO11       -0.2453
     16  C22        5.4100   71.8150   29.0140 C.2     1  GO11        0.4165
     17  O23        6.5520   71.3870   28.9300 O.co2   1  GO11       -0.2377
     18  O24        4.3930   70.9480   29.1210 O.co2   1  GO11       -0.2377
@<TRIPOS>BOND
     1    14    13   ar
     2    15    13   ar
     3    13    12    1
     4    12     6    1
     5     8     7   ar
     6     8     9   ar
     7    11     9    1
     8     6     7    2
     9     6     5    1
    10     7     3   ar
    11     9    10   ar
    12    17    16   ar
    13     5    16    1
    14     5     4    2
    15    16    18   ar
    16     3     4    2
    17     3     2   ar
    18    10     2   ar
    19     2     1    1
