@<TRIPOS>MOLECULE
3n5k_TG1_A_1.pdb
 46 48 0 0 0
SMALL
GASTEIGER

@<TRIPOS>ATOM
      1  C34       35.2150   73.7130   18.2370 C.3   1000  TG11000     0.0411
      2  C11       35.0330   72.9740   16.9110 C.3   1000  TG11000     0.2117
      3  C7        35.3170   73.7880   15.5840 C.3   1000  TG11000     0.2178
      4  C8        36.7550   74.2740   15.3610 C.3   1000  TG11000     0.2048
      5  C9        36.8900   75.2320   14.1590 C.3   1000  TG11000     0.0865
      6  C10       36.4340   74.8190   12.7340 C.3   1000  TG11000     0.1431
      7  C1        34.9320   74.5750   12.5420 C.3   1000  TG11000     0.0832
      8  C2        34.5160   74.4740   11.0410 C.3   1000  TG11000     0.2118
      9  O1        33.4910   75.4190   10.7600 O.3   1000  TG11000    -0.4484
     10  C13       33.6910   76.2270    9.6670 C.2   1000  TG11000     0.3170
     11  O2        34.5600   77.0730    9.7060 O.2   1000  TG11000    -0.2501
     12  C14       32.7720   75.9540    8.5020 C.3   1000  TG11000     0.1096
     13  C15       33.5310   75.9820    7.1620 C.3   1000  TG11000     0.0116
     14  C16       32.9280   75.1720    6.0030 C.3   1000  TG11000     0.0006
     15  C17       31.4060   75.3480    5.8600 C.3   1000  TG11000     0.0000
     16  C18       30.9120   75.6330    4.4390 C.3   1000  TG11000     0.0000
     17  C19       32.0280   76.0010    3.4570 C.3   1000  TG11000     0.0000
     18  C20       31.7150   75.5510    2.0420 C.3   1000  TG11000     0.0000
     19  C3        33.8250   73.0920   10.7960 C.3   1000  TG11000     0.2085
     20  O3        34.7060   72.3110   10.0180 O.3   1000  TG11000    -0.4485
     21  C21       34.2330   71.9640    8.7620 C.2   1000  TG11000     0.3164
     22  O4        33.2590   71.2440    8.7410 O.2   1000  TG11000    -0.2501
     23  C22       35.1180   72.3230    7.5900 C.3   1000  TG11000     0.0991
     24  C23       34.2640   72.2770    6.3150 C.3   1000  TG11000     0.0116
     25  C24       36.3360   71.4260    7.3420 C.3   1000  TG11000     0.0111
     26  C25       37.1730   71.0580    8.5450 C.3   1000  TG11000     0.0006
     27  C4        33.4900   72.5440   12.2060 C.3   1000  TG11000     0.0465
     28  C26       33.3080   71.0410   12.3300 C.3   1000  TG11000     0.0039
     29  C5        34.2330   73.4030   13.2530 C.3   1000  TG11000     0.0406
     30  C6        34.7370   72.7730   14.5580 C.3   1000  TG11000     0.1520
     31  O5        33.5460   72.3310   15.2150 O.3   1000  TG11000    -0.3264
     32  C12       33.5330   72.7310   16.5640 C.3   1000  TG11000     0.2996
     33  O12       33.0390   71.6590   17.2700 O.3   1000  TG11000    -0.1870
     34  C31       37.3070   73.6860   12.1750 C.3   1000  TG11000     0.0439
     35  O9        36.8330   75.8730   11.8610 O.3   1000  TG11000    -0.4555
     36  C32       37.6480   76.9430   11.9570 C.2   1000  TG11000     0.3173
     37  O10       37.3320   77.9940   11.4270 O.2   1000  TG11000    -0.2501
     38  C33       39.0510   76.4120   12.0840 C.3   1000  TG11000     0.1212
     39  O7        37.6010   73.1590   15.2150 O.3   1000  TG11000    -0.4494
     40  C27       38.4500   72.8740   16.2570 C.2   1000  TG11000     0.3169
     41  O8        38.5020   73.6110   17.2310 O.2   1000  TG11000    -0.2501
     42  C28       39.1920   71.5790   16.0690 C.3   1000  TG11000     0.1096
     43  C29       38.8430   70.5960   17.1910 C.3   1000  TG11000     0.0116
     44  C30       39.7780   69.3980   17.1560 C.3   1000  TG11000     0.0006
     45  O6        34.4510   74.8880   15.5760 O.3   1000  TG11000    -0.2167
     46  O11       35.7930   71.8070   16.8410 O.3   1000  TG11000    -0.2176
@<TRIPOS>BOND
     1    18    17    1
     2    17    16    1
     3    16    15    1
     4    15    14    1
     5    14    13    1
     6    24    23    1
     7    13    12    1
     8    25    23    1
     9    25    26    1
    10    23    21    1
    11    12    10    1
    12    22    21    2
    13    21    20    1
    14    10    11    2
    15    10     9    1
    16    20    19    1
    17     9     8    1
    18    19     8    1
    19    19    27    1
    20     8     7    1
    21    37    36    2
    22    35    36    1
    23    35     6    1
    24    36    38    1
    25    34     6    1
    26    27    28    1
    27    27    29    1
    28     7     6    1
    29     7    29    1
    30     6     5    1
    31    29    30    1
    32     5     4    1
    33    30    31    1
    34    30     3    1
    35    31    32    1
    36    39     4    1
    37    39    40    1
    38     4     3    1
    39    45     3    1
    40     3     2    1
    41    42    40    1
    42    42    43    1
    43    40    41    2
    44    32     2    1
    45    32    33    1
    46    46     2    1
    47     2     1    1
    48    44    43    1
