@<TRIPOS>MOLECULE
3n5o_GSH_A_1.pdb
 20 19 0 0 0
SMALL
GASTEIGER

@<TRIPOS>ATOM
      1  N1         7.2060   19.0360   15.6770 N.3   232  GSH232     -0.1208
      2  CA1        7.7310   20.3500   15.3160 C.3   232  GSH232      0.1948
      3  C1         7.2150   21.3430   16.3440 C.2   232  GSH232      0.3819
      4  O11        7.7770   22.4540   16.5400 O.co2 232  GSH232     -0.2441
      5  O12        6.1890   21.0300   17.0130 O.co2 232  GSH232     -0.2441
      6  CB1        7.2370   20.7200   13.9170 C.3   232  GSH232      0.0402
      7  CG1        7.8730   22.0240   13.4100 C.3   232  GSH232      0.0889
      8  CD1        7.5120   22.2850   11.9550 C.2   232  GSH232      0.2418
      9  OE1        7.2940   21.2290   11.0590 O.2   232  GSH232     -0.2733
     10  N2         7.3770   23.5650   11.5850 N.am  232  GSH232     -0.1968
     11  CA2        7.0270   23.9230   10.2050 C.3   232  GSH232      0.1843
     12  C2         8.2510   24.3510    9.4370 C.2   232  GSH232      0.2627
     13  O2         9.2060   25.2030   10.0020 O.2   232  GSH232     -0.2714
     14  CB2        5.9880   25.0460   10.2100 C.3   232  GSH232      0.0997
     15  SG2        4.4290   24.6390   11.0780 S.3   232  GSH232     -0.0797
     16  N3         8.3910   23.9060    8.1930 N.am  232  GSH232     -0.1917
     17  CA3        9.6370   24.0040    7.4620 C.3   232  GSH232      0.2285
     18  C3         9.5550   23.0990    6.2490 C.2   232  GSH232      0.3865
     19  O31        8.6480   22.2100    6.1850 O.co2 232  GSH232     -0.2437
     20  O32       10.3950   23.2450    5.3320 O.co2 232  GSH232     -0.2437
@<TRIPOS>BOND
     1    20    18   ar
     2    19    18   ar
     3    18    17    1
     4    17    16    1
     5    16    12   am
     6    12    13    2
     7    12    11    1
     8    11    14    1
     9    11    10    1
    10    14    15    1
    11     9     8    2
    12    10     8   am
    13     8     7    1
    14     7     6    1
    15     6     2    1
    16     2     1    1
    17     2     3    1
    18     3     4   ar
    19     3     5   ar
