@<TRIPOS>MOLECULE
3n5p_H4B_A_1.pdb
 17 18 0 0 0
SMALL
GASTEIGER

@<TRIPOS>ATOM
      1  N1         8.0940   11.1720   43.3910 N.2   600  H4B600     -0.2683
      2  C2         7.9110   11.6120   42.1040 C.1   600  H4B600      0.2608
      3  N2         7.0310   11.0200   41.2620 N.pl3 600  H4B600     -0.0220
      4  N3         8.6000   12.6790   41.6430 N.2   600  H4B600     -0.2474
      5  C4         9.4780   13.3210   42.4390 C.1   600  H4B600      0.2441
      6  O4        10.0790   14.3060   41.9730 O.2   600  H4B600     -0.2063
      7  C4A        9.6990   12.8800   43.7410 C.2   600  H4B600      0.2463
      8  C8A        8.9850   11.7870   44.1970 C.1   600  H4B600      0.1270
      9  N5        10.5920   13.4680   44.5760 N.2   600  H4B600     -0.2460
     10  N8         9.1710   11.3480   45.4510 N.2   600  H4B600     -0.2054
     11  C6        11.2010   12.6160   45.5710 C.3   600  H4B600      0.1627
     12  C7        10.1030   11.9490   46.3910 C.3   600  H4B600      0.1643
     13  C9        12.1740   13.3710   46.4680 C.3   600  H4B600      0.2063
     14  O9        11.6900   14.6800   46.7710 O.3   600  H4B600     -0.2183
     15  C10       12.3730   12.6160   47.7830 C.3   600  H4B600      0.1842
     16  C11       13.2720   13.3990   48.7310 C.3   600  H4B600      0.0383
     17  O10       12.9260   11.3200   47.5050 O.3   600  H4B600     -0.2204
@<TRIPOS>BOND
     1     3     2    1
     2     4     2    2
     3     4     5    2
     4     6     5    2
     5     2     1    2
     6     5     7    1
     7     1     8    2
     8     7     8    1
     9     7     9    2
    10     8    10    2
    11     9    11    1
    12    10    12    1
    13    11    12    1
    14    11    13    1
    15    13    14    1
    16    13    15    1
    17    17    15    1
    18    15    16    1
