@<TRIPOS>MOLECULE
3n5p_HEM_A_1.pdb
 43 50 0 0 0
SMALL
GASTEIGER

@<TRIPOS>ATOM
      1  CHA        9.0350    8.4040   35.5380 C.2   500  HEM500      0.0000
      2  CHB        4.3770    8.5550   34.2600 C.2   500  HEM500      0.0000
      3  CHC        5.4720    7.2750   29.7370 C.2   500  HEM500      0.0000
      4  CHD       10.0800    6.6650   31.1700 C.2   500  HEM500      0.0000
      5  C1A        7.6940    8.7070   35.5000 C.2   500  HEM500      0.0000
      6  C2A        7.0020    9.4870   36.5030 C.2   500  HEM500      0.0000
      7  C3A        5.7170    9.5490   36.1540 C.2   500  HEM500      0.0000
      8  C4A        5.5490    8.7740   34.9340 C.2   500  HEM500      0.0000
      9  CMA        4.6350   10.3260   36.9510 C.3   500  HEM500      0.0000
     10  CAA        7.6500   10.1830   37.7230 C.3   500  HEM500      0.0000
     11  CBA        7.5370   11.6540   37.3220 C.3   500  HEM500      0.0000
     12  CGA        8.2260   12.6010   38.2370 C.2   500  HEM500      0.0000
     13  O1A        7.7780   12.7240   39.4000 O.co2 500  HEM500      0.0000
     14  O2A        9.2050   13.2300   37.7780 O.co2 500  HEM500      0.0000
     15  C1B        4.2570    8.2040   32.9560 C.ar  500  HEM500      0.0000
     16  C2B        2.9990    8.1530   32.2160 C.ar  500  HEM500      0.0000
     17  C3B        3.3040    7.8050   30.9740 C.ar  500  HEM500      0.0000
     18  C4B        4.7550    7.6060   30.8720 C.ar  500  HEM500      0.0000
     19  CMB        1.5370    8.4320   32.6780 C.3   500  HEM500      0.0000
     20  CAB        2.2160    7.6450   29.9110 C.2   500  HEM500      0.0000
     21  CBB        2.4890    7.1610   28.7040 C.2   500  HEM500      0.0000
     22  C1C        6.8430    7.0360   29.7430 C.2   500  HEM500      0.0000
     23  C2C        7.6640    6.6440   28.5970 C.2   500  HEM500      0.0000
     24  C3C        8.9170    6.4500   29.0120 C.2   500  HEM500      0.0000
     25  C4C        8.9290    6.7430   30.4280 C.2   500  HEM500      0.0000
     26  CMC        7.2120    6.4460   27.1360 C.3   500  HEM500      0.0000
     27  CAC       10.1740    6.0250   28.1600 C.2   500  HEM500      0.0000
     28  CBC       10.1610    5.2500   27.0460 C.2   500  HEM500      0.0000
     29  C1D       10.2180    7.0490   32.4540 C.ar  500  HEM500      0.0000
     30  C2D       11.4610    6.9840   33.1840 C.ar  500  HEM500      0.0000
     31  C3D       11.1270    7.5400   34.5540 C.ar  500  HEM500      0.0000
     32  C4D        9.7250    7.8610   34.4990 C.ar  500  HEM500      0.0000
     33  CMD       12.8360    6.4730   32.7080 C.3   500  HEM500      0.0000
     34  CAD       12.0770    7.6590   35.7470 C.3   500  HEM500      0.0000
     35  CBD       12.6370    9.0480   35.9090 C.3   500  HEM500      0.0000
     36  CGD       13.6970    8.9300   36.9560 C.2   500  HEM500      0.0000
     37  O1D       14.3210    7.8240   37.0550 O.co2 500  HEM500      0.0000
     38  O2D       13.8970    9.9350   37.6810 O.co2 500  HEM500      0.0000
     39  NA         6.7770    8.2730   34.5550 N.2   500  HEM500      0.0000
     40  NB         5.3060    7.8530   32.1240 N.ar  500  HEM500      0.0000
     41  NC         7.6660    7.1090   30.8620 N.2   500  HEM500      0.0000
     42  ND         9.2090    7.5750   33.2340 N.ar  500  HEM500      0.0000
     43 FE          7.1780    7.2840   32.7960 Fe    500  HEM500      0.0000
@<TRIPOS>BOND
     1    28    27    2
     2    26    23    1
     3    27    24    1
     4    23    24    2
     5    23    22    1
     6    21    20    2
     7    24    25    1
     8     3    22    2
     9     3    18    1
    10    22    41    1
    11    20    17    1
    12    25    41    2
    13    25     4    1
    14    41    43    1
    15    18    17   ar
    16    18    40   ar
    17    17    16   ar
    18     4    29    2
    19    40    43    1
    20    40    15   ar
    21    16    19    1
    22    16    15   ar
    23    29    30   ar
    24    29    42   ar
    25    33    30    1
    26    43    42    1
    27    43    39    1
    28    15     2    1
    29    30    31   ar
    30    42    32   ar
    31     2     8    2
    32    32    31   ar
    33    32     1    2
    34    31    34    1
    35    39     8    1
    36    39     5    2
    37     8     7    1
    38     5     1    1
    39     5     6    1
    40    34    35    1
    41    35    36    1
    42     7     6    2
    43     7     9    1
    44     6    10    1
    45    36    37   ar
    46    36    38   ar
    47    11    10    1
    48    11    12    1
    49    14    12   ar
    50    12    13   ar
