@<TRIPOS>MOLECULE
3n5p_XFM_A_1.pdb
 26 28 0 0 0
SMALL
GASTEIGER

@<TRIPOS>ATOM
      1  N1         5.8790   12.4670   32.4940 N.2   800  XFM800     -0.3922
      2  C2         7.1610   12.6930   32.1350 C.2   800  XFM800      0.0929
      3  C3         7.7290   11.9880   31.0710 C.3   800  XFM800      0.0766
      4  C4         6.9620   11.0450   30.3760 C.2   800  XFM800     -0.0333
      5  C5         5.6410   10.8270   30.7630 C.2   800  XFM800      0.0427
      6  C6         5.1280   11.5550   31.8310 C.2   800  XFM800      0.2178
      7  C7         7.9670   13.7230   32.8920 C.3   800  XFM800      0.0622
      8  C8         8.4460   13.1060   34.1880 C.3   800  XFM800      0.0660
      9  C9         9.7840   12.4580   33.9270 C.2   800  XFM800      0.1083
     10  N10       10.9060   13.1960   34.1250 N.2   800  XFM800     -0.4145
     11  C11       12.1370   12.6750   33.9170 C.2   800  XFM800      0.0909
     12  C12       12.2730   11.3500   33.4820 C.3   800  XFM800      0.0804
     13  C13       11.1320   10.5670   33.2700 C.2   800  XFM800     -0.0167
     14  C14        9.8760   11.1240   33.4960 C.2   800  XFM800      0.0234
     15  C15       13.3240   13.5720   34.1550 C.3   800  XFM800      0.0591
     16  C16       14.5920   12.7730   34.4030 C.3   800  XFM800      0.0296
     17  C17       15.4120   13.4480   35.4680 C.2   800  XFM800     -0.0332
     18  C18       16.7510   13.7150   35.2070 C.2   800  XFM800      0.0196
     19  C19       17.5280   14.3230   36.1910 C.2   800  XFM800      0.1101
     20  N20       16.9700   14.6590   37.3890 N.2   800  XFM800     -0.3924
     21  C21       15.6480   14.4100   37.6710 C.2   800  XFM800      0.2001
     22  C22       14.8480   13.7890   36.7060 C.3   800  XFM800      0.1001
     23  N23       15.1000   14.7630   38.8730 N.pl3 800  XFM800     -0.0977
     24  C24       18.9830   14.6020   35.8970 C.3   800  XFM800      0.0664
     25  C25        7.5590   10.2630   29.2280 C.3   800  XFM800      0.0269
     26  N26        3.8650   11.3650   32.2130 N.pl3 800  XFM800     -0.0932
@<TRIPOS>BOND
     1    25     4    1
     2     4     5    2
     3     4     3    1
     4     5     6    1
     5     3     2    1
     6     6    26    1
     7     6     1    2
     8     2     1    2
     9     2     7    1
    10     7     8    1
    11    13    12    1
    12    13    14    2
    13    12    11    1
    14    14     9    1
    15    11    10    2
    16    11    15    1
    17     9    10    2
    18     9     8    1
    19    15    16    1
    20    16    17    1
    21    18    17    2
    22    18    19    1
    23    17    22    1
    24    24    19    1
    25    19    20    2
    26    22    21    1
    27    20    21    2
    28    21    23    1
