@<TRIPOS>MOLECULE
3n5q_HEM_A_1.pdb
 43 50 0 0 0
SMALL
GASTEIGER

@<TRIPOS>ATOM
      1  CHA        9.2310    8.8550   35.5710 C.2   500  HEM500      0.0000
      2  CHB        4.6310    8.9480   34.1320 C.2   500  HEM500      0.0000
      3  CHC        5.9910    7.5430   29.7680 C.2   500  HEM500      0.0000
      4  CHD       10.3760    6.5070   31.4180 C.2   500  HEM500      0.0000
      5  C1A        7.8970    9.1920   35.5200 C.2   500  HEM500      0.0000
      6  C2A        7.1820   10.1260   36.3750 C.2   500  HEM500      0.0000
      7  C3A        5.9080   10.1490   35.9750 C.2   500  HEM500      0.0000
      8  C4A        5.7740    9.2390   34.8400 C.2   500  HEM500      0.0000
      9  CMA        4.7820   11.0130   36.6090 C.3   500  HEM500      0.0000
     10  CAA        7.7610   10.9630   37.5410 C.3   500  HEM500      0.0000
     11  CBA        8.5790   12.1510   37.0120 C.3   500  HEM500      0.0000
     12  CGA        8.6720   13.3000   37.9980 C.2   500  HEM500      0.0000
     13  O1A        7.6700   13.6050   38.6790 O.co2 500  HEM500      0.0000
     14  O2A        9.7390   13.9490   38.1240 O.co2 500  HEM500      0.0000
     15  C1B        4.5980    8.6130   32.8030 C.ar  500  HEM500      0.0000
     16  C2B        3.4410    8.6650   31.9270 C.ar  500  HEM500      0.0000
     17  C3B        3.8200    8.2640   30.7210 C.ar  500  HEM500      0.0000
     18  C4B        5.2270    7.9610   30.8030 C.ar  500  HEM500      0.0000
     19  CMB        2.0130    9.0880   32.3300 C.3   500  HEM500      0.0000
     20  CAB        2.9160    8.1510   29.4610 C.2   500  HEM500      0.0000
     21  CBB        3.1030    7.2030   28.5250 C.2   500  HEM500      0.0000
     22  C1C        7.2930    7.1980   29.8340 C.2   500  HEM500      0.0000
     23  C2C        8.0860    6.8110   28.6950 C.2   500  HEM500      0.0000
     24  C3C        9.3120    6.5330   29.1520 C.2   500  HEM500      0.0000
     25  C4C        9.3160    6.7210   30.5830 C.2   500  HEM500      0.0000
     26  CMC        7.5920    6.7640   27.2260 C.3   500  HEM500      0.0000
     27  CAC       10.5190    6.0790   28.3220 C.2   500  HEM500      0.0000
     28  CBC       10.3700    5.9190   27.0040 C.2   500  HEM500      0.0000
     29  C1D       10.4960    7.0770   32.6600 C.ar  500  HEM500      0.0000
     30  C2D       11.7190    7.1400   33.4200 C.ar  500  HEM500      0.0000
     31  C3D       11.3720    7.8690   34.7000 C.ar  500  HEM500      0.0000
     32  C4D        9.9630    8.1880   34.5940 C.ar  500  HEM500      0.0000
     33  CMD       13.1030    6.5990   33.0350 C.3   500  HEM500      0.0000
     34  CAD       12.3630    8.1970   35.8270 C.3   500  HEM500      0.0000
     35  CBD       13.1840    9.3620   35.2940 C.3   500  HEM500      0.0000
     36  CGD       13.8700   10.1010   36.4160 C.2   500  HEM500      0.0000
     37  O1D       14.5460    9.4260   37.2570 O.co2 500  HEM500      0.0000
     38  O2D       13.7410   11.3680   36.4470 O.co2 500  HEM500      0.0000
     39  NA         7.0100    8.6650   34.6000 N.2   500  HEM500      0.0000
     40  NB         5.6660    8.1490   32.0830 N.ar  500  HEM500      0.0000
     41  NC         8.0550    7.1200   30.9720 N.2   500  HEM500      0.0000
     42  ND         9.4770    7.6690   33.3910 N.ar  500  HEM500      0.0000
     43 FE          7.5600    7.8440   32.7590 Fe    500  HEM500      0.0000
@<TRIPOS>BOND
     1    28    27    2
     2    26    23    1
     3    27    24    1
     4    21    20    2
     5    23    24    2
     6    23    22    1
     7    24    25    1
     8    20    17    1
     9     3    22    2
    10     3    18    1
    11    22    41    1
    12    25    41    2
    13    25     4    1
    14    17    18   ar
    15    17    16   ar
    16    18    40   ar
    17    41    43    1
    18     4    29    2
    19    16    19    1
    20    16    15   ar
    21    40    43    1
    22    40    15   ar
    23    29    42   ar
    24    29    30   ar
    25    43    42    1
    26    43    39    1
    27    15     2    1
    28    33    30    1
    29    42    32   ar
    30    30    31   ar
    31     2     8    2
    32    32    31   ar
    33    32     1    2
    34    39     8    1
    35    39     5    2
    36    31    34    1
    37     8     7    1
    38    35    34    1
    39    35    36    1
    40     5     1    1
    41     5     6    1
    42     7     6    2
    43     7     9    1
    44     6    10    1
    45    36    38   ar
    46    36    37   ar
    47    11    10    1
    48    11    12    1
    49    12    14   ar
    50    12    13   ar
