@<TRIPOS>MOLECULE
3n5q_XFN_A_1.pdb
 27 29 0 0 0
SMALL
GASTEIGER

@<TRIPOS>ATOM
      1  C01       13.5140   14.6920   35.3440 C.ar  800  XFN800      0.0138
      2  C02       13.4240   14.8270   33.9760 C.ar  800  XFN800      0.0885
      3  N02       14.5540   15.0120   33.2580 N.pl3 800  XFN800     -0.1281
      4  C03       12.1800   14.7620   33.3700 C.ar  800  XFN800      0.0138
      5  C04       11.0230   14.5590   34.1250 C.ar  800  XFN800     -0.0207
      6  C05       11.1330   14.4360   35.5200 C.ar  800  XFN800     -0.0084
      7  C06       12.3860   14.5110   36.1360 C.ar  800  XFN800     -0.0207
      8  C07        9.6860   14.4920   33.3910 C.3   800  XFN800      0.0335
      9  C08       12.5660   14.3940   37.6440 C.3   800  XFN800      0.0335
     10  C09       13.3130   15.5960   38.2630 C.3   800  XFN800      0.0595
     11  C11       16.9360   14.5870   38.1080 C.2   800  XFN800      0.2178
     12  N12       15.6140   14.6340   38.4260 N.2   800  XFN800     -0.3922
     13  C13       14.7970   15.5800   37.8890 C.2   800  XFN800      0.0928
     14  C14       15.3450   16.5160   36.9800 C.3   800  XFN800      0.0766
     15  C15       16.7100   16.4720   36.6350 C.2   800  XFN800     -0.0333
     16  C16       17.5140   15.4930   37.2120 C.2   800  XFN800      0.0427
     17  N17       17.7110   13.6380   38.6810 N.pl3 800  XFN800     -0.0932
     18  C18       17.3220   17.4640   35.6700 C.3   800  XFN800      0.0269
     19  C34        9.0430   13.1450   33.6640 C.3   800  XFN800      0.0595
     20  C35        8.2120   12.4680   32.5970 C.2   800  XFN800      0.0928
     21  C36        8.7970   11.7880   31.5250 C.3   800  XFN800      0.0766
     22  C37        7.9900   11.1290   30.5980 C.2   800  XFN800     -0.0333
     23  C38        6.6100   11.1410   30.7550 C.2   800  XFN800      0.0427
     24  C39        6.0540   11.8200   31.8420 C.2   800  XFN800      0.2178
     25  N40        6.8640   12.4550   32.7350 N.2   800  XFN800     -0.3922
     26  N41        4.7040   11.8580   32.0160 N.pl3 800  XFN800     -0.0932
     27  C42        8.6040   10.4250   29.4280 C.3   800  XFN800      0.0269
@<TRIPOS>BOND
     1    27    22    1
     2    22    23    2
     3    22    21    1
     4    23    24    1
     5    21    20    1
     6    24    26    1
     7    24    25    2
     8    20    25    2
     9    20    19    1
    10     3     2    1
    11     4     2   ar
    12     4     5   ar
    13     8    19    1
    14     8     5    1
    15     2     1   ar
    16     5     6   ar
    17     1     7   ar
    18     6     7   ar
    19    18    15    1
    20     7     9    1
    21    15    14    1
    22    15    16    2
    23    14    13    1
    24    16    11    1
    25     9    10    1
    26    13    10    1
    27    13    12    2
    28    11    12    2
    29    11    17    1
