@<TRIPOS>MOLECULE
3n5q_H4B_A_1.pdb
 17 18 0 0 0
SMALL
GASTEIGER

@<TRIPOS>ATOM
      1  N1         8.5420   12.0530   42.9560 N.2   600  H4B600     -0.2683
      2  C2         8.6390   12.5230   41.6870 C.1   600  H4B600      0.2608
      3  N2         7.8700   11.9620   40.7310 N.pl3 600  H4B600     -0.0220
      4  N3         9.5030   13.5270   41.3690 N.2   600  H4B600     -0.2474
      5  C4        10.3030   14.0960   42.3260 C.1   600  H4B600      0.2441
      6  O4        11.1300   15.0230   42.0630 O.2   600  H4B600     -0.2063
      7  C4A       10.1940   13.6270   43.6350 C.2   600  H4B600      0.2463
      8  C8A        9.3070   12.5950   43.9330 C.1   600  H4B600      0.1270
      9  N5        10.9670   14.1380   44.6270 N.2   600  H4B600     -0.2460
     10  N8         9.2280   12.1380   45.2060 N.2   600  H4B600     -0.2054
     11  C6        11.3350   13.2410   45.7020 C.3   600  H4B600      0.1627
     12  C7        10.0310   12.7080   46.2920 C.3   600  H4B600      0.1643
     13  C9        12.2500   13.9470   46.7090 C.3   600  H4B600      0.2063
     14  O9        11.6680   15.1830   47.1310 O.3   600  H4B600     -0.2183
     15  C10       12.5510   13.1350   47.9660 C.3   600  H4B600      0.1842
     16  C11       13.7130   13.7790   48.7020 C.3   600  H4B600      0.0383
     17  O10       12.8790   11.7670   47.6740 O.3   600  H4B600     -0.2204
@<TRIPOS>BOND
     1     3     2    1
     2     4     2    2
     3     4     5    2
     4     2     1    2
     5     6     5    2
     6     5     7    1
     7     1     8    2
     8     7     8    1
     9     7     9    2
    10     8    10    2
    11     9    11    1
    12    10    12    1
    13    11    12    1
    14    11    13    1
    15    13    14    1
    16    13    15    1
    17    17    15    1
    18    15    16    1
