@<TRIPOS>MOLECULE
3n5r_H4B_A_1.pdb
 17 18 0 0 0
SMALL
GASTEIGER

@<TRIPOS>ATOM
      1  N1         8.4850   11.6520   42.9900 N.2   600  H4B600     -0.2683
      2  C2         8.3720   12.0090   41.6960 C.1   600  H4B600      0.2608
      3  N2         7.5440   11.3210   40.8760 N.pl3 600  H4B600     -0.0220
      4  N3         9.1050   13.0230   41.2120 N.2   600  H4B600     -0.2474
      5  C4         9.9490   13.7090   42.0140 C.1   600  H4B600      0.2441
      6  O4        10.5960   14.6680   41.5200 O.2   600  H4B600     -0.2063
      7  C4A       10.0620   13.3670   43.3580 C.2   600  H4B600      0.2463
      8  C8A        9.3090   12.3080   43.8270 C.1   600  H4B600      0.1270
      9  N5        10.8880   13.9980   44.2430 N.2   600  H4B600     -0.2460
     10  N8         9.4190   11.9160   45.1250 N.2   600  H4B600     -0.2054
     11  C6        11.4450   13.1950   45.3230 C.3   600  H4B600      0.1627
     12  C7        10.2880   12.5810   46.0980 C.3   600  H4B600      0.1643
     13  C9        12.3850   13.9850   46.2370 C.3   600  H4B600      0.2063
     14  O9        11.7690   15.2010   46.6650 O.3   600  H4B600     -0.2183
     15  C10       12.7370   13.1370   47.4610 C.3   600  H4B600      0.1842
     16  C11       13.5900   13.8830   48.4430 C.3   600  H4B600      0.0383
     17  O10       13.4170   11.9150   47.0860 O.3   600  H4B600     -0.2204
@<TRIPOS>BOND
     1     3     2    1
     2     4     2    2
     3     4     5    2
     4     6     5    2
     5     2     1    2
     6     5     7    1
     7     1     8    2
     8     7     8    1
     9     7     9    2
    10     8    10    2
    11     9    11    1
    12    10    12    1
    13    11    12    1
    14    11    13    1
    15    13    14    1
    16    13    15    1
    17    17    15    1
    18    15    16    1
