@<TRIPOS>MOLECULE
3n5r_HEM_A_1.pdb
 43 50 0 0 0
SMALL
GASTEIGER

@<TRIPOS>ATOM
      1  CHA        9.5450    8.8920   35.4370 C.2   500  HEM500      0.0000
      2  CHB        4.9650    8.8790   33.9380 C.2   500  HEM500      0.0000
      3  CHC        6.0590    7.3120   29.5160 C.2   500  HEM500      0.0000
      4  CHD       10.4310    6.5160   31.3180 C.2   500  HEM500      0.0000
      5  C1A        8.2020    9.1830   35.3580 C.2   500  HEM500      0.0000
      6  C2A        7.4450   10.0680   36.2270 C.2   500  HEM500      0.0000
      7  C3A        6.1710   10.0790   35.8120 C.2   500  HEM500      0.0000
      8  C4A        6.0820    9.2060   34.6510 C.2   500  HEM500      0.0000
      9  CMA        5.0050   10.8770   36.4650 C.3   500  HEM500      0.0000
     10  CAA        8.0300   10.8710   37.4140 C.3   500  HEM500      0.0000
     11  CBA        8.8180   12.0450   36.8310 C.3   500  HEM500      0.0000
     12  CGA        8.7860   13.2780   37.6740 C.2   500  HEM500      0.0000
     13  O1A        8.0320   13.3200   38.6810 O.co2 500  HEM500      0.0000
     14  O2A        9.5230   14.2320   37.3220 O.co2 500  HEM500      0.0000
     15  C1B        4.8760    8.4960   32.6210 C.ar  500  HEM500      0.0000
     16  C2B        3.6650    8.5660   31.8380 C.ar  500  HEM500      0.0000
     17  C3B        3.9570    8.1300   30.6140 C.ar  500  HEM500      0.0000
     18  C4B        5.3580    7.7670   30.6010 C.ar  500  HEM500      0.0000
     19  CMB        2.2830    9.0390   32.3360 C.3   500  HEM500      0.0000
     20  CAB        2.9620    8.0350   29.4260 C.2   500  HEM500      0.0000
     21  CBB        3.0390    7.0550   28.5130 C.2   500  HEM500      0.0000
     22  C1C        7.3870    7.0140   29.5870 C.2   500  HEM500      0.0000
     23  C2C        8.2510    6.6050   28.5020 C.2   500  HEM500      0.0000
     24  C3C        9.4630    6.3980   29.0320 C.2   500  HEM500      0.0000
     25  C4C        9.3990    6.6640   30.4510 C.2   500  HEM500      0.0000
     26  CMC        7.8680    6.4600   27.0140 C.3   500  HEM500      0.0000
     27  CAC       10.7420    5.9590   28.2850 C.2   500  HEM500      0.0000
     28  CBC       10.7100    5.1240   27.2440 C.2   500  HEM500      0.0000
     29  C1D       10.6080    7.0570   32.5540 C.ar  500  HEM500      0.0000
     30  C2D       11.8280    6.9420   33.3230 C.ar  500  HEM500      0.0000
     31  C3D       11.5870    7.6740   34.6100 C.ar  500  HEM500      0.0000
     32  C4D       10.2270    8.1500   34.5030 C.ar  500  HEM500      0.0000
     33  CMD       13.1480    6.2260   32.9490 C.3   500  HEM500      0.0000
     34  CAD       12.6400    7.8110   35.7220 C.3   500  HEM500      0.0000
     35  CBD       13.3260    9.1770   35.6600 C.3   500  HEM500      0.0000
     36  CGD       14.2750    9.3260   36.8520 C.2   500  HEM500      0.0000
     37  O1D       14.9620    8.3270   37.2270 O.co2 500  HEM500      0.0000
     38  O2D       14.3520   10.4530   37.4420 O.co2 500  HEM500      0.0000
     39  NA         7.3330    8.6860   34.4000 N.2   500  HEM500      0.0000
     40  NB         5.8850    8.0080   31.8350 N.ar  500  HEM500      0.0000
     41  NC         8.1180    7.0280   30.7610 N.2   500  HEM500      0.0000
     42  ND         9.6870    7.7560   33.2830 N.ar  500  HEM500      0.0000
     43 FE          7.6400    7.6320   32.6440 Fe    500  HEM500      0.0000
@<TRIPOS>BOND
     1    26    23    1
     2    28    27    2
     3    27    24    1
     4    23    24    2
     5    23    22    1
     6    21    20    2
     7    24    25    1
     8    20    17    1
     9     3    22    2
    10     3    18    1
    11    22    41    1
    12    25    41    2
    13    25     4    1
    14    18    17   ar
    15    18    40   ar
    16    17    16   ar
    17    41    43    1
    18     4    29    2
    19    40    15   ar
    20    40    43    1
    21    16    19    1
    22    16    15   ar
    23    29    42   ar
    24    29    30   ar
    25    15     2    1
    26    43    42    1
    27    43    39    1
    28    33    30    1
    29    42    32   ar
    30    30    31   ar
    31     2     8    2
    32    39     8    1
    33    39     5    2
    34    32    31   ar
    35    32     1    2
    36    31    34    1
    37     8     7    1
    38     5     1    1
    39     5     6    1
    40    35    34    1
    41    35    36    1
    42     7     6    2
    43     7     9    1
    44     6    10    1
    45    11    10    1
    46    11    12    1
    47    36    37   ar
    48    36    38   ar
    49    14    12   ar
    50    12    13   ar
