@<TRIPOS>MOLECULE
3n5r_XFH_A_1.pdb
 26 28 0 0 0
SMALL
GASTEIGER

@<TRIPOS>ATOM
      1  N01        6.8800   12.7800   32.3680 N.2   800  XFH800     -0.3922
      2  C02        6.0420   12.0120   31.6020 C.2   800  XFH800      0.2178
      3  N02        4.7060   12.0050   31.8630 N.pl3 800  XFH800     -0.0932
      4  C03        6.5360   11.2280   30.5510 C.2   800  XFH800      0.0427
      5  C04        7.9010   11.2510   30.2870 C.2   800  XFH800     -0.0333
      6  C05        8.7440   12.0360   31.0770 C.3   800  XFH800      0.0766
      7  C06        8.2280   12.8020   32.1380 C.2   800  XFH800      0.0928
      8  C07        8.4840   10.4410   29.1660 C.3   800  XFH800      0.0269
      9  C08        9.1710   13.6180   33.0240 C.3   800  XFH800      0.0595
     10  C09       10.1600   12.6570   33.7360 C.3   800  XFH800      0.0334
     11  C11       12.5470   15.4100   34.8730 C.ar  800  XFH800     -0.0006
     12  C12       11.4120   14.6800   34.4860 C.ar  800  XFH800     -0.0043
     13  C13       11.4690   13.3210   34.1590 C.ar  800  XFH800     -0.0221
     14  C14       12.7240   12.6560   34.2340 C.ar  800  XFH800     -0.0085
     15  C15       13.8790   13.3860   34.6260 C.ar  800  XFH800     -0.0222
     16  C16       13.7750   14.7500   34.9380 C.ar  800  XFH800     -0.0043
     17  C17       15.2710   12.8030   34.7540 C.3   800  XFH800      0.0307
     18  C18       15.9220   13.3700   36.0320 C.3   800  XFH800      0.0272
     19  C21       17.8940   14.7440   36.8290 C.2   800  XFH800      0.0427
     20  C22       19.2330   15.1540   36.7040 C.2   800  XFH800      0.2178
     21  N22       19.7830   16.0430   37.5780 N.pl3 800  XFH800     -0.0932
     22  N23       20.0240   14.6680   35.7130 N.2   800  XFH800     -0.3922
     23  C24       19.5440   13.7790   34.8090 C.2   800  XFH800      0.0929
     24  C25       18.2120   13.3540   34.8960 C.3   800  XFH800      0.0766
     25  C26       17.3710   13.8320   35.9090 C.2   800  XFH800     -0.0333
     26  C27       20.4560   13.2580   33.7180 C.3   800  XFH800      0.0619
@<TRIPOS>BOND
     1     8     5    1
     2     5     4    2
     3     5     6    1
     4     4     2    1
     5     6     7    1
     6     2     3    1
     7     2     1    2
     8     7     1    2
     9     7     9    1
    10     9    10    1
    11    26    23    1
    12    10    13    1
    13    13    14   ar
    14    13    12   ar
    15    14    15   ar
    16    12    11   ar
    17    15    17    1
    18    15    16   ar
    19    17    18    1
    20    23    24    1
    21    23    22    2
    22    11    16   ar
    23    24    25    1
    24    22    20    2
    25    25    18    1
    26    25    19    2
    27    20    19    1
    28    20    21    1
