@<TRIPOS>MOLECULE
3n5s_HEM_A_1.pdb
 43 50 0 0 0
SMALL
GASTEIGER

@<TRIPOS>ATOM
      1  CHA        9.3390    8.9700   35.3230 C.2   500  HEM500      0.0000
      2  CHB        4.6640    8.9650   33.9540 C.2   500  HEM500      0.0000
      3  CHC        6.0080    7.3640   29.5700 C.2   500  HEM500      0.0000
      4  CHD       10.4400    6.5060   31.2900 C.2   500  HEM500      0.0000
      5  C1A        7.9890    9.2420   35.2640 C.2   500  HEM500      0.0000
      6  C2A        7.2590   10.0600   36.2070 C.2   500  HEM500      0.0000
      7  C3A        5.9670   10.0740   35.8460 C.2   500  HEM500      0.0000
      8  C4A        5.8270    9.2590   34.6490 C.2   500  HEM500      0.0000
      9  CMA        4.8130   10.8250   36.5530 C.3   500  HEM500      0.0000
     10  CAA        7.9260   10.8010   37.3910 C.3   500  HEM500      0.0000
     11  CBA        8.4150   12.1100   36.7640 C.3   500  HEM500      0.0000
     12  CGA        8.6750   13.2290   37.7390 C.2   500  HEM500      0.0000
     13  O1A        7.9620   13.3160   38.7800 O.co2 500  HEM500      0.0000
     14  O2A        9.6030   14.0490   37.4500 O.co2 500  HEM500      0.0000
     15  C1B        4.6100    8.5670   32.6310 C.ar  500  HEM500      0.0000
     16  C2B        3.4390    8.5870   31.7790 C.ar  500  HEM500      0.0000
     17  C3B        3.8060    8.1350   30.5880 C.ar  500  HEM500      0.0000
     18  C4B        5.2340    7.8250   30.6250 C.ar  500  HEM500      0.0000
     19  CMB        2.0000    9.0320   32.1800 C.3   500  HEM500      0.0000
     20  CAB        2.8770    8.0010   29.3610 C.2   500  HEM500      0.0000
     21  CBB        3.0870    7.0180   28.4660 C.2   500  HEM500      0.0000
     22  C1C        7.3610    7.0940   29.6160 C.2   500  HEM500      0.0000
     23  C2C        8.2290    6.7390   28.5000 C.2   500  HEM500      0.0000
     24  C3C        9.4480    6.4840   28.9980 C.2   500  HEM500      0.0000
     25  C4C        9.3970    6.6790   30.4280 C.2   500  HEM500      0.0000
     26  CMC        7.8310    6.6600   27.0060 C.3   500  HEM500      0.0000
     27  CAC       10.7200    6.0890   28.2130 C.2   500  HEM500      0.0000
     28  CBC       10.6500    5.2080   27.2080 C.2   500  HEM500      0.0000
     29  C1D       10.6020    7.1500   32.4860 C.ar  500  HEM500      0.0000
     30  C2D       11.8430    7.2870   33.2150 C.ar  500  HEM500      0.0000
     31  C3D       11.4910    8.0560   34.4650 C.ar  500  HEM500      0.0000
     32  C4D       10.0810    8.2920   34.3800 C.ar  500  HEM500      0.0000
     33  CMD       13.2690    6.8160   32.8370 C.3   500  HEM500      0.0000
     34  CAD       12.5010    8.4800   35.5610 C.3   500  HEM500      0.0000
     35  CBD       13.0110    9.8490   35.1370 C.3   500  HEM500      0.0000
     36  CGD       13.9320   10.4720   36.1520 C.2   500  HEM500      0.0000
     37  O1D       14.3770    9.8190   37.1490 O.co2 500  HEM500      0.0000
     38  O2D       14.2260   11.6780   35.9260 O.co2 500  HEM500      0.0000
     39  NA         7.0750    8.7310   34.3660 N.2   500  HEM500      0.0000
     40  NB         5.6770    8.0500   31.9140 N.ar  500  HEM500      0.0000
     41  NC         8.1100    6.9990   30.7740 N.2   500  HEM500      0.0000
     42  ND         9.5750    7.6920   33.2230 N.ar  500  HEM500      0.0000
     43 FE          7.5800    7.7710   32.5950 Fe    500  HEM500      0.0000
@<TRIPOS>BOND
     1    26    23    1
     2    28    27    2
     3    27    24    1
     4    21    20    2
     5    23    24    2
     6    23    22    1
     7    24    25    1
     8    20    17    1
     9     3    22    2
    10     3    18    1
    11    22    41    1
    12    25    41    2
    13    25     4    1
    14    17    18   ar
    15    17    16   ar
    16    18    40   ar
    17    41    43    1
    18     4    29    2
    19    16    19    1
    20    16    15   ar
    21    40    43    1
    22    40    15   ar
    23    29    30   ar
    24    29    42   ar
    25    43    42    1
    26    43    39    1
    27    15     2    1
    28    33    30    1
    29    30    31   ar
    30    42    32   ar
    31     2     8    2
    32    39     8    1
    33    39     5    2
    34    32    31   ar
    35    32     1    2
    36    31    34    1
    37     8     7    1
    38    35    34    1
    39    35    36    1
    40     5     1    1
    41     5     6    1
    42     7     6    2
    43     7     9    1
    44    38    36   ar
    45    36    37   ar
    46     6    10    1
    47    11    10    1
    48    11    12    1
    49    14    12   ar
    50    12    13   ar
