@<TRIPOS>MOLECULE
3n5s_H4B_A_1.pdb
 17 18 0 0 0
SMALL
GASTEIGER

@<TRIPOS>ATOM
      1  N1         8.4240   11.6930   43.0960 N.2   600  H4B600     -0.2683
      2  C2         8.3290   12.0890   41.8100 C.1   600  H4B600      0.2608
      3  N2         7.4740   11.4530   40.9900 N.pl3 600  H4B600     -0.0220
      4  N3         9.0810   13.1190   41.3550 N.2   600  H4B600     -0.2474
      5  C4         9.9670   13.7510   42.1610 C.1   600  H4B600      0.2441
      6  O4        10.6570   14.7030   41.6990 O.2   600  H4B600     -0.2063
      7  C4A       10.0670   13.3540   43.4920 C.2   600  H4B600      0.2463
      8  C8A        9.2820   12.2990   43.9440 C.1   600  H4B600      0.1270
      9  N5        10.9340   13.9330   44.3590 N.2   600  H4B600     -0.2460
     10  N8         9.3520   11.8600   45.2250 N.2   600  H4B600     -0.2054
     11  C6        11.4320   13.0690   45.4430 C.3   600  H4B600      0.1627
     12  C7        10.2560   12.4620   46.2120 C.3   600  H4B600      0.1643
     13  C9        12.3630   13.8420   46.3720 C.3   600  H4B600      0.2063
     14  O9        11.7540   15.0840   46.7260 O.3   600  H4B600     -0.2183
     15  C10       12.7100   13.0710   47.6540 C.3   600  H4B600      0.1842
     16  C11       13.5680   13.9220   48.5690 C.3   600  H4B600      0.0383
     17  O10       13.4090   11.8670   47.3300 O.3   600  H4B600     -0.2204
@<TRIPOS>BOND
     1     3     2    1
     2     4     2    2
     3     4     5    2
     4     6     5    2
     5     2     1    2
     6     5     7    1
     7     1     8    2
     8     7     8    1
     9     7     9    2
    10     8    10    2
    11     9    11    1
    12    10    12    1
    13    11    12    1
    14    11    13    1
    15    13    14    1
    16    13    15    1
    17    17    15    1
    18    15    16    1
