@<TRIPOS>MOLECULE
3n5s_XFK_A_1.pdb
 26 28 0 0 0
SMALL
GASTEIGER

@<TRIPOS>ATOM
      1  N01        6.9240   12.4640   32.6410 N.2   800  XFK800     -0.3924
      2  C02        6.1130   11.8930   31.7270 C.2   800  XFK800      0.2001
      3  N02        4.7830   11.9590   31.9340 N.pl3 800  XFK800     -0.0977
      4  C03        6.6410   11.2300   30.5930 C.3   800  XFK800      0.1001
      5  C04        8.0250   11.1720   30.4240 C.2   800  XFK800     -0.0332
      6  C05        8.8450   11.7780   31.3900 C.2   800  XFK800      0.0196
      7  C06        8.2690   12.4250   32.4990 C.2   800  XFK800      0.1100
      8  C07        8.6350   10.4670   29.2220 C.3   800  XFK800      0.0269
      9  C08        9.1120   13.0770   33.5900 C.3   800  XFK800      0.0637
     10  C09       10.0670   14.1250   33.0620 C.3   800  XFK800      0.0353
     11  N11       10.8450   16.9060   35.4720 N.ar  800  XFK800     -0.2430
     12  C12       10.2960   16.1750   34.4840 C.ar  800  XFK800      0.0946
     13  C13       10.7440   14.8810   34.1880 C.ar  800  XFK800     -0.0029
     14  C14       11.8000   14.3360   34.9100 C.ar  800  XFK800     -0.0054
     15  C15       12.3590   15.1290   35.9240 C.ar  800  XFK800     -0.0030
     16  C16       11.8650   16.4100   36.1860 C.ar  800  XFK800      0.0946
     17  C17       13.4890   14.6110   36.7790 C.3   800  XFK800      0.0323
     18  C18       14.8510   15.0060   36.2170 C.3   800  XFK800      0.0273
     19  C21       15.9480   12.9610   37.2090 C.2   800  XFK800      0.0427
     20  C22       16.8430   12.3410   38.0720 C.2   800  XFK800      0.2178
     21  N22       16.9250   10.9790   38.0740 N.pl3 800  XFK800     -0.0932
     22  N23       17.6130   13.1250   38.8910 N.2   800  XFK800     -0.3922
     23  C24       17.5190   14.4900   38.8620 C.2   800  XFK800      0.0929
     24  C25       16.6280   15.1340   38.0080 C.3   800  XFK800      0.0766
     25  C26       15.8380   14.3570   37.1650 C.2   800  XFK800     -0.0333
     26  C27       18.3740   15.3380   39.7590 C.3   800  XFK800      0.0619
@<TRIPOS>BOND
     1     8     5    1
     2     5     4    1
     3     5     6    2
     4     4     2    1
     5     6     7    1
     6     2     3    1
     7     2     1    2
     8     7     1    2
     9     7     9    1
    10    10     9    1
    11    10    13    1
    12    13    12   ar
    13    13    14   ar
    14    12    11   ar
    15    14    15   ar
    16    11    16   ar
    17    15    16   ar
    18    15    17    1
    19    18    17    1
    20    18    25    1
    21    25    19    2
    22    25    24    1
    23    19    20    1
    24    24    23    1
    25    20    21    1
    26    20    22    2
    27    23    22    2
    28    23    26    1
