@<TRIPOS>MOLECULE
3n5t_H4B_A_1.pdb
 17 18 0 0 0
SMALL
GASTEIGER

@<TRIPOS>ATOM
      1  N1         8.4540   11.8220   43.0150 N.2   600  H4B600     -0.2683
      2  C2         8.3750   12.2190   41.7350 C.1   600  H4B600      0.2608
      3  N2         7.5390   11.5750   40.8750 N.pl3 600  H4B600     -0.0220
      4  N3         9.1360   13.2500   41.3030 N.2   600  H4B600     -0.2474
      5  C4         9.9760   13.9030   42.1320 C.1   600  H4B600      0.2441
      6  O4        10.6590   14.8590   41.6750 O.2   600  H4B600     -0.2063
      7  C4A       10.0420   13.5130   43.4650 C.2   600  H4B600      0.2463
      8  C8A        9.2500   12.4400   43.8780 C.1   600  H4B600      0.1270
      9  N5        10.8880   14.1020   44.3710 N.2   600  H4B600     -0.2460
     10  N8         9.2770   11.9840   45.1500 N.2   600  H4B600     -0.2054
     11  C6        11.3670   13.2010   45.4320 C.3   600  H4B600      0.1627
     12  C7        10.1410   12.6070   46.1560 C.3   600  H4B600      0.1643
     13  C9        12.3600   13.8820   46.3810 C.3   600  H4B600      0.2063
     14  O9        11.9490   15.2170   46.6920 O.3   600  H4B600     -0.2183
     15  C10       12.5050   13.0960   47.6880 C.3   600  H4B600      0.1842
     16  C11       13.3520   13.8020   48.7180 C.3   600  H4B600      0.0383
     17  O10       13.0360   11.7920   47.4200 O.3   600  H4B600     -0.2204
@<TRIPOS>BOND
     1     3     2    1
     2     4     2    2
     3     4     5    2
     4     6     5    2
     5     2     1    2
     6     5     7    1
     7     1     8    2
     8     7     8    1
     9     7     9    2
    10     8    10    2
    11     9    11    1
    12    10    12    1
    13    11    12    1
    14    11    13    1
    15    13    14    1
    16    13    15    1
    17    17    15    1
    18    15    16    1
