@<TRIPOS>MOLECULE
3n5t_HEM_A_1.pdb
 43 50 0 0 0
SMALL
GASTEIGER

@<TRIPOS>ATOM
      1  CHA        9.3000    9.1810   35.2730 C.2   500  HEM500      0.0000
      2  CHB        4.6660    9.0950   33.9460 C.2   500  HEM500      0.0000
      3  CHC        5.8310    7.4250   29.5580 C.2   500  HEM500      0.0000
      4  CHD       10.2710    6.7070   31.2150 C.2   500  HEM500      0.0000
      5  C1A        7.9470    9.4160   35.2410 C.2   500  HEM500      0.0000
      6  C2A        7.1780   10.1710   36.2090 C.2   500  HEM500      0.0000
      7  C3A        5.8800   10.1490   35.8460 C.2   500  HEM500      0.0000
      8  C4A        5.8050    9.3720   34.6390 C.2   500  HEM500      0.0000
      9  CMA        4.6710   10.8300   36.5610 C.3   500  HEM500      0.0000
     10  CAA        7.7930   10.8970   37.4220 C.3   500  HEM500      0.0000
     11  CBA        8.4810   12.1250   36.8190 C.3   500  HEM500      0.0000
     12  CGA        8.7350   13.2650   37.7830 C.2   500  HEM500      0.0000
     13  O1A        8.1950   13.2180   38.9180 O.co2 500  HEM500      0.0000
     14  O2A        9.4670   14.2340   37.3900 O.co2 500  HEM500      0.0000
     15  C1B        4.6210    8.6430   32.6520 C.ar  500  HEM500      0.0000
     16  C2B        3.3990    8.5840   31.8840 C.ar  500  HEM500      0.0000
     17  C3B        3.6830    8.1150   30.6800 C.ar  500  HEM500      0.0000
     18  C4B        5.1180    7.8730   30.6490 C.ar  500  HEM500      0.0000
     19  CMB        2.0250    8.9890   32.4250 C.3   500  HEM500      0.0000
     20  CAB        2.6550    7.9180   29.5460 C.2   500  HEM500      0.0000
     21  CBB        2.9290    7.2520   28.4200 C.2   500  HEM500      0.0000
     22  C1C        7.1620    7.1430   29.5890 C.2   500  HEM500      0.0000
     23  C2C        7.9960    6.7160   28.4780 C.2   500  HEM500      0.0000
     24  C3C        9.2420    6.5220   28.9800 C.2   500  HEM500      0.0000
     25  C4C        9.2000    6.8280   30.3870 C.2   500  HEM500      0.0000
     26  CMC        7.5560    6.5520   27.0000 C.3   500  HEM500      0.0000
     27  CAC       10.5440    6.0840   28.2650 C.2   500  HEM500      0.0000
     28  CBC       10.5730    5.3780   27.1370 C.2   500  HEM500      0.0000
     29  C1D       10.4460    7.2970   32.4260 C.ar  500  HEM500      0.0000
     30  C2D       11.6790    7.3160   33.1580 C.ar  500  HEM500      0.0000
     31  C3D       11.3830    8.0830   34.4200 C.ar  500  HEM500      0.0000
     32  C4D       10.0030    8.4580   34.3270 C.ar  500  HEM500      0.0000
     33  CMD       13.0410    6.7100   32.7570 C.3   500  HEM500      0.0000
     34  CAD       12.3890    8.4070   35.5300 C.3   500  HEM500      0.0000
     35  CBD       12.8920    9.7910   35.1390 C.3   500  HEM500      0.0000
     36  CGD       13.9630   10.2700   36.0760 C.2   500  HEM500      0.0000
     37  O1D       14.4560    9.4600   36.9210 O.co2 500  HEM500      0.0000
     38  O2D       14.3160   11.4760   35.9400 O.co2 500  HEM500      0.0000
     39  NA         7.0750    8.9370   34.2880 N.2   500  HEM500      0.0000
     40  NB         5.6670    8.2080   31.8720 N.ar  500  HEM500      0.0000
     41  NC         7.9180    7.2000   30.7330 N.2   500  HEM500      0.0000
     42  ND         9.4900    7.9660   33.1320 N.ar  500  HEM500      0.0000
     43 FE          7.5070    7.7740   32.6270 Fe    500  HEM500      0.0000
@<TRIPOS>BOND
     1    26    23    1
     2    28    27    2
     3    27    24    1
     4    21    20    2
     5    23    24    2
     6    23    22    1
     7    24    25    1
     8    20    17    1
     9     3    22    2
    10     3    18    1
    11    22    41    1
    12    25    41    2
    13    25     4    1
    14    18    17   ar
    15    18    40   ar
    16    17    16   ar
    17    41    43    1
    18     4    29    2
    19    40    43    1
    20    40    15   ar
    21    16    19    1
    22    16    15   ar
    23    29    42   ar
    24    29    30   ar
    25    43    42    1
    26    43    39    1
    27    15     2    1
    28    33    30    1
    29    42    32   ar
    30    30    31   ar
    31     2     8    2
    32    39     8    1
    33    39     5    2
    34    32    31   ar
    35    32     1    2
    36    31    34    1
    37     8     7    1
    38    35    34    1
    39    35    36    1
    40     5     1    1
    41     5     6    1
    42     7     6    2
    43     7     9    1
    44    38    36   ar
    45    36    37   ar
    46     6    10    1
    47    11    10    1
    48    11    12    1
    49    14    12   ar
    50    12    13   ar
