@<TRIPOS>MOLECULE
3n5t_XFJ_A_1.pdb
 26 28 0 0 0
SMALL
GASTEIGER

@<TRIPOS>ATOM
      1  N01        6.5960   12.5170   32.4910 N.2   800  XFJ800     -0.3924
      2  C02        5.8330   11.7730   31.6680 C.2   800  XFJ800      0.2001
      3  N02        4.4900   11.7600   31.9290 N.pl3 800  XFJ800     -0.0977
      4  C03        6.4380   11.0740   30.6070 C.3   800  XFJ800      0.1001
      5  C04        7.8350   11.1670   30.4410 C.2   800  XFJ800     -0.0332
      6  C05        8.5810   11.9400   31.3340 C.2   800  XFJ800      0.0196
      7  C06        7.9280   12.6220   32.3670 C.2   800  XFJ800      0.1100
      8  C07        8.5420   10.4400   29.3190 C.3   800  XFJ800      0.0269
      9  C08        8.6100   13.5000   33.4010 C.3   800  XFJ800      0.0637
     10  C09       10.1130   13.6630   33.1970 C.3   800  XFJ800      0.0353
     11  N11       10.8780   16.7520   35.2540 N.ar  800  XFJ800     -0.2430
     12  C12       10.3240   15.9250   34.3420 C.ar  800  XFJ800      0.0946
     13  C13       10.7440   14.5950   34.2140 C.ar  800  XFJ800     -0.0029
     14  C14       11.7650   14.1320   35.0320 C.ar  800  XFJ800     -0.0054
     15  C15       12.3360   15.0010   35.9680 C.ar  800  XFJ800     -0.0029
     16  C16       11.8740   16.3190   36.0550 C.ar  800  XFJ800      0.0946
     17  C17       13.4220   14.5010   36.8900 C.3   800  XFJ800      0.0353
     18  C18       14.7340   15.1790   36.5480 C.3   800  XFJ800      0.0637
     19  N21       15.9140   13.1220   37.2910 N.2   800  XFJ800     -0.3924
     20  C22       16.8730   12.4380   37.9610 C.2   800  XFJ800      0.2001
     21  N22       16.9340   11.0780   37.8710 N.pl3 800  XFJ800     -0.0977
     22  C23       17.7650   13.1640   38.7600 C.3   800  XFJ800      0.1001
     23  C24       17.6650   14.5640   38.8400 C.2   800  XFJ800     -0.0332
     24  C25       16.6800   15.2390   38.1200 C.2   800  XFJ800      0.0196
     25  C26       15.8070   14.4830   37.3440 C.2   800  XFJ800      0.1100
     26  C27       18.6240   15.3580   39.6930 C.3   800  XFJ800      0.0269
@<TRIPOS>BOND
     1     8     5    1
     2     5     4    1
     3     5     6    2
     4     4     2    1
     5     6     7    1
     6     2     3    1
     7     2     1    2
     8     7     1    2
     9     7     9    1
    10    10     9    1
    11    10    13    1
    12    13    12   ar
    13    13    14   ar
    14    12    11   ar
    15    14    15   ar
    16    11    16   ar
    17    15    16   ar
    18    15    17    1
    19    18    17    1
    20    18    25    1
    21    19    25    2
    22    19    20    2
    23    25    24    1
    24    21    20    1
    25    20    22    1
    26    24    23    2
    27    22    23    1
    28    23    26    1
