@<TRIPOS>MOLECULE
3n5v_HEM_A_1.pdb
 43 50 0 0 0
SMALL
GASTEIGER

@<TRIPOS>ATOM
      1  CHA       12.8690    5.0070   27.1090 C.2   750  HEM750      0.0000
      2  CHB       16.4680    1.8500   26.5620 C.2   750  HEM750      0.0000
      3  CHC       17.5040    3.5350   22.1360 C.2   750  HEM750      0.0000
      4  CHD       14.4690    7.2300   23.0310 C.2   750  HEM750      0.0000
      5  C1A       13.6420    3.8900   27.2510 C.2   750  HEM750      0.0000
      6  C2A       13.4550    2.8290   28.2350 C.2   750  HEM750      0.0000
      7  C3A       14.4460    1.9630   28.0650 C.2   750  HEM750      0.0000
      8  C4A       15.2990    2.4640   26.9990 C.2   750  HEM750      0.0000
      9  CMA       14.6430    0.6390   28.8600 C.3   750  HEM750      0.0000
     10  CAA       12.2830    2.6600   29.2620 C.3   750  HEM750      0.0000
     11  CBA       11.6200    1.3600   28.8120 C.3   750  HEM750      0.0000
     12  CGA       10.2260    1.1630   29.3300 C.2   750  HEM750      0.0000
     13  O1A       10.0920    0.4430   30.3680 O.co2 750  HEM750      0.0000
     14  O2A        9.2770    1.6860   28.6580 O.co2 750  HEM750      0.0000
     15  C1B       17.0290    2.0050   25.3330 C.ar  750  HEM750      0.0000
     16  C2B       18.0730    1.1670   24.8010 C.ar  750  HEM750      0.0000
     17  C3B       18.3750    1.6220   23.5720 C.ar  750  HEM750      0.0000
     18  C4B       17.5310    2.7820   23.3150 C.ar  750  HEM750      0.0000
     19  CMB       18.6900   -0.0340   25.5410 C.3   750  HEM750      0.0000
     20  CAB       19.4350    1.0010   22.6270 C.2   750  HEM750      0.0000
     21  CBB       20.0050    1.7030   21.6330 C.2   750  HEM750      0.0000
     22  C1C       16.7230    4.6600   21.9610 C.2   750  HEM750      0.0000
     23  C2C       16.6970    5.4790   20.7580 C.2   750  HEM750      0.0000
     24  C3C       15.8550    6.4830   21.0520 C.2   750  HEM750      0.0000
     25  C4C       15.3400    6.3500   22.3960 C.2   750  HEM750      0.0000
     26  CMC       17.4740    5.1710   19.4200 C.3   750  HEM750      0.0000
     27  CAC       15.4170    7.6350   20.1670 C.2   750  HEM750      0.0000
     28  CBC       16.2040    7.9720   19.1780 C.2   750  HEM750      0.0000
     29  C1D       13.7350    6.9840   24.1900 C.ar  750  HEM750      0.0000
     30  C2D       12.6820    7.8230   24.7210 C.ar  750  HEM750      0.0000
     31  C3D       12.2130    7.1110   25.9880 C.ar  750  HEM750      0.0000
     32  C4D       13.0060    5.9240   26.0950 C.ar  750  HEM750      0.0000
     33  CMD       12.1330    9.1570   24.1740 C.3   750  HEM750      0.0000
     34  CAD       11.1170    7.5140   26.9770 C.3   750  HEM750      0.0000
     35  CBD        9.7570    7.6900   26.3090 C.3   750  HEM750      0.0000
     36  CGD        8.7870    8.0300   27.4160 C.2   750  HEM750      0.0000
     37  O1D        8.7300    9.2360   27.8580 O.co2 750  HEM750      0.0000
     38  O2D        8.0970    7.0550   27.8360 O.co2 750  HEM750      0.0000
     39  NA        14.8170    3.6870   26.5610 N.2   750  HEM750      0.0000
     40  NB        16.7760    3.0350   24.4470 N.ar  750  HEM750      0.0000
     41  NC        15.9260    5.2530   22.9440 N.2   750  HEM750      0.0000
     42  ND        13.9430    5.9310   25.0760 N.ar  750  HEM750      0.0000
     43 FE         15.4500    4.5470   24.8470 Fe    750  HEM750      0.0000
@<TRIPOS>BOND
     1    28    27    2
     2    26    23    1
     3    27    24    1
     4    23    24    2
     5    23    22    1
     6    24    25    1
     7    21    20    2
     8    22     3    2
     9    22    41    1
    10     3    18    1
    11    25    41    2
    12    25     4    1
    13    20    17    1
    14    41    43    1
    15     4    29    2
    16    18    17   ar
    17    18    40   ar
    18    17    16   ar
    19    33    30    1
    20    29    30   ar
    21    29    42   ar
    22    40    43    1
    23    40    15   ar
    24    30    31   ar
    25    16    15   ar
    26    16    19    1
    27    43    42    1
    28    43    39    1
    29    42    32   ar
    30    15     2    1
    31    31    32   ar
    32    31    34    1
    33    32     1    2
    34    35    34    1
    35    35    36    1
    36    39     8    1
    37    39     5    2
    38     2     8    2
    39     8     7    1
    40     1     5    1
    41     5     6    1
    42    36    38   ar
    43    36    37   ar
    44     7     6    2
    45     7     9    1
    46     6    10    1
    47    14    12   ar
    48    11    10    1
    49    11    12    1
    50    12    13   ar
