@<TRIPOS>MOLECULE
3n5v_XFH_A_1.pdb
 26 28 0 0 0
SMALL
GASTEIGER

@<TRIPOS>ATOM
      1  N01       13.1160    0.0330   24.1990 N.2   800  XFH800     -0.3922
      2  C02       14.3670    0.1310   23.7090 C.2   800  XFH800      0.2178
      3  N02       15.3190   -0.6120   24.2760 N.pl3 800  XFH800     -0.0932
      4  C03       14.7010    0.9720   22.6400 C.2   800  XFH800      0.0427
      5  C04       13.6880    1.7260   22.0560 C.2   800  XFH800     -0.0333
      6  C05       12.3860    1.6260   22.5570 C.3   800  XFH800      0.0766
      7  C06       12.1060    0.7760   23.6550 C.2   800  XFH800      0.0928
      8  C07       13.9640    2.6590   20.9080 C.3   800  XFH800      0.0269
      9  C08       10.6700    0.6670   24.1780 C.3   800  XFH800      0.0595
     10  C09       10.4700    1.6730   25.2810 C.3   800  XFH800      0.0334
     11  C11       10.0500    5.2290   24.0130 C.ar  800  XFH800     -0.0006
     12  C12       10.6270    4.0190   24.4260 C.ar  800  XFH800     -0.0043
     13  C13        9.8150    2.9550   24.8170 C.ar  800  XFH800     -0.0221
     14  C14        8.4120    3.0990   24.8040 C.ar  800  XFH800     -0.0085
     15  C15        7.8100    4.3040   24.3880 C.ar  800  XFH800     -0.0222
     16  C16        8.6480    5.3640   23.9960 C.ar  800  XFH800     -0.0043
     17  C17        6.2860    4.4320   24.3480 C.3   800  XFH800      0.0307
     18  C18        5.7480    5.8570   24.5280 C.3   800  XFH800      0.0272
     19  C21        3.3570    6.6850   24.3590 C.2   800  XFH800      0.0427
     20  C22        2.0340    6.7360   24.8260 C.2   800  XFH800      0.2178
     21  N22        1.0990    7.4810   24.1870 N.pl3 800  XFH800     -0.0932
     22  N23        1.6620    6.0350   25.9270 N.2   800  XFH800     -0.3922
     23  C24        2.5530    5.2710   26.6200 C.2   800  XFH800      0.0929
     24  C25        3.8930    5.1930   26.1910 C.3   800  XFH800      0.0766
     25  C26        4.3050    5.9010   25.0400 C.2   800  XFH800     -0.0333
     26  C27        2.0690    4.5190   27.8410 C.3   800  XFH800      0.0619
@<TRIPOS>BOND
     1     8     5    1
     2     5     6    1
     3     5     4    2
     4     6     7    1
     5     4     2    1
     6     7     9    1
     7     7     1    2
     8     2     1    2
     9     2     3    1
    10    16    11   ar
    11    16    15   ar
    12    11    12   ar
    13     9    10    1
    14    21    20    1
    15    17    15    1
    16    17    18    1
    17    19    20    1
    18    19    25    2
    19    15    14   ar
    20    12    13   ar
    21    18    25    1
    22    14    13   ar
    23    13    10    1
    24    20    22    2
    25    25    24    1
    26    22    23    2
    27    24    23    1
    28    23    26    1
