@<TRIPOS>MOLECULE
3n5v_H4B_A_1.pdb
 17 18 0 0 0
SMALL
GASTEIGER

@<TRIPOS>ATOM
      1  N1         9.5620    2.6110   34.2840 N.2   760  H4B760     -0.2683
      2  C2         9.7210    2.1270   33.0400 C.1   760  H4B760      0.2608
      3  N2        10.9930    1.9000   32.5960 N.pl3 760  H4B760     -0.0220
      4  N3         8.6260    1.8890   32.2640 N.2   760  H4B760     -0.2474
      5  C4         7.3620    2.1100   32.7120 C.1   760  H4B760      0.2441
      6  O4         6.3980    1.8560   31.9350 O.2   760  H4B760     -0.2063
      7  C4A        7.1930    2.6180   34.0060 C.2   760  H4B760      0.2463
      8  C8A        8.3390    2.8680   34.7750 C.1   760  H4B760      0.1270
      9  N5         5.9790    2.8760   34.5470 N.2   760  H4B760     -0.2460
     10  N8         8.2950    3.3450   36.0450 N.2   760  H4B760     -0.2054
     11  C6         5.9210    3.8240   35.6730 C.3   760  H4B760      0.1627
     12  C7         7.0350    3.6400   36.7070 C.3   760  H4B760      0.1643
     13  C9         4.6010    3.7830   36.4240 C.3   760  H4B760      0.2063
     14  O9         4.4670    2.4550   36.9140 O.3   760  H4B760     -0.2183
     15  C10        4.5720    4.7550   37.5950 C.3   760  H4B760      0.1842
     16  C11        3.1780    4.8270   38.2010 C.3   760  H4B760      0.0383
     17  O10        4.9360    6.0720   37.1700 O.3   760  H4B760     -0.2204
@<TRIPOS>BOND
     1     6     5    2
     2     4     5    2
     3     4     2    2
     4     3     2    1
     5     5     7    1
     6     2     1    2
     7     7     9    2
     8     7     8    1
     9     1     8    2
    10     9    11    1
    11     8    10    2
    12    11    13    1
    13    11    12    1
    14    10    12    1
    15    13    14    1
    16    13    15    1
    17    17    15    1
    18    15    16    1
