@<TRIPOS>MOLECULE
3n5w_HEM_A_1.pdb
 43 50 0 0 0
SMALL
GASTEIGER

@<TRIPOS>ATOM
      1  CHA       13.0590    4.7440   26.5420 C.2   750  HEM750      0.0000
      2  CHB       16.8120    1.7110   26.1280 C.2   750  HEM750      0.0000
      3  CHC       17.7900    3.5740   21.7980 C.2   750  HEM750      0.0000
      4  CHD       14.8220    7.3090   22.7100 C.2   750  HEM750      0.0000
      5  C1A       13.8900    3.6620   26.7490 C.2   750  HEM750      0.0000
      6  C2A       13.7000    2.6090   27.7390 C.2   750  HEM750      0.0000
      7  C3A       14.7450    1.7680   27.6240 C.2   750  HEM750      0.0000
      8  C4A       15.6040    2.2470   26.5450 C.2   750  HEM750      0.0000
      9  CMA       15.0480    0.4900   28.4440 C.3   750  HEM750      0.0000
     10  CAA       12.5010    2.5600   28.7340 C.3   750  HEM750      0.0000
     11  CBA       11.6140    1.3240   28.5250 C.3   750  HEM750      0.0000
     12  CGA       11.0200    0.8680   29.8420 C.2   750  HEM750      0.0000
     13  O1A       11.2620    1.5340   30.8910 O.co2 750  HEM750      0.0000
     14  O2A       10.3080   -0.1780   29.8560 O.co2 750  HEM750      0.0000
     15  C1B       17.3990    1.9030   24.9040 C.ar  750  HEM750      0.0000
     16  C2B       18.4440    1.1000   24.3080 C.ar  750  HEM750      0.0000
     17  C3B       18.7190    1.5950   23.0970 C.ar  750  HEM750      0.0000
     18  C4B       17.8510    2.7450   22.9040 C.ar  750  HEM750      0.0000
     19  CMB       19.0650   -0.1430   24.9830 C.3   750  HEM750      0.0000
     20  CAB       19.7760    1.0030   22.1340 C.2   750  HEM750      0.0000
     21  CBB       20.4070    1.7300   21.2150 C.2   750  HEM750      0.0000
     22  C1C       17.0240    4.7160   21.6320 C.2   750  HEM750      0.0000
     23  C2C       16.9920    5.5130   20.4260 C.2   750  HEM750      0.0000
     24  C3C       16.1840    6.5740   20.6660 C.2   750  HEM750      0.0000
     25  C4C       15.6880    6.4570   22.0240 C.2   750  HEM750      0.0000
     26  CMC       17.7660    5.1180   19.1330 C.3   750  HEM750      0.0000
     27  CAC       15.7930    7.7400   19.7220 C.2   750  HEM750      0.0000
     28  CBC       16.5540    8.1240   18.6860 C.2   750  HEM750      0.0000
     29  C1D       14.0200    6.9280   23.7910 C.ar  750  HEM750      0.0000
     30  C2D       12.8600    7.6430   24.2510 C.ar  750  HEM750      0.0000
     31  C3D       12.3120    6.8440   25.4090 C.ar  750  HEM750      0.0000
     32  C4D       13.1950    5.7150   25.5700 C.ar  750  HEM750      0.0000
     33  CMD       12.2450    8.9590   23.6730 C.3   750  HEM750      0.0000
     34  CAD       11.0420    7.1940   26.2170 C.3   750  HEM750      0.0000
     35  CBD        9.9340    6.5140   25.3940 C.3   750  HEM750      0.0000
     36  CGD        8.5360    6.7710   25.9190 C.2   750  HEM750      0.0000
     37  O1D        8.3130    7.8360   26.5530 O.co2 750  HEM750      0.0000
     38  O2D        7.6340    5.9020   25.6720 O.co2 750  HEM750      0.0000
     39  NA        15.0830    3.4390   26.1010 N.2   750  HEM750      0.0000
     40  NB        17.1280    2.9510   24.0700 N.ar  750  HEM750      0.0000
     41  NC        16.2700    5.3560   22.5980 N.2   750  HEM750      0.0000
     42  ND        14.2380    5.8360   24.6430 N.ar  750  HEM750      0.0000
     43 FE         15.7740    4.4850   24.4440 Fe    750  HEM750      0.0000
@<TRIPOS>BOND
     1    28    27    2
     2    26    23    1
     3    27    24    1
     4    23    24    2
     5    23    22    1
     6    24    25    1
     7    21    20    2
     8    22     3    2
     9    22    41    1
    10     3    18    1
    11    25    41    2
    12    25     4    1
    13    20    17    1
    14    41    43    1
    15     4    29    2
    16    18    17   ar
    17    18    40   ar
    18    17    16   ar
    19    33    30    1
    20    29    30   ar
    21    29    42   ar
    22    40    43    1
    23    40    15   ar
    24    30    31   ar
    25    16    15   ar
    26    16    19    1
    27    43    42    1
    28    43    39    1
    29    42    32   ar
    30    15     2    1
    31    35    36    1
    32    35    34    1
    33    31    32   ar
    34    31    34    1
    35    32     1    2
    36    38    36   ar
    37    36    37   ar
    38    39     8    1
    39    39     5    2
    40     2     8    2
    41     1     5    1
    42     8     7    1
    43     5     6    1
    44     7     6    2
    45     7     9    1
    46     6    10    1
    47    11    10    1
    48    11    12    1
    49    12    14   ar
    50    12    13   ar
