@<TRIPOS>MOLECULE
3n5w_XFJ_A_1.pdb
 26 28 0 0 0
SMALL
GASTEIGER

@<TRIPOS>ATOM
      1  N01       13.3080    0.5810   24.2220 N.2   800  XFJ800     -0.3922
      2  C02       14.4420    0.3840   23.5050 C.2   800  XFJ800      0.2178
      3  N02       15.2880   -0.6130   23.8750 N.pl3 800  XFJ800     -0.0932
      4  C03       14.7220    1.1930   22.3970 C.2   800  XFJ800      0.0427
      5  C04       13.8290    2.2080   22.0590 C.2   800  XFJ800     -0.0333
      6  C05       12.6610    2.3780   22.8100 C.3   800  XFJ800      0.0766
      7  C06       12.4120    1.5520   23.9150 C.2   800  XFJ800      0.0928
      8  C07       14.0920    3.1140   20.8640 C.3   800  XFJ800      0.0269
      9  C08       11.1540    1.7020   24.7680 C.3   800  XFJ800      0.0595
     10  C09        9.8740    1.7000   23.9380 C.3   800  XFJ800      0.0350
     11  N11        6.9870   -0.1230   25.5500 N.ar  800  XFJ800     -0.2430
     12  C12        8.0780    0.1640   24.8150 C.ar  800  XFJ800      0.0946
     13  C13        8.6240    1.4520   24.7860 C.ar  800  XFJ800     -0.0029
     14  C14        8.0110    2.4780   25.5060 C.ar  800  XFJ800     -0.0054
     15  C15        6.8530    2.1620   26.2460 C.ar  800  XFJ800     -0.0029
     16  C16        6.3700    0.8520   26.2440 C.ar  800  XFJ800      0.0946
     17  C17        6.1220    3.2110   27.0640 C.3   800  XFJ800      0.0353
     18  C18        4.9920    3.7790   26.1920 C.3   800  XFJ800      0.0637
     19  N21        5.1940    6.1610   26.8700 N.2   800  XFJ800     -0.3924
     20  C22        4.7600    7.3150   27.4260 C.2   800  XFJ800      0.2001
     21  N22        5.5710    8.4120   27.4420 N.pl3 800  XFJ800     -0.0977
     22  C23        3.4660    7.3680   27.9550 C.3   800  XFJ800      0.1001
     23  C24        2.6580    6.2310   27.9170 C.2   800  XFJ800     -0.0332
     24  C25        3.1370    5.0530   27.3320 C.2   800  XFJ800      0.0196
     25  C26        4.4330    5.0410   26.8240 C.2   800  XFJ800      0.1100
     26  C27        1.2550    6.2810   28.4740 C.3   800  XFJ800      0.0269
@<TRIPOS>BOND
     1     8     5    1
     2     5     4    2
     3     5     6    1
     4     4     2    1
     5     6     7    1
     6     2     3    1
     7     2     1    2
     8     7     1    2
     9     7     9    1
    10    10     9    1
    11    10    13    1
    12    13    12   ar
    13    13    14   ar
    14    12    11   ar
    15    14    15   ar
    16    11    16   ar
    17    18    25    1
    18    18    17    1
    19    16    15   ar
    20    15    17    1
    21    25    19    2
    22    25    24    1
    23    19    20    2
    24    24    23    2
    25    20    21    1
    26    20    22    1
    27    23    22    1
    28    23    26    1
