@<TRIPOS>MOLECULE
3n5x_HEM_A_1.pdb
 43 50 0 0 0
SMALL
GASTEIGER

@<TRIPOS>ATOM
      1  CHA       13.0650    4.7100   26.5960 C.2   750  HEM750      0.0000
      2  CHB       16.7750    1.6600   26.1250 C.2   750  HEM750      0.0000
      3  CHC       17.7470    3.5280   21.8040 C.2   750  HEM750      0.0000
      4  CHD       14.7440    7.2480   22.7380 C.2   750  HEM750      0.0000
      5  C1A       13.9000    3.6350   26.7780 C.2   750  HEM750      0.0000
      6  C2A       13.7070    2.5610   27.7480 C.2   750  HEM750      0.0000
      7  C3A       14.7360    1.7200   27.6120 C.2   750  HEM750      0.0000
      8  C4A       15.5900    2.2130   26.5430 C.2   750  HEM750      0.0000
      9  CMA       15.0190    0.4230   28.4250 C.3   750  HEM750      0.0000
     10  CAA       12.5260    2.4730   28.7650 C.3   750  HEM750      0.0000
     11  CBA       11.6780    1.2020   28.5950 C.3   750  HEM750      0.0000
     12  CGA       11.0610    0.7840   29.9100 C.2   750  HEM750      0.0000
     13  O1A       11.3900    1.4030   30.9720 O.co2 750  HEM750      0.0000
     14  O2A       10.2470   -0.1860   29.8970 O.co2 750  HEM750      0.0000
     15  C1B       17.3530    1.8560   24.8950 C.ar  750  HEM750      0.0000
     16  C2B       18.3870    1.0500   24.3130 C.ar  750  HEM750      0.0000
     17  C3B       18.6710    1.5410   23.1030 C.ar  750  HEM750      0.0000
     18  C4B       17.8270    2.7090   22.9070 C.ar  750  HEM750      0.0000
     19  CMB       18.9930   -0.1900   25.0010 C.3   750  HEM750      0.0000
     20  CAB       19.7290    0.9320   22.1530 C.2   750  HEM750      0.0000
     21  CBB       20.3020    1.6460   21.1850 C.2   750  HEM750      0.0000
     22  C1C       16.9670    4.6650   21.6530 C.2   750  HEM750      0.0000
     23  C2C       16.9350    5.4890   20.4650 C.2   750  HEM750      0.0000
     24  C3C       16.1190    6.5310   20.7190 C.2   750  HEM750      0.0000
     25  C4C       15.6160    6.3980   22.0660 C.2   750  HEM750      0.0000
     26  CMC       17.7000    5.1460   19.1530 C.3   750  HEM750      0.0000
     27  CAC       15.7060    7.7000   19.7920 C.2   750  HEM750      0.0000
     28  CBC       16.4690    8.0890   18.7620 C.2   750  HEM750      0.0000
     29  C1D       13.9530    6.8830   23.8270 C.ar  750  HEM750      0.0000
     30  C2D       12.7980    7.5930   24.3050 C.ar  750  HEM750      0.0000
     31  C3D       12.2810    6.8050   25.4830 C.ar  750  HEM750      0.0000
     32  C4D       13.1660    5.6750   25.6210 C.ar  750  HEM750      0.0000
     33  CMD       12.1780    8.9040   23.7430 C.3   750  HEM750      0.0000
     34  CAD       11.0250    7.1380   26.3160 C.3   750  HEM750      0.0000
     35  CBD        9.9200    6.4840   25.4690 C.3   750  HEM750      0.0000
     36  CGD        8.5180    6.7230   25.9970 C.2   750  HEM750      0.0000
     37  O1D        8.2600    7.7740   26.6410 O.co2 750  HEM750      0.0000
     38  O2D        7.6350    5.8560   25.7310 O.co2 750  HEM750      0.0000
     39  NA        15.0900    3.4290   26.1060 N.2   750  HEM750      0.0000
     40  NB        17.0890    2.9080   24.0640 N.ar  750  HEM750      0.0000
     41  NC        16.1930    5.2760   22.6200 N.2   750  HEM750      0.0000
     42  ND        14.1860    5.7980   24.6740 N.ar  750  HEM750      0.0000
     43 FE         15.7410    4.4340   24.4700 Fe    750  HEM750      0.0000
@<TRIPOS>BOND
     1    28    27    2
     2    26    23    1
     3    27    24    1
     4    23    24    2
     5    23    22    1
     6    24    25    1
     7    21    20    2
     8    22     3    2
     9    22    41    1
    10     3    18    1
    11    25    41    2
    12    25     4    1
    13    20    17    1
    14    41    43    1
    15     4    29    2
    16    18    17   ar
    17    18    40   ar
    18    17    16   ar
    19    33    30    1
    20    29    30   ar
    21    29    42   ar
    22    40    43    1
    23    40    15   ar
    24    30    31   ar
    25    16    15   ar
    26    16    19    1
    27    43    42    1
    28    43    39    1
    29    42    32   ar
    30    15     2    1
    31    35    36    1
    32    35    34    1
    33    31    32   ar
    34    31    34    1
    35    32     1    2
    36    38    36   ar
    37    36    37   ar
    38    39     8    1
    39    39     5    2
    40     2     8    2
    41     8     7    1
    42     1     5    1
    43     5     6    1
    44     7     6    2
    45     7     9    1
    46     6    10    1
    47    11    10    1
    48    11    12    1
    49    14    12   ar
    50    12    13   ar
