@<TRIPOS>MOLECULE
3n5x_XFK_A_1.pdb
 26 28 0 0 0
SMALL
GASTEIGER

@<TRIPOS>ATOM
      1  N01       13.3030    0.5550   24.2260 N.2   800  XFK800     -0.3922
      2  C02       14.4140    0.3800   23.4640 C.2   800  XFK800      0.2178
      3  N02       15.2810   -0.6080   23.8010 N.pl3 800  XFK800     -0.0932
      4  C03       14.6510    1.1970   22.3450 C.2   800  XFK800      0.0427
      5  C04       13.7390    2.2030   22.0470 C.2   800  XFK800     -0.0333
      6  C05       12.6050    2.3520   22.8540 C.3   800  XFK800      0.0766
      7  C06       12.4000    1.5250   23.9680 C.2   800  XFK800      0.0928
      8  C07       13.9580    3.1110   20.8390 C.3   800  XFK800      0.0269
      9  C08       11.1620    1.6660   24.8480 C.3   800  XFK800      0.0595
     10  C09        9.9010    1.5760   23.9920 C.3   800  XFK800      0.0350
     11  N11        6.9720   -0.1720   25.5980 N.ar  800  XFK800     -0.2430
     12  C12        8.0750    0.0910   24.8780 C.ar  800  XFK800      0.0946
     13  C13        8.6390    1.3690   24.8300 C.ar  800  XFK800     -0.0029
     14  C14        8.0240    2.4030   25.5390 C.ar  800  XFK800     -0.0054
     15  C15        6.8530    2.1010   26.2690 C.ar  800  XFK800     -0.0030
     16  C16        6.3490    0.7990   26.2790 C.ar  800  XFK800      0.0946
     17  C17        6.1280    3.1590   27.0710 C.3   800  XFK800      0.0323
     18  C18        5.0120    3.7340   26.2070 C.3   800  XFK800      0.0273
     19  C21        5.2200    6.1310   26.8640 C.2   800  XFK800      0.0427
     20  C22        4.7380    7.2960   27.4190 C.2   800  XFK800      0.2178
     21  N22        5.5340    8.4010   27.4320 N.pl3 800  XFK800     -0.0932
     22  N23        3.4610    7.3100   27.9290 N.2   800  XFK800     -0.3922
     23  C24        2.6660    6.1970   27.9070 C.2   800  XFK800      0.0929
     24  C25        3.1380    5.0060   27.3400 C.3   800  XFK800      0.0766
     25  C26        4.4390    4.9860   26.8290 C.2   800  XFK800     -0.0333
     26  C27        1.2640    6.2630   28.4670 C.3   800  XFK800      0.0619
@<TRIPOS>BOND
     1     8     5    1
     2     5     4    2
     3     5     6    1
     4     4     2    1
     5     6     7    1
     6     2     3    1
     7     2     1    2
     8     7     1    2
     9     7     9    1
    10    10    13    1
    11    10     9    1
    12    13    12   ar
    13    13    14   ar
    14    12    11   ar
    15    14    15   ar
    16    11    16   ar
    17    18    25    1
    18    18    17    1
    19    15    16   ar
    20    15    17    1
    21    25    19    2
    22    25    24    1
    23    19    20    1
    24    24    23    1
    25    20    21    1
    26    20    22    2
    27    23    22    2
    28    23    26    1
