@<TRIPOS>MOLECULE
3n5y_XFL_A_1.pdb
 26 28 0 0 0
SMALL
GASTEIGER

@<TRIPOS>ATOM
      1  N1         8.4880    2.5430   24.6390 N.2   800  XFL800     -0.4145
      2  C2         9.8120    2.2850   24.4940 C.2   800  XFL800      0.1083
      3  C3        10.7030    3.3230   24.2230 C.2   800  XFL800      0.0234
      4  C4        10.2070    4.6200   24.0640 C.2   800  XFL800     -0.0167
      5  C5         8.8400    4.8530   24.2180 C.3   800  XFL800      0.0804
      6  C6         7.9780    3.7940   24.5070 C.2   800  XFL800      0.0910
      7  N11       13.1130   -0.1750   23.5940 N.2   800  XFL800     -0.3922
      8  C12       14.3880    0.0640   23.2260 C.2   800  XFL800      0.2178
      9  N12       15.3550   -0.6330   23.8480 N.pl3 800  XFL800     -0.0932
     10  C13       14.6830    0.9880   22.2090 C.2   800  XFL800      0.0427
     11  C14       13.6530    1.6820   21.5780 C.2   800  XFL800     -0.0333
     12  C15       12.3380    1.4110   21.9550 C.3   800  XFL800      0.0766
     13  C16       12.0870    0.4730   22.9710 C.2   800  XFL800      0.0929
     14  C17       13.9090    2.7000   20.4760 C.3   800  XFL800      0.0269
     15  C18       10.6490    0.1880   23.3770 C.3   800  XFL800      0.0622
     16  C19       10.3080    0.8790   24.6800 C.3   800  XFL800      0.0660
     17  N21        4.1760    3.3840   27.5800 N.2   800  XFL800     -0.3922
     18  C22        2.8550    3.4510   27.9080 C.2   800  XFL800      0.2178
     19  N22        2.3990    2.7900   29.0010 N.pl3 800  XFL800     -0.0932
     20  C23        1.9600    4.1950   27.1340 C.2   800  XFL800      0.0427
     21  C24        2.4280    4.8710   26.0060 C.2   800  XFL800     -0.0333
     22  C25        3.7910    4.7830   25.6870 C.3   800  XFL800      0.0766
     23  C26        4.6630    4.0270   26.4860 C.2   800  XFL800      0.0929
     24  C27        1.4770    5.6800   25.1450 C.3   800  XFL800      0.0269
     25  C28        6.1480    3.9110   26.1680 C.3   800  XFL800      0.0619
     26  C29        6.4890    4.0390   24.6760 C.3   800  XFL800      0.0618
@<TRIPOS>BOND
     1    14    11    1
     2    11    12    1
     3    11    10    2
     4    12    13    1
     5    10     8    1
     6    13    15    1
     7    13     7    2
     8     8     7    2
     9     8     9    1
    10    15    16    1
    11     4     5    1
    12     4     3    2
    13     5     6    1
    14     3     2    1
    15     2     1    2
    16     2    16    1
    17     6     1    2
    18     6    26    1
    19    26    25    1
    20    24    21    1
    21    22    21    1
    22    22    23    1
    23    21    20    2
    24    25    23    1
    25    23    17    2
    26    20    18    1
    27    17    18    2
    28    18    19    1
