@<TRIPOS>MOLECULE
3n5y_H4B_A_1.pdb
 17 18 0 0 0
SMALL
GASTEIGER

@<TRIPOS>ATOM
      1  N1         9.7710    2.5560   33.7470 N.2   760  H4B760     -0.2683
      2  C2         9.9450    2.1870   32.4680 C.1   760  H4B760      0.2608
      3  N2        11.2190    2.1080   31.9830 N.pl3 760  H4B760     -0.0220
      4  N3         8.8470    1.9210   31.6950 N.2   760  H4B760     -0.2474
      5  C4         7.5890    2.0160   32.1880 C.1   760  H4B760      0.2441
      6  O4         6.6340    1.7420   31.4220 O.2   760  H4B760     -0.2063
      7  C4A        7.4040    2.4050   33.5280 C.2   760  H4B760      0.2463
      8  C8A        8.5430    2.6750   34.2850 C.1   760  H4B760      0.1270
      9  N5         6.1910    2.5430   34.1270 N.2   760  H4B760     -0.2460
     10  N8         8.4740    3.0610   35.5830 N.2   760  H4B760     -0.2054
     11  C6         6.1350    3.5260   35.2210 C.3   760  H4B760      0.1627
     12  C7         7.2010    3.2030   36.2690 C.3   760  H4B760      0.1643
     13  C9         4.7700    3.6240   35.9010 C.3   760  H4B760      0.2063
     14  O9         4.4380    2.3320   36.3820 O.3   760  H4B760     -0.2183
     15  C10        4.7420    4.5660   37.0970 C.3   760  H4B760      0.1842
     16  C11        3.3450    4.6360   37.7010 C.3   760  H4B760      0.0383
     17  O10        5.1260    5.8700   36.6560 O.3   760  H4B760     -0.2204
@<TRIPOS>BOND
     1     6     5    2
     2     4     5    2
     3     4     2    2
     4     3     2    1
     5     5     7    1
     6     2     1    2
     7     7     9    2
     8     7     8    1
     9     1     8    2
    10     9    11    1
    11     8    10    2
    12    11    13    1
    13    11    12    1
    14    10    12    1
    15    13    14    1
    16    13    15    1
    17    17    15    1
    18    15    16    1
