@<TRIPOS>MOLECULE
3n5y_HEM_A_1.pdb
 43 50 0 0 0
SMALL
GASTEIGER

@<TRIPOS>ATOM
      1  CHA       12.9190    4.7580   26.6410 C.2   750  HEM750      0.0000
      2  CHB       16.5900    1.6850   26.1880 C.2   750  HEM750      0.0000
      3  CHC       17.4650    3.4370   21.7950 C.2   750  HEM750      0.0000
      4  CHD       14.4630    7.1940   22.6570 C.2   750  HEM750      0.0000
      5  C1A       13.7100    3.6670   26.7990 C.2   750  HEM750      0.0000
      6  C2A       13.4740    2.5590   27.7050 C.2   750  HEM750      0.0000
      7  C3A       14.4880    1.7200   27.5830 C.2   750  HEM750      0.0000
      8  C4A       15.3990    2.2570   26.5810 C.2   750  HEM750      0.0000
      9  CMA       14.6850    0.3980   28.3670 C.3   750  HEM750      0.0000
     10  CAA       12.2650    2.3720   28.6660 C.3   750  HEM750      0.0000
     11  CBA       11.1270    1.9130   27.7730 C.3   750  HEM750      0.0000
     12  CGA        9.9770    1.2760   28.5090 C.2   750  HEM750      0.0000
     13  O1A       10.1360    0.8960   29.7170 O.co2 750  HEM750      0.0000
     14  O2A        8.9030    1.1640   27.8310 O.co2 750  HEM750      0.0000
     15  C1B       17.1490    1.8320   24.9640 C.ar  750  HEM750      0.0000
     16  C2B       18.2200    1.0480   24.3990 C.ar  750  HEM750      0.0000
     17  C3B       18.4600    1.5260   23.1810 C.ar  750  HEM750      0.0000
     18  C4B       17.5640    2.6560   22.9440 C.ar  750  HEM750      0.0000
     19  CMB       18.9440   -0.1610   25.0460 C.3   750  HEM750      0.0000
     20  CAB       19.5390    0.9190   22.2480 C.2   750  HEM750      0.0000
     21  CBB       19.9950    1.5280   21.1560 C.2   750  HEM750      0.0000
     22  C1C       16.6950    4.5770   21.6230 C.2   750  HEM750      0.0000
     23  C2C       16.6770    5.3930   20.4270 C.2   750  HEM750      0.0000
     24  C3C       15.8460    6.4300   20.6720 C.2   750  HEM750      0.0000
     25  C4C       15.3300    6.3130   22.0160 C.2   750  HEM750      0.0000
     26  CMC       17.4450    5.0510   19.1090 C.3   750  HEM750      0.0000
     27  CAC       15.4490    7.5910   19.7430 C.2   750  HEM750      0.0000
     28  CBC       16.1960    7.9540   18.6950 C.2   750  HEM750      0.0000
     29  C1D       13.7310    6.8940   23.7980 C.ar  750  HEM750      0.0000
     30  C2D       12.6460    7.6670   24.3610 C.ar  750  HEM750      0.0000
     31  C3D       12.2050    6.8670   25.5950 C.ar  750  HEM750      0.0000
     32  C4D       13.0450    5.7100   25.6490 C.ar  750  HEM750      0.0000
     33  CMD       12.0500    9.0040   23.8610 C.3   750  HEM750      0.0000
     34  CAD       11.1040    7.1610   26.6210 C.3   750  HEM750      0.0000
     35  CBD        9.7740    7.5450   26.0080 C.3   750  HEM750      0.0000
     36  CGD        9.0840    8.3610   27.0690 C.2   750  HEM750      0.0000
     37  O1D        9.3520    9.5980   27.2430 O.co2 750  HEM750      0.0000
     38  O2D        8.2660    7.7300   27.7630 O.co2 750  HEM750      0.0000
     39  NA        14.9220    3.4860   26.1550 N.2   750  HEM750      0.0000
     40  NB        16.8270    2.8510   24.0940 N.ar  750  HEM750      0.0000
     41  NC        15.9080    5.2050   22.5770 N.2   750  HEM750      0.0000
     42  ND        13.9780    5.7990   24.6260 N.ar  750  HEM750      0.0000
     43 FE         15.4810    4.4010   24.4290 Fe    750  HEM750      0.0000
@<TRIPOS>BOND
     1    28    27    2
     2    26    23    1
     3    27    24    1
     4    23    24    2
     5    23    22    1
     6    24    25    1
     7    21    20    2
     8    22     3    2
     9    22    41    1
    10     3    18    1
    11    25    41    2
    12    25     4    1
    13    20    17    1
    14    41    43    1
    15     4    29    2
    16    18    17   ar
    17    18    40   ar
    18    17    16   ar
    19    29    30   ar
    20    29    42   ar
    21    33    30    1
    22    40    43    1
    23    40    15   ar
    24    30    31   ar
    25    16    15   ar
    26    16    19    1
    27    43    42    1
    28    43    39    1
    29    42    32   ar
    30    15     2    1
    31    31    32   ar
    32    31    34    1
    33    32     1    2
    34    35    34    1
    35    35    36    1
    36    39     8    1
    37    39     5    2
    38     2     8    2
    39     8     7    1
    40     1     5    1
    41     5     6    1
    42    36    37   ar
    43    36    38   ar
    44     7     6    2
    45     7     9    1
    46     6    10    1
    47    11    12    1
    48    11    10    1
    49    14    12   ar
    50    12    13   ar
