@<TRIPOS>MOLECULE
3n5z_H4B_A_1.pdb
 17 18 0 0 0
SMALL
GASTEIGER

@<TRIPOS>ATOM
      1  N1         9.7630    2.5510   33.9420 N.2   760  H4B760     -0.2683
      2  C2         9.9170    2.1540   32.6720 C.1   760  H4B760      0.2608
      3  N2        11.1820    1.9860   32.1740 N.pl3 760  H4B760     -0.0220
      4  N3         8.8040    1.9480   31.9120 N.2   760  H4B760     -0.2474
      5  C4         7.5460    2.0910   32.3640 C.1   760  H4B760      0.2441
      6  O4         6.5960    1.8530   31.5560 O.2   760  H4B760     -0.2063
      7  C4A        7.3690    2.5050   33.6870 C.2   760  H4B760      0.2463
      8  C8A        8.5260    2.7380   34.4560 C.1   760  H4B760      0.1270
      9  N5         6.1490    2.7290   34.2610 N.2   760  H4B760     -0.2460
     10  N8         8.4740    3.1460   35.7530 N.2   760  H4B760     -0.2054
     11  C6         6.1490    3.7190   35.3680 C.3   760  H4B760      0.1627
     12  C7         7.2030    3.3710   36.4180 C.3   760  H4B760      0.1643
     13  C9         4.8220    3.8220   36.1000 C.3   760  H4B760      0.2063
     14  O9         4.5390    2.5100   36.5670 O.3   760  H4B760     -0.2183
     15  C10        4.8200    4.7720   37.2980 C.3   760  H4B760      0.1842
     16  C11        3.4200    4.8410   37.9130 C.3   760  H4B760      0.0383
     17  O10        5.1750    6.1040   36.9110 O.3   760  H4B760     -0.2204
@<TRIPOS>BOND
     1     6     5    2
     2     4     5    2
     3     4     2    2
     4     3     2    1
     5     5     7    1
     6     2     1    2
     7     7     9    2
     8     7     8    1
     9     1     8    2
    10     9    11    1
    11     8    10    2
    12    11    13    1
    13    11    12    1
    14    10    12    1
    15    13    14    1
    16    13    15    1
    17    17    15    1
    18    15    16    1
