@<TRIPOS>MOLECULE
3n5z_HEM_A_1.pdb
 43 50 0 0 0
SMALL
GASTEIGER

@<TRIPOS>ATOM
      1  CHA       12.8140    4.7930   26.7670 C.2   750  HEM750      0.0000
      2  CHB       16.4760    1.6700   26.2240 C.2   750  HEM750      0.0000
      3  CHC       17.4440    3.4260   21.8000 C.2   750  HEM750      0.0000
      4  CHD       14.4160    7.0980   22.7470 C.2   750  HEM750      0.0000
      5  C1A       13.6310    3.7110   26.9090 C.2   750  HEM750      0.0000
      6  C2A       13.4820    2.6880   27.8960 C.2   750  HEM750      0.0000
      7  C3A       14.4730    1.8300   27.7520 C.2   750  HEM750      0.0000
      8  C4A       15.3190    2.3010   26.6690 C.2   750  HEM750      0.0000
      9  CMA       14.6980    0.5670   28.6080 C.3   750  HEM750      0.0000
     10  CAA       12.3180    2.5880   28.9120 C.3   750  HEM750      0.0000
     11  CBA       11.3910    1.6550   28.1400 C.3   750  HEM750      0.0000
     12  CGA       10.1070    1.2700   28.8080 C.2   750  HEM750      0.0000
     13  O1A       10.1540    0.7730   29.9860 O.co2 750  HEM750      0.0000
     14  O2A        9.0600    1.4310   28.0910 O.co2 750  HEM750      0.0000
     15  C1B       17.0580    1.8680   25.0140 C.ar  750  HEM750      0.0000
     16  C2B       18.2240    1.1660   24.5090 C.ar  750  HEM750      0.0000
     17  C3B       18.4850    1.6470   23.2960 C.ar  750  HEM750      0.0000
     18  C4B       17.5290    2.6930   22.9860 C.ar  750  HEM750      0.0000
     19  CMB       19.0480    0.0230   25.1850 C.3   750  HEM750      0.0000
     20  CAB       19.6560    1.0980   22.4400 C.2   750  HEM750      0.0000
     21  CBB       20.0300    1.6240   21.2770 C.2   750  HEM750      0.0000
     22  C1C       16.7020    4.5830   21.6450 C.2   750  HEM750      0.0000
     23  C2C       16.7070    5.4650   20.4930 C.2   750  HEM750      0.0000
     24  C3C       15.8550    6.4690   20.7830 C.2   750  HEM750      0.0000
     25  C4C       15.3060    6.2500   22.0910 C.2   750  HEM750      0.0000
     26  CMC       17.5240    5.1980   19.1800 C.3   750  HEM750      0.0000
     27  CAC       15.4610    7.6880   19.9320 C.2   750  HEM750      0.0000
     28  CBC       16.1360    7.9900   18.8240 C.2   750  HEM750      0.0000
     29  C1D       13.7240    6.8380   23.9150 C.ar  750  HEM750      0.0000
     30  C2D       12.6930    7.6790   24.4870 C.ar  750  HEM750      0.0000
     31  C3D       12.2550    6.9390   25.7350 C.ar  750  HEM750      0.0000
     32  C4D       13.0070    5.7360   25.7860 C.ar  750  HEM750      0.0000
     33  CMD       12.1410    9.0560   24.0300 C.3   750  HEM750      0.0000
     34  CAD       11.1650    7.3510   26.7410 C.3   750  HEM750      0.0000
     35  CBD        9.8420    7.2090   26.0120 C.3   750  HEM750      0.0000
     36  CGD        8.6940    7.4830   26.9420 C.2   750  HEM750      0.0000
     37  O1D        8.7910    8.4050   27.7970 O.co2 750  HEM750      0.0000
     38  O2D        7.6620    6.7660   26.7960 O.co2 750  HEM750      0.0000
     39  NA        14.7530    3.4700   26.1650 N.2   750  HEM750      0.0000
     40  NB        16.6640    2.8240   24.0740 N.ar  750  HEM750      0.0000
     41  NC        15.8380    5.0910   22.5820 N.2   750  HEM750      0.0000
     42  ND        13.8960    5.6960   24.7080 N.ar  750  HEM750      0.0000
     43 FE         15.5830    4.5490   24.5780 Fe    750  HEM750      0.0000
@<TRIPOS>BOND
     1    28    27    2
     2    26    23    1
     3    27    24    1
     4    23    24    2
     5    23    22    1
     6    24    25    1
     7    21    20    2
     8    22     3    2
     9    22    41    1
    10     3    18    1
    11    25    41    2
    12    25     4    1
    13    20    17    1
    14    41    43    1
    15     4    29    2
    16    18    17   ar
    17    18    40   ar
    18    17    16   ar
    19    29    30   ar
    20    29    42   ar
    21    33    30    1
    22    40    43    1
    23    40    15   ar
    24    30    31   ar
    25    16    15   ar
    26    16    19    1
    27    43    42    1
    28    43    39    1
    29    42    32   ar
    30    15     2    1
    31    31    32   ar
    32    31    34    1
    33    32     1    2
    34    35    34    1
    35    35    36    1
    36    39     8    1
    37    39     5    2
    38     2     8    2
    39     8     7    1
    40     1     5    1
    41    38    36   ar
    42     5     6    1
    43    36    37   ar
    44     7     6    2
    45     7     9    1
    46     6    10    1
    47    14    12   ar
    48    11    12    1
    49    11    10    1
    50    12    13   ar
