@<TRIPOS>MOLECULE
3n5z_XFM_A_1.pdb
 26 28 0 0 0
SMALL
GASTEIGER

@<TRIPOS>ATOM
      1  N1        13.1090   -0.0860   23.6930 N.2   800  XFM800     -0.3924
      2  C2        12.1020    0.5760   23.0720 C.2   800  XFM800      0.1101
      3  C3        12.3570    1.5050   22.0570 C.2   800  XFM800      0.0196
      4  C4        13.6650    1.7560   21.6860 C.2   800  XFM800     -0.0332
      5  C5        14.6870    1.0390   22.3070 C.3   800  XFM800      0.1001
      6  C6        14.3710    0.1300   23.3270 C.2   800  XFM800      0.2001
      7  C7        10.6670    0.3150   23.5070 C.3   800  XFM800      0.0664
      8  C8        10.5320    0.9840   24.8470 C.3   800  XFM800      0.0664
      9  C9        10.0060    2.3600   24.6220 C.2   800  XFM800      0.1083
     10  N10        8.6790    2.5520   24.7550 N.2   800  XFM800     -0.4145
     11  C11        8.1160    3.7620   24.5800 C.2   800  XFM800      0.0909
     12  C12        8.9270    4.8440   24.2450 C.3   800  XFM800      0.0804
     13  C13       10.3020    4.6660   24.0750 C.2   800  XFM800     -0.0167
     14  C14       10.8560    3.4060   24.2830 C.2   800  XFM800      0.0234
     15  C15        6.6230    3.9270   24.7750 C.3   800  XFM800      0.0591
     16  C16        6.3670    3.7690   26.2810 C.3   800  XFM800      0.0296
     17  C17        4.9090    3.9560   26.6670 C.2   800  XFM800     -0.0332
     18  C18        4.1340    5.0000   26.1330 C.3   800  XFM800      0.0766
     19  C19        2.7920    5.1330   26.5110 C.2   800  XFM800      0.0929
     20  N20        2.2510    4.2540   27.4010 N.2   800  XFM800     -0.3922
     21  C21        2.9910    3.2350   27.9350 C.2   800  XFM800      0.2178
     22  C22        4.3320    3.0710   27.5810 C.2   800  XFM800      0.0427
     23  N23        2.4320    2.3690   28.8270 N.pl3 800  XFM800     -0.0932
     24  C24        1.9520    6.2480   25.9260 C.3   800  XFM800      0.0619
     25  C25       13.9300    2.7630   20.5770 C.3   800  XFM800      0.0269
     26  N26       15.3030   -0.6060   23.9480 N.pl3 800  XFM800     -0.0977
@<TRIPOS>BOND
     1    25     4    1
     2     4     3    2
     3     4     5    1
     4     3     2    1
     5     5     6    1
     6     2     7    1
     7     2     1    2
     8     6     1    2
     9     6    26    1
    10     7     8    1
    11    13    12    1
    12    13    14    2
    13    12    11    1
    14    14     9    1
    15    11    10    2
    16    11    15    1
    17     9    10    2
    18     9     8    1
    19    15    16    1
    20    24    19    1
    21    18    19    1
    22    18    17    1
    23    16    17    1
    24    19    20    2
    25    17    22    2
    26    20    21    2
    27    22    21    1
    28    21    23    1
