@<TRIPOS>MOLECULE
3n60_XFN_A_1.pdb
 27 29 0 0 0
SMALL
GASTEIGER

@<TRIPOS>ATOM
      1  C01        6.5100    0.5700   27.4420 C.ar  800  XFN800      0.0138
      2  C02        6.3580    0.3260   26.0630 C.ar  800  XFN800      0.0885
      3  N02        5.1480   -0.0610   25.5450 N.pl3 800  XFN800     -0.1281
      4  C03        7.4660    0.4450   25.2080 C.ar  800  XFN800      0.0138
      5  C04        8.7220    0.8400   25.7040 C.ar  800  XFN800     -0.0207
      6  C05        8.8650    1.1060   27.1080 C.ar  800  XFN800     -0.0084
      7  C06        7.7560    0.9700   27.9770 C.ar  800  XFN800     -0.0207
      8  C07        9.8500    0.9190   24.6520 C.3   800  XFN800      0.0338
      9  C08        7.8980    1.2490   29.4660 C.3   800  XFN800      0.0335
     10  C09        6.5650    1.5640   30.1420 C.3   800  XFN800      0.0595
     11  C11        5.3060    2.4100   33.5540 C.2   800  XFN800      0.2178
     12  N12        5.4480    2.1070   32.2400 N.2   800  XFN800     -0.3922
     13  C13        6.6550    1.9540   31.6210 C.2   800  XFN800      0.0928
     14  C14        7.8400    2.1350   32.3630 C.3   800  XFN800      0.0766
     15  C15        7.7050    2.4820   33.7270 C.2   800  XFN800     -0.0333
     16  C16        6.4450    2.6030   34.3280 C.2   800  XFN800      0.0427
     17  N17        4.0470    2.5440   34.0830 N.pl3 800  XFN800     -0.0932
     18  C18        8.9060    2.7240   34.6010 C.3   800  XFN800      0.0269
     19  C34       11.1040    1.6340   25.1210 C.3   800  XFN800      0.0637
     20  C35       12.2650    1.4090   24.1610 C.2   800  XFN800      0.1100
     21  C36       12.4690    2.2850   23.0880 C.2   800  XFN800      0.0196
     22  C37       13.5250    2.0900   22.2170 C.2   800  XFN800     -0.0332
     23  C38       14.3820    1.0190   22.4030 C.3   800  XFN800      0.1001
     24  C39       14.1740    0.1640   23.4890 C.2   800  XFN800      0.2001
     25  N40       13.1110    0.3590   24.3180 N.2   800  XFN800     -0.3924
     26  N41       15.0160   -0.8780   23.6780 N.pl3 800  XFN800     -0.0977
     27  C42       13.7270    3.0120   21.0260 C.3   800  XFN800      0.0269
@<TRIPOS>BOND
     1    27    22    1
     2    22    23    1
     3    22    21    2
     4    23    24    1
     5    21    20    1
     6    24    26    1
     7    24    25    2
     8    20    25    2
     9    20    19    1
    10     8    19    1
    11     8     5    1
    12     4     5   ar
    13     4     2   ar
    14     3     2    1
    15     5     6   ar
    16     2     1   ar
    17     6     7   ar
    18     1     7   ar
    19     7     9    1
    20     9    10    1
    21    10    13    1
    22    13    12    2
    23    13    14    1
    24    12    11    2
    25    14    15    1
    26    11    17    1
    27    11    16    1
    28    15    16    2
    29    15    18    1
