@<TRIPOS>MOLECULE
3n60_HEM_A_1.pdb
 43 50 0 0 0
SMALL
GASTEIGER

@<TRIPOS>ATOM
      1  CHA       12.9760    4.5890   26.6680 C.2   750  HEM750      0.0000
      2  CHB       16.6120    1.4380   26.0900 C.2   750  HEM750      0.0000
      3  CHC       17.5740    3.3390   21.6960 C.2   750  HEM750      0.0000
      4  CHD       14.5300    7.0610   22.7050 C.2   750  HEM750      0.0000
      5  C1A       13.7790    3.4940   26.8480 C.2   750  HEM750      0.0000
      6  C2A       13.6110    2.4660   27.8700 C.2   750  HEM750      0.0000
      7  C3A       14.6230    1.5860   27.7000 C.2   750  HEM750      0.0000
      8  C4A       15.4490    2.0400   26.5690 C.2   750  HEM750      0.0000
      9  CMA       14.9420    0.2910   28.5080 C.3   750  HEM750      0.0000
     10  CAA       12.4290    2.4780   28.8860 C.3   750  HEM750      0.0000
     11  CBA       12.5990    1.7320   30.2130 C.3   750  HEM750      0.0000
     12  CGA       12.1690    0.2680   30.0910 C.2   750  HEM750      0.0000
     13  O1A       11.6550   -0.1170   29.0090 O.co2 750  HEM750      0.0000
     14  O2A       12.3600   -0.5300   31.0690 O.co2 750  HEM750      0.0000
     15  C1B       17.1630    1.6310   24.8380 C.ar  750  HEM750      0.0000
     16  C2B       18.2100    0.8400   24.2510 C.ar  750  HEM750      0.0000
     17  C3B       18.4790    1.3340   23.0200 C.ar  750  HEM750      0.0000
     18  C4B       17.6330    2.5180   22.8250 C.ar  750  HEM750      0.0000
     19  CMB       18.8110   -0.4230   24.9300 C.3   750  HEM750      0.0000
     20  CAB       19.5140    0.7420   22.0270 C.2   750  HEM750      0.0000
     21  CBB       20.2430    1.4510   21.1420 C.2   750  HEM750      0.0000
     22  C1C       16.7580    4.4750   21.5670 C.2   750  HEM750      0.0000
     23  C2C       16.6890    5.3050   20.3830 C.2   750  HEM750      0.0000
     24  C3C       15.8410    6.3230   20.6690 C.2   750  HEM750      0.0000
     25  C4C       15.3700    6.1790   22.0250 C.2   750  HEM750      0.0000
     26  CMC       17.4540    4.9310   19.0750 C.3   750  HEM750      0.0000
     27  CAC       15.3970    7.5000   19.7860 C.2   750  HEM750      0.0000
     28  CBC       16.1490    7.8290   18.7240 C.2   750  HEM750      0.0000
     29  C1D       13.8070    6.7210   23.8300 C.ar  750  HEM750      0.0000
     30  C2D       12.6720    7.4610   24.3430 C.ar  750  HEM750      0.0000
     31  C3D       12.1960    6.6640   25.5270 C.ar  750  HEM750      0.0000
     32  C4D       13.0760    5.5330   25.6480 C.ar  750  HEM750      0.0000
     33  CMD       12.0320    8.7820   23.8300 C.3   750  HEM750      0.0000
     34  CAD       11.0110    7.0310   26.4500 C.3   750  HEM750      0.0000
     35  CBD        9.7850    6.3640   25.8130 C.3   750  HEM750      0.0000
     36  CGD        8.5480    6.7340   26.5960 C.2   750  HEM750      0.0000
     37  O1D        8.5070    7.8100   27.2460 O.co2 750  HEM750      0.0000
     38  O2D        7.5970    5.9310   26.5720 O.co2 750  HEM750      0.0000
     39  NA        14.9360    3.2430   26.1260 N.2   750  HEM750      0.0000
     40  NB        16.9040    2.7040   23.9840 N.ar  750  HEM750      0.0000
     41  NC        15.9870    5.0770   22.5570 N.2   750  HEM750      0.0000
     42  ND        14.0670    5.6270   24.6550 N.ar  750  HEM750      0.0000
     43 FE         15.5670    4.2400   24.4120 Fe    750  HEM750      0.0000
@<TRIPOS>BOND
     1    28    27    2
     2    26    23    1
     3    27    24    1
     4    23    24    2
     5    23    22    1
     6    24    25    1
     7    21    20    2
     8    22     3    2
     9    22    41    1
    10     3    18    1
    11    25    41    2
    12    25     4    1
    13    20    17    1
    14    41    43    1
    15     4    29    2
    16    18    17   ar
    17    18    40   ar
    18    17    16   ar
    19    29    30   ar
    20    29    42   ar
    21    33    30    1
    22    40    43    1
    23    40    15   ar
    24    16    15   ar
    25    16    19    1
    26    30    31   ar
    27    43    42    1
    28    43    39    1
    29    42    32   ar
    30    15     2    1
    31    31    32   ar
    32    31    34    1
    33    32     1    2
    34    35    34    1
    35    35    36    1
    36     2     8    2
    37    39     8    1
    38    39     5    2
    39     8     7    1
    40    38    36   ar
    41    36    37   ar
    42     1     5    1
    43     5     6    1
    44     7     6    2
    45     7     9    1
    46     6    10    1
    47    10    11    1
    48    13    12   ar
    49    12    11    1
    50    12    14   ar
