@<TRIPOS>MOLECULE
3n61_XFJ_A_1.pdb
 26 28 0 0 0
SMALL
GASTEIGER

@<TRIPOS>ATOM
      1  N01       13.1170    0.2660   24.2100 N.2   800  XFJ800     -0.3922
      2  C02       14.2400    0.1440   23.4730 C.2   800  XFJ800      0.2178
      3  N02       15.1340   -0.8040   23.8040 N.pl3 800  XFJ800     -0.0932
      4  C03       14.4690    0.9700   22.3680 C.2   800  XFJ800      0.0427
      5  C04       13.5360    1.9390   22.0420 C.2   800  XFJ800     -0.0333
      6  C05       12.4000    2.0700   22.8290 C.3   800  XFJ800      0.0766
      7  C06       12.1950    1.2150   23.9290 C.2   800  XFJ800      0.0928
      8  C07       13.7380    2.8550   20.8720 C.3   800  XFJ800      0.0269
      9  C08       10.9600    1.3270   24.7910 C.3   800  XFJ800      0.0595
     10  C09        9.7080    1.3870   23.9320 C.3   800  XFJ800      0.0350
     11  N11        6.8040   -0.2900   25.5980 N.ar  800  XFJ800     -0.2430
     12  C12        7.9230   -0.0720   24.8910 C.ar  800  XFJ800      0.0946
     13  C13        8.4520    1.2080   24.7490 C.ar  800  XFJ800     -0.0029
     14  C14        7.8060    2.2920   25.3600 C.ar  800  XFJ800     -0.0054
     15  C15        6.6420    2.0200   26.0990 C.ar  800  XFJ800     -0.0029
     16  C16        6.1630    0.7130   26.2030 C.ar  800  XFJ800      0.0946
     17  C17        5.8880    3.1200   26.8180 C.3   800  XFJ800      0.0353
     18  C18        4.9530    3.8230   25.8520 C.3   800  XFJ800      0.0637
     19  N21        5.1430    6.1590   26.6770 N.2   800  XFJ800     -0.3924
     20  C22        4.6750    7.2830   27.2790 C.2   800  XFJ800      0.2001
     21  N22        5.4770    8.3820   27.3800 N.pl3 800  XFJ800     -0.0977
     22  C23        3.3550    7.2800   27.7620 C.3   800  XFJ800      0.1001
     23  C24        2.5430    6.1370   27.6330 C.2   800  XFJ800     -0.0332
     24  C25        3.0600    5.0000   27.0190 C.2   800  XFJ800      0.0196
     25  C26        4.3770    5.0370   26.5450 C.2   800  XFJ800      0.1100
     26  C27        1.1270    6.1200   28.1530 C.3   800  XFJ800      0.0269
@<TRIPOS>BOND
     1     8     5    1
     2     5     4    2
     3     5     6    1
     4     4     2    1
     5     6     7    1
     6     2     3    1
     7     2     1    2
     8     7     1    2
     9     7     9    1
    10    10    13    1
    11    10     9    1
    12    13    12   ar
    13    13    14   ar
    14    12    11   ar
    15    14    15   ar
    16    11    16   ar
    17    18    25    1
    18    18    17    1
    19    15    16   ar
    20    15    17    1
    21    25    19    2
    22    25    24    1
    23    19    20    2
    24    24    23    2
    25    20    21    1
    26    20    22    1
    27    23    22    1
    28    23    26    1
