@<TRIPOS>MOLECULE
3n61_H4B_A_1.pdb
 17 18 0 0 0
SMALL
GASTEIGER

@<TRIPOS>ATOM
      1  N1         9.7330    2.5480   33.8710 N.2   760  H4B760     -0.2683
      2  C2         9.9020    2.1580   32.5880 C.1   760  H4B760      0.2608
      3  N2        11.1740    2.0140   32.0930 N.pl3 760  H4B760     -0.0220
      4  N3         8.8000    1.9250   31.8110 N.2   760  H4B760     -0.2474
      5  C4         7.5350    2.0610   32.2710 C.1   760  H4B760      0.2441
      6  O4         6.5700    1.8280   31.4920 O.2   760  H4B760     -0.2063
      7  C4A        7.3580    2.4680   33.5910 C.2   760  H4B760      0.2463
      8  C8A        8.4970    2.7060   34.3750 C.1   760  H4B760      0.1270
      9  N5         6.1330    2.6410   34.1330 N.2   760  H4B760     -0.2460
     10  N8         8.4120    3.1040   35.6670 N.2   760  H4B760     -0.2054
     11  C6         6.0800    3.6090   35.2210 C.3   760  H4B760      0.1627
     12  C7         7.1080    3.2850   36.2940 C.3   760  H4B760      0.1643
     13  C9         4.6920    3.7100   35.8480 C.3   760  H4B760      0.2063
     14  O9         4.2310    2.3840   36.1130 O.3   760  H4B760     -0.2183
     15  C10        4.6840    4.4960   37.1570 C.3   760  H4B760      0.1842
     16  C11        3.2520    4.6470   37.6290 C.3   760  H4B760      0.0383
     17  O10        5.2830    5.8040   37.0230 O.3   760  H4B760     -0.2204
@<TRIPOS>BOND
     1     6     5    2
     2     4     5    2
     3     4     2    2
     4     3     2    1
     5     5     7    1
     6     2     1    2
     7     7     9    2
     8     7     8    1
     9     1     8    2
    10     9    11    1
    11     8    10    2
    12    11    13    1
    13    11    12    1
    14    10    12    1
    15    13    14    1
    16    13    15    1
    17    17    15    1
    18    15    16    1
