@<TRIPOS>MOLECULE
3n61_HEM_A_1.pdb
 43 50 0 0 0
SMALL
GASTEIGER

@<TRIPOS>ATOM
      1  CHA       12.9000    4.6770   26.5860 C.2   750  HEM750      0.0000
      2  CHB       16.5440    1.5620   26.1370 C.2   750  HEM750      0.0000
      3  CHC       17.5400    3.4360   21.7770 C.2   750  HEM750      0.0000
      4  CHD       14.5420    7.1860   22.7020 C.2   750  HEM750      0.0000
      5  C1A       13.7040    3.6000   26.7780 C.2   750  HEM750      0.0000
      6  C2A       13.4930    2.5750   27.7630 C.2   750  HEM750      0.0000
      7  C3A       14.5100    1.7030   27.6490 C.2   750  HEM750      0.0000
      8  C4A       15.3840    2.1570   26.5720 C.2   750  HEM750      0.0000
      9  CMA       14.7480    0.4240   28.4850 C.3   750  HEM750      0.0000
     10  CAA       12.3250    2.4570   28.7720 C.3   750  HEM750      0.0000
     11  CBA       11.5940    1.1720   28.3490 C.3   750  HEM750      0.0000
     12  CGA       10.1400    1.3170   28.6610 C.2   750  HEM750      0.0000
     13  O1A        9.8950    1.6660   29.8340 O.co2 750  HEM750      0.0000
     14  O2A        9.2610    1.1040   27.7760 O.co2 750  HEM750      0.0000
     15  C1B       17.1360    1.7580   24.9070 C.ar  750  HEM750      0.0000
     16  C2B       18.2240    0.9810   24.3460 C.ar  750  HEM750      0.0000
     17  C3B       18.5220    1.4960   23.1370 C.ar  750  HEM750      0.0000
     18  C4B       17.6310    2.6320   22.9050 C.ar  750  HEM750      0.0000
     19  CMB       18.8700   -0.2510   25.0370 C.3   750  HEM750      0.0000
     20  CAB       19.6120    0.9040   22.2040 C.2   750  HEM750      0.0000
     21  CBB       20.0780    1.4700   21.0930 C.2   750  HEM750      0.0000
     22  C1C       16.7520    4.5760   21.6170 C.2   750  HEM750      0.0000
     23  C2C       16.7240    5.3890   20.4330 C.2   750  HEM750      0.0000
     24  C3C       15.8900    6.4280   20.6920 C.2   750  HEM750      0.0000
     25  C4C       15.3920    6.3120   22.0370 C.2   750  HEM750      0.0000
     26  CMC       17.4730    5.0140   19.1200 C.3   750  HEM750      0.0000
     27  CAC       15.5030    7.5870   19.7660 C.2   750  HEM750      0.0000
     28  CBC       16.3120    7.8470   18.7190 C.2   750  HEM750      0.0000
     29  C1D       13.7740    6.8210   23.7870 C.ar  750  HEM750      0.0000
     30  C2D       12.6200    7.5540   24.2810 C.ar  750  HEM750      0.0000
     31  C3D       12.1510    6.7560   25.4830 C.ar  750  HEM750      0.0000
     32  C4D       13.0310    5.6240   25.5950 C.ar  750  HEM750      0.0000
     33  CMD       12.0160    8.8690   23.7280 C.3   750  HEM750      0.0000
     34  CAD       10.9420    7.0460   26.3890 C.3   750  HEM750      0.0000
     35  CBD        9.8110    6.5700   25.4820 C.3   750  HEM750      0.0000
     36  CGD        8.4990    6.7170   26.1850 C.2   750  HEM750      0.0000
     37  O1D        8.3250    7.6830   26.9780 O.co2 750  HEM750      0.0000
     38  O2D        7.6430    5.8310   25.9220 O.co2 750  HEM750      0.0000
     39  NA        14.8830    3.3460   26.0830 N.2   750  HEM750      0.0000
     40  NB        16.8650    2.8010   24.0430 N.ar  750  HEM750      0.0000
     41  NC        15.9740    5.2090   22.5850 N.2   750  HEM750      0.0000
     42  ND        14.0220    5.7360   24.6270 N.ar  750  HEM750      0.0000
     43 FE         15.5270    4.3620   24.4180 Fe    750  HEM750      0.0000
@<TRIPOS>BOND
     1    28    27    2
     2    26    23    1
     3    27    24    1
     4    23    24    2
     5    23    22    1
     6    24    25    1
     7    21    20    2
     8    22     3    2
     9    22    41    1
    10     3    18    1
    11    25    41    2
    12    25     4    1
    13    20    17    1
    14    41    43    1
    15     4    29    2
    16    18    17   ar
    17    18    40   ar
    18    17    16   ar
    19    33    30    1
    20    29    30   ar
    21    29    42   ar
    22    40    43    1
    23    40    15   ar
    24    30    31   ar
    25    16    15   ar
    26    16    19    1
    27    43    42    1
    28    43    39    1
    29    42    32   ar
    30    15     2    1
    31    35    36    1
    32    35    34    1
    33    31    32   ar
    34    31    34    1
    35    32     1    2
    36    38    36   ar
    37    39     8    1
    38    39     5    2
    39     2     8    2
    40    36    37   ar
    41     8     7    1
    42     1     5    1
    43     5     6    1
    44     7     6    2
    45     7     9    1
    46     6    10    1
    47    14    12   ar
    48    11    12    1
    49    11    10    1
    50    12    13   ar
