@<TRIPOS>MOLECULE
3n62_XFJ_A_1.pdb
 26 28 0 0 0
SMALL
GASTEIGER

@<TRIPOS>ATOM
      1  N01       13.0540    0.3740   24.1980 N.2   800  XFJ800     -0.3924
      2  C02       14.1720    0.2060   23.4590 C.2   800  XFJ800      0.2001
      3  N02       15.0280   -0.7820   23.8000 N.pl3 800  XFJ800     -0.0977
      4  C03       14.4440    1.0440   22.3590 C.3   800  XFJ800      0.1001
      5  C04       13.5490    2.0660   22.0530 C.2   800  XFJ800     -0.0332
      6  C05       12.4210    2.2260   22.8350 C.2   800  XFJ800      0.0196
      7  C06       12.1710    1.3640   23.9260 C.2   800  XFJ800      0.1100
      8  C07       13.7810    2.9870   20.8540 C.3   800  XFJ800      0.0269
      9  C08       10.9130    1.5170   24.7740 C.3   800  XFJ800      0.0637
     10  C09        9.6410    1.3960   23.9380 C.3   800  XFJ800      0.0353
     11  N11        6.7660   -0.1730   25.7410 N.ar  800  XFJ800     -0.2430
     12  C12        7.8440    0.0120   24.9820 C.ar  800  XFJ800      0.0946
     13  C13        8.4130    1.2760   24.8170 C.ar  800  XFJ800     -0.0029
     14  C14        7.8320    2.3830   25.4670 C.ar  800  XFJ800     -0.0054
     15  C15        6.6930    2.1470   26.2580 C.ar  800  XFJ800     -0.0029
     16  C16        6.1850    0.8480   26.3850 C.ar  800  XFJ800      0.0946
     17  C17        6.0070    3.2760   26.9940 C.3   800  XFJ800      0.0353
     18  C18        4.7740    3.7100   26.1990 C.3   800  XFJ800      0.0637
     19  N21        5.0690    6.1200   26.7430 N.2   800  XFJ800     -0.3924
     20  C22        4.6490    7.3180   27.2240 C.2   800  XFJ800      0.2001
     21  N22        5.4960    8.3870   27.2230 N.pl3 800  XFJ800     -0.0977
     22  C23        3.3350    7.4330   27.7040 C.3   800  XFJ800      0.1001
     23  C24        2.4760    6.3190   27.6930 C.2   800  XFJ800     -0.0332
     24  C25        2.9480    5.0950   27.1990 C.2   800  XFJ800      0.0196
     25  C26        4.2640    5.0210   26.7400 C.2   800  XFJ800      0.1100
     26  C27        1.0560    6.4200   28.2110 C.3   800  XFJ800      0.0269
@<TRIPOS>BOND
     1     8     5    1
     2     5     4    1
     3     5     6    2
     4     4     2    1
     5     6     7    1
     6     2     3    1
     7     2     1    2
     8     7     1    2
     9     7     9    1
    10    10     9    1
    11    10    13    1
    12    13    12   ar
    13    13    14   ar
    14    12    11   ar
    15    14    15   ar
    16    11    16   ar
    17    18    25    1
    18    18    17    1
    19    15    16   ar
    20    15    17    1
    21    25    19    2
    22    25    24    1
    23    19    20    2
    24    24    23    2
    25    21    20    1
    26    20    22    1
    27    23    22    1
    28    23    26    1
