@<TRIPOS>MOLECULE
3n62_H4B_A_1.pdb
 17 18 0 0 0
SMALL
GASTEIGER

@<TRIPOS>ATOM
      1  N1        14.6090    3.1440   48.5660 N.2   760  H4B760     -0.2683
      2  C2        14.7690    2.7780   49.8500 C.1   760  H4B760      0.2608
      3  N2        13.8030    2.0480   50.4540 N.pl3 760  H4B760     -0.0220
      4  N3        15.8860    3.1380   50.5360 N.2   760  H4B760     -0.2474
      5  C4        16.8630    3.8560   49.9520 C.1   760  H4B760      0.2441
      6  O4        17.9010    4.1790   50.5820 O.2   760  H4B760     -0.2063
      7  C4A       16.7070    4.2360   48.6390 C.2   760  H4B760      0.2463
      8  C8A       15.5650    3.8780   47.9510 C.1   760  H4B760      0.1270
      9  N5        17.6520    4.9670   48.0210 N.2   760  H4B760     -0.2460
     10  N8        15.4040    4.2470   46.6560 N.2   760  H4B760     -0.2054
     11  C6        17.1870    5.8470   46.9620 C.3   760  H4B760      0.1627
     12  C7        16.4130    5.0300   45.9340 C.3   760  H4B760      0.1643
     13  C9        18.3650    6.5600   46.3200 C.3   760  H4B760      0.2063
     14  O9        19.2800    5.5680   45.8800 O.3   760  H4B760     -0.2183
     15  C10       17.9430    7.4460   45.1570 C.3   760  H4B760      0.1842
     16  C11       19.1250    7.7280   44.2220 C.3   760  H4B760      0.0383
     17  O10       17.4210    8.6740   45.6920 O.3   760  H4B760     -0.2204
@<TRIPOS>BOND
     1    16    15    1
     2    15    17    1
     3    15    13    1
     4    14    13    1
     5    12    10    1
     6    12    11    1
     7    13    11    1
     8    10     8    2
     9    11     9    1
    10     8     1    2
    11     8     7    1
    12     9     7    2
    13     1     2    2
    14     7     5    1
    15     2     3    1
    16     2     4    2
    17     5     4    2
    18     5     6    2
