@<TRIPOS>MOLECULE
3n62_HEM_A_1.pdb
 43 50 0 0 0
SMALL
GASTEIGER

@<TRIPOS>ATOM
      1  CHA       12.8560    4.5490   26.4520 C.2   750  HEM750      0.0000
      2  CHB       16.5030    1.4230   26.0010 C.2   750  HEM750      0.0000
      3  CHC       17.4830    3.3040   21.6790 C.2   750  HEM750      0.0000
      4  CHD       14.5790    7.1050   22.6450 C.2   750  HEM750      0.0000
      5  C1A       13.6820    3.4840   26.6550 C.2   750  HEM750      0.0000
      6  C2A       13.5150    2.4750   27.6760 C.2   750  HEM750      0.0000
      7  C3A       14.5250    1.6020   27.5580 C.2   750  HEM750      0.0000
      8  C4A       15.3530    2.0350   26.4420 C.2   750  HEM750      0.0000
      9  CMA       14.8280    0.3380   28.4160 C.3   750  HEM750      0.0000
     10  CAA       12.3730    2.4410   28.7310 C.3   750  HEM750      0.0000
     11  CBA       11.6620    1.0850   28.7420 C.3   750  HEM750      0.0000
     12  CGA       11.0180    0.8430   30.0910 C.2   750  HEM750      0.0000
     13  O1A       11.6670    1.0900   31.1350 O.co2 750  HEM750      0.0000
     14  O2A        9.8400    0.3910   30.1240 O.co2 750  HEM750      0.0000
     15  C1B       17.1090    1.6660   24.8050 C.ar  750  HEM750      0.0000
     16  C2B       18.2140    0.9120   24.2620 C.ar  750  HEM750      0.0000
     17  C3B       18.4960    1.4170   23.0620 C.ar  750  HEM750      0.0000
     18  C4B       17.5890    2.5240   22.8170 C.ar  750  HEM750      0.0000
     19  CMB       18.9090   -0.2940   24.9570 C.3   750  HEM750      0.0000
     20  CAB       19.6240    0.8410   22.1730 C.2   750  HEM750      0.0000
     21  CBB       20.0730    1.3760   21.0450 C.2   750  HEM750      0.0000
     22  C1C       16.7500    4.4730   21.5590 C.2   750  HEM750      0.0000
     23  C2C       16.7760    5.3190   20.3970 C.2   750  HEM750      0.0000
     24  C3C       15.9880    6.3770   20.6520 C.2   750  HEM750      0.0000
     25  C4C       15.4410    6.2300   21.9910 C.2   750  HEM750      0.0000
     26  CMC       17.5740    4.9660   19.1080 C.3   750  HEM750      0.0000
     27  CAC       15.6850    7.5660   19.7250 C.2   750  HEM750      0.0000
     28  CBC       16.4170    7.7230   18.6150 C.2   750  HEM750      0.0000
     29  C1D       13.8000    6.7480   23.7320 C.ar  750  HEM750      0.0000
     30  C2D       12.6550    7.4830   24.1970 C.ar  750  HEM750      0.0000
     31  C3D       12.1490    6.6930   25.3870 C.ar  750  HEM750      0.0000
     32  C4D       13.0060    5.5410   25.5060 C.ar  750  HEM750      0.0000
     33  CMD       12.0910    8.8190   23.6410 C.3   750  HEM750      0.0000
     34  CAD       10.9090    7.0210   26.2350 C.3   750  HEM750      0.0000
     35  CBD        9.8090    6.4270   25.3370 C.3   750  HEM750      0.0000
     36  CGD        8.4420    6.6460   25.9330 C.2   750  HEM750      0.0000
     37  O1D        8.2230    7.6770   26.6300 O.co2 750  HEM750      0.0000
     38  O2D        7.5710    5.7790   25.6850 O.co2 750  HEM750      0.0000
     39  NA        14.8090    3.1840   25.9130 N.2   750  HEM750      0.0000
     40  NB        16.7460    2.6550   23.9090 N.ar  750  HEM750      0.0000
     41  NC        15.9110    5.0450   22.4940 N.2   750  HEM750      0.0000
     42  ND        13.9670    5.6030   24.5150 N.ar  750  HEM750      0.0000
     43 FE         15.6400    4.3570   24.4090 Fe    750  HEM750      0.0000
@<TRIPOS>BOND
     1    28    27    2
     2    26    23    1
     3    27    24    1
     4    23    24    2
     5    23    22    1
     6    24    25    1
     7    21    20    2
     8    22     3    2
     9    22    41    1
    10     3    18    1
    11    25    41    2
    12    25     4    1
    13    20    17    1
    14    41    43    1
    15     4    29    2
    16    18    17   ar
    17    18    40   ar
    18    17    16   ar
    19    33    30    1
    20    29    30   ar
    21    29    42   ar
    22    40    43    1
    23    40    15   ar
    24    30    31   ar
    25    16    15   ar
    26    16    19    1
    27    43    42    1
    28    43    39    1
    29    42    32   ar
    30    15     2    1
    31    35    36    1
    32    35    34    1
    33    31    32   ar
    34    31    34    1
    35    32     1    2
    36    38    36   ar
    37    39     8    1
    38    39     5    2
    39    36    37   ar
    40     2     8    2
    41     8     7    1
    42     1     5    1
    43     5     6    1
    44     7     6    2
    45     7     9    1
    46     6    10    1
    47    10    11    1
    48    11    12    1
    49    12    14   ar
    50    12    13   ar
