@<TRIPOS>MOLECULE
3n62_MTL_A_1.pdb
 12 11 0 0 0
SMALL
GASTEIGER

@<TRIPOS>ATOM
      1  O1         1.9870    3.4290   23.7770 O.3   870  MTL870     -0.2175
      2  C1         0.8890    4.3350   23.9750 C.3   870  MTL870      0.2175
      3  C2        -0.3000    3.9730   23.0740 C.3   870  MTL870      0.2175
      4  O2        -0.0020    4.2760   21.7110 O.3   870  MTL870     -0.2175
      5  C3        -0.7290    2.5120   23.1230 C.3   870  MTL870      0.2175
      6  O3        -0.9820    2.1060   24.4780 O.3   870  MTL870     -0.2175
      7  C4        -2.0050    2.3300   22.3090 C.3   870  MTL870      0.2175
      8  O4        -3.0340    3.1720   22.8370 O.3   870  MTL870     -0.2175
      9  C5        -2.5180    0.9020   22.3300 C.3   870  MTL870      0.2175
     10  O5        -1.4040    0.0320   22.1040 O.3   870  MTL870     -0.2175
     11  C6        -3.5910    0.7030   21.2460 C.3   870  MTL870      0.2175
     12  O6        -4.3120   -0.5380   21.3620 O.3   870  MTL870     -0.2175
@<TRIPOS>BOND
     1    11    12    1
     2    11     9    1
     3     4     3    1
     4    10     9    1
     5     7     9    1
     6     7     8    1
     7     7     5    1
     8     3     5    1
     9     3     2    1
    10     5     6    1
    11     1     2    1
