@<TRIPOS>MOLECULE
3n63_HEM_A_1.pdb
 43 50 0 0 0
SMALL
GASTEIGER

@<TRIPOS>ATOM
      1  CHA       12.7820    4.5160   26.6500 C.2   750  HEM750      0.0000
      2  CHB       16.5070    1.4950   26.1520 C.2   750  HEM750      0.0000
      3  CHC       17.4340    3.2850   21.7360 C.2   750  HEM750      0.0000
      4  CHD       14.4090    7.0010   22.7080 C.2   750  HEM750      0.0000
      5  C1A       13.6290    3.4570   26.8780 C.2   750  HEM750      0.0000
      6  C2A       13.4800    2.4300   27.8840 C.2   750  HEM750      0.0000
      7  C3A       14.5270    1.5950   27.7400 C.2   750  HEM750      0.0000
      8  C4A       15.3360    2.0610   26.6250 C.2   750  HEM750      0.0000
      9  CMA       14.8740    0.3100   28.5450 C.3   750  HEM750      0.0000
     10  CAA       12.2710    2.4360   28.8780 C.3   750  HEM750      0.0000
     11  CBA       12.5010    1.7740   30.2360 C.3   750  HEM750      0.0000
     12  CGA       11.9990    0.3400   30.1990 C.2   750  HEM750      0.0000
     13  O1A       11.5020   -0.0960   29.1190 O.co2 750  HEM750      0.0000
     14  O2A       12.1180   -0.3650   31.2530 O.co2 750  HEM750      0.0000
     15  C1B       17.0730    1.6610   24.9040 C.ar  750  HEM750      0.0000
     16  C2B       18.1310    0.8600   24.3390 C.ar  750  HEM750      0.0000
     17  C3B       18.3960    1.3380   23.1120 C.ar  750  HEM750      0.0000
     18  C4B       17.5310    2.4950   22.8730 C.ar  750  HEM750      0.0000
     19  CMB       18.7890   -0.3690   25.0240 C.3   750  HEM750      0.0000
     20  CAB       19.4450    0.7410   22.1460 C.2   750  HEM750      0.0000
     21  CBB       20.1380    1.4550   21.2470 C.2   750  HEM750      0.0000
     22  C1C       16.6470    4.4330   21.5910 C.2   750  HEM750      0.0000
     23  C2C       16.6010    5.2850   20.4200 C.2   750  HEM750      0.0000
     24  C3C       15.7870    6.3060   20.6980 C.2   750  HEM750      0.0000
     25  C4C       15.2870    6.1530   22.0450 C.2   750  HEM750      0.0000
     26  CMC       17.3430    5.0070   19.0850 C.3   750  HEM750      0.0000
     27  CAC       15.4110    7.4580   19.7560 C.2   750  HEM750      0.0000
     28  CBC       16.2140    7.7180   18.7290 C.2   750  HEM750      0.0000
     29  C1D       13.6690    6.6630   23.8290 C.ar  750  HEM750      0.0000
     30  C2D       12.5370    7.4050   24.3450 C.ar  750  HEM750      0.0000
     31  C3D       12.0770    6.6270   25.5650 C.ar  750  HEM750      0.0000
     32  C4D       12.9100    5.4640   25.6450 C.ar  750  HEM750      0.0000
     33  CMD       11.9420    8.7480   23.8540 C.3   750  HEM750      0.0000
     34  CAD       10.9020    6.9720   26.5030 C.3   750  HEM750      0.0000
     35  CBD        9.6580    6.3430   25.8670 C.3   750  HEM750      0.0000
     36  CGD        8.4590    6.7530   26.6700 C.2   750  HEM750      0.0000
     37  O1D        8.5340    7.7300   27.4510 O.co2 750  HEM750      0.0000
     38  O2D        7.4060    6.0970   26.5260 O.co2 750  HEM750      0.0000
     39  NA        14.7520    3.2070   26.1320 N.2   750  HEM750      0.0000
     40  NB        16.7520    2.6600   23.9990 N.ar  750  HEM750      0.0000
     41  NC        15.8170    4.9940   22.5500 N.2   750  HEM750      0.0000
     42  ND        13.8710    5.5300   24.6200 N.ar  750  HEM750      0.0000
     43 FE         15.4960    4.3070   24.4840 Fe    750  HEM750      0.0000
@<TRIPOS>BOND
     1    28    27    2
     2    26    23    1
     3    27    24    1
     4    23    24    2
     5    23    22    1
     6    24    25    1
     7    21    20    2
     8    22     3    2
     9    22    41    1
    10     3    18    1
    11    25    41    2
    12    25     4    1
    13    20    17    1
    14    41    43    1
    15     4    29    2
    16    18    17   ar
    17    18    40   ar
    18    17    16   ar
    19    29    30   ar
    20    29    42   ar
    21    33    30    1
    22    40    43    1
    23    40    15   ar
    24    16    15   ar
    25    16    19    1
    26    30    31   ar
    27    43    42    1
    28    43    39    1
    29    42    32   ar
    30    15     2    1
    31    31    32   ar
    32    31    34    1
    33    32     1    2
    34    35    34    1
    35    35    36    1
    36    39     8    1
    37    39     5    2
    38     2     8    2
    39    38    36   ar
    40     8     7    1
    41     1     5    1
    42    36    37   ar
    43     5     6    1
    44     7     6    2
    45     7     9    1
    46     6    10    1
    47    10    11    1
    48    13    12   ar
    49    12    11    1
    50    12    14   ar
