@<TRIPOS>MOLECULE
3n63_XFN_A_1.pdb
 27 29 0 0 0
SMALL
GASTEIGER

@<TRIPOS>ATOM
      1  C01        6.4520    0.6050   27.4690 C.ar  800  XFN800      0.0138
      2  C02        6.2310    0.3590   26.1050 C.ar  800  XFN800      0.0885
      3  N02        4.9900   -0.0140   25.6810 N.pl3 800  XFN800     -0.1281
      4  C03        7.2840    0.4950   25.1880 C.ar  800  XFN800      0.0138
      5  C04        8.5650    0.8800   25.6230 C.ar  800  XFN800     -0.0207
      6  C05        8.7730    1.1370   27.0150 C.ar  800  XFN800     -0.0084
      7  C06        7.7150    0.9970   27.9390 C.ar  800  XFN800     -0.0207
      8  C07        9.6550    0.9960   24.5550 C.3   800  XFN800      0.0338
      9  C08        7.9410    1.2550   29.4290 C.3   800  XFN800      0.0335
     10  C09        6.6550    1.3170   30.2600 C.3   800  XFN800      0.0595
     11  C11        5.5340    2.4920   33.6620 C.2   800  XFN800      0.2178
     12  N12        5.5920    2.0640   32.3660 N.2   800  XFN800     -0.3922
     13  C13        6.7740    1.8050   31.7150 C.2   800  XFN800      0.0928
     14  C14        7.9790    1.9980   32.4200 C.3   800  XFN800      0.0766
     15  C15        7.9130    2.4500   33.7590 C.2   800  XFN800     -0.0333
     16  C16        6.6970    2.6920   34.3850 C.2   800  XFN800      0.0427
     17  N17        4.3420    2.7310   34.2500 N.pl3 800  XFN800     -0.0932
     18  C18        9.1470    2.6970   34.5880 C.3   800  XFN800      0.0269
     19  C34       10.9970    1.4880   25.0980 C.3   800  XFN800      0.0637
     20  C35       12.1470    1.2880   24.1340 C.2   800  XFN800      0.1100
     21  C36       12.3080    2.1640   23.0510 C.2   800  XFN800      0.0196
     22  C37       13.3640    1.9870   22.1750 C.2   800  XFN800     -0.0332
     23  C38       14.2770    0.9610   22.3800 C.3   800  XFN800      0.1001
     24  C39       14.1100    0.1120   23.4700 C.2   800  XFN800      0.2001
     25  N40       13.0510    0.2770   24.3090 N.2   800  XFN800     -0.3924
     26  N41       15.0190   -0.8750   23.6620 N.pl3 800  XFN800     -0.0977
     27  C42       13.5280    2.8950   20.9830 C.3   800  XFN800      0.0269
@<TRIPOS>BOND
     1    27    22    1
     2    22    23    1
     3    22    21    2
     4    23    24    1
     5    21    20    1
     6    24    26    1
     7    24    25    2
     8    20    25    2
     9    20    19    1
    10     8    19    1
    11     8     5    1
    12     4     5   ar
    13     4     2   ar
    14     5     6   ar
    15     3     2    1
    16     2     1   ar
    17     6     7   ar
    18     1     7   ar
    19     7     9    1
    20     9    10    1
    21    10    13    1
    22    13    12    2
    23    13    14    1
    24    12    11    2
    25    14    15    1
    26    11    17    1
    27    11    16    1
    28    15    16    2
    29    15    18    1
