@<TRIPOS>MOLECULE
3n64_XFN_A_1.pdb
 27 29 0 0 0
SMALL
GASTEIGER

@<TRIPOS>ATOM
      1  C01        7.4590    0.4840   25.2230 C.ar  800  XFN800      0.0138
      2  C02        6.3520    0.3810   26.0740 C.ar  800  XFN800      0.0885
      3  N02        5.1380    0.0070   25.5950 N.pl3 800  XFN800     -0.1281
      4  C03        6.4900    0.6360   27.4380 C.ar  800  XFN800      0.0138
      5  C04        7.7280    1.0200   27.9630 C.ar  800  XFN800     -0.0207
      6  C05        8.8540    1.1370   27.1020 C.ar  800  XFN800     -0.0084
      7  C06        8.7160    0.8670   25.7120 C.ar  800  XFN800     -0.0207
      8  C07        7.8380    1.2760   29.4600 C.3   800  XFN800      0.0335
      9  C08        9.8470    0.9370   24.6760 C.3   800  XFN800      0.0338
     10  C09       11.0720    1.7360   25.1080 C.3   800  XFN800      0.0637
     11  C11       14.0980    0.1440   23.5030 C.2   800  XFN800      0.2001
     12  N12       13.0510    0.3810   24.3390 N.2   800  XFN800     -0.3924
     13  C13       12.2290    1.4490   24.1670 C.2   800  XFN800      0.1100
     14  C14       12.4370    2.3010   23.0820 C.2   800  XFN800      0.0196
     15  C15       13.4750    2.0520   22.2080 C.2   800  XFN800     -0.0332
     16  C16       14.3200    0.9730   22.4050 C.3   800  XFN800      0.1001
     17  N17       14.9110   -0.9170   23.6950 N.pl3 800  XFN800     -0.0977
     18  C18       13.6640    2.9760   21.0320 C.3   800  XFN800      0.0269
     19  C34        6.5320    1.7120   30.1050 C.3   800  XFN800      0.0595
     20  C35        6.6400    2.0060   31.5920 C.2   800  XFN800      0.0928
     21  C36        7.8390    2.1600   32.3050 C.3   800  XFN800      0.0766
     22  C37        7.7700    2.4370   33.6880 C.2   800  XFN800     -0.0333
     23  C38        6.5440    2.5320   34.3420 C.2   800  XFN800      0.0427
     24  C39        5.3800    2.3830   33.5970 C.2   800  XFN800      0.2178
     25  N40        5.4660    2.1140   32.2600 N.2   800  XFN800     -0.3922
     26  N41        4.1470    2.4840   34.1830 N.pl3 800  XFN800     -0.0932
     27  C42        9.0280    2.6310   34.4990 C.3   800  XFN800      0.0269
@<TRIPOS>BOND
     1    18    15    1
     2    15    16    1
     3    15    14    2
     4    16    11    1
     5    14    13    1
     6    11    17    1
     7    11    12    2
     8    13    12    2
     9    13    10    1
    10     9    10    1
    11     9     7    1
    12     1     7   ar
    13     1     2   ar
    14     3     2    1
    15     7     6   ar
    16     2     4   ar
    17     6     5   ar
    18     4     5   ar
    19     5     8    1
    20     8    19    1
    21    19    20    1
    22    20    25    2
    23    20    21    1
    24    25    24    2
    25    21    22    1
    26    24    26    1
    27    24    23    1
    28    22    23    2
    29    22    27    1
