@<TRIPOS>MOLECULE
3n64_HEM_A_1.pdb
 43 50 0 0 0
SMALL
GASTEIGER

@<TRIPOS>ATOM
      1  CHA       12.9610    4.5180   26.6160 C.2   750  HEM750      0.0000
      2  CHB       16.5770    1.3570   26.0120 C.2   750  HEM750      0.0000
      3  CHC       17.4980    3.2340   21.6360 C.2   750  HEM750      0.0000
      4  CHD       14.4400    6.9080   22.6120 C.2   750  HEM750      0.0000
      5  C1A       13.7660    3.4150   26.7940 C.2   750  HEM750      0.0000
      6  C2A       13.6080    2.4030   27.8190 C.2   750  HEM750      0.0000
      7  C3A       14.6040    1.5040   27.6340 C.2   750  HEM750      0.0000
      8  C4A       15.4230    1.9480   26.5060 C.2   750  HEM750      0.0000
      9  CMA       14.8990    0.2130   28.4590 C.3   750  HEM750      0.0000
     10  CAA       12.4310    2.4350   28.8400 C.3   750  HEM750      0.0000
     11  CBA       12.5960    1.7090   30.1900 C.3   750  HEM750      0.0000
     12  CGA       12.2500    0.2320   30.0900 C.2   750  HEM750      0.0000
     13  O1A       11.6000   -0.1500   29.0740 O.co2 750  HEM750      0.0000
     14  O2A       12.6450   -0.5620   31.0150 O.co2 750  HEM750      0.0000
     15  C1B       17.1380    1.5820   24.7750 C.ar  750  HEM750      0.0000
     16  C2B       18.2120    0.8140   24.2000 C.ar  750  HEM750      0.0000
     17  C3B       18.4850    1.3070   22.9840 C.ar  750  HEM750      0.0000
     18  C4B       17.5960    2.4460   22.7650 C.ar  750  HEM750      0.0000
     19  CMB       18.8760   -0.4050   24.9000 C.3   750  HEM750      0.0000
     20  CAB       19.5810    0.7050   22.0580 C.2   750  HEM750      0.0000
     21  CBB       20.1930    1.3270   21.0530 C.2   750  HEM750      0.0000
     22  C1C       16.7130    4.3700   21.5170 C.2   750  HEM750      0.0000
     23  C2C       16.6770    5.2080   20.3490 C.2   750  HEM750      0.0000
     24  C3C       15.8460    6.2370   20.6170 C.2   750  HEM750      0.0000
     25  C4C       15.3260    6.0680   21.9580 C.2   750  HEM750      0.0000
     26  CMC       17.4780    4.8780   19.0590 C.3   750  HEM750      0.0000
     27  CAC       15.4590    7.3950   19.6950 C.2   750  HEM750      0.0000
     28  CBC       16.2560    7.6990   18.6610 C.2   750  HEM750      0.0000
     29  C1D       13.7370    6.6070   23.7590 C.ar  750  HEM750      0.0000
     30  C2D       12.6320    7.3790   24.2870 C.ar  750  HEM750      0.0000
     31  C3D       12.1920    6.6090   25.5190 C.ar  750  HEM750      0.0000
     32  C4D       13.0410    5.4540   25.6110 C.ar  750  HEM750      0.0000
     33  CMD       11.9940    8.7000   23.7880 C.3   750  HEM750      0.0000
     34  CAD       11.0520    6.9740   26.4740 C.3   750  HEM750      0.0000
     35  CBD        9.8130    6.3780   25.8080 C.3   750  HEM750      0.0000
     36  CGD        8.5760    6.7300   26.5840 C.2   750  HEM750      0.0000
     37  O1D        8.5020    7.8090   27.2150 O.co2 750  HEM750      0.0000
     38  O2D        7.6460    5.9110   26.5420 O.co2 750  HEM750      0.0000
     39  NA        14.8910    3.1250   26.0380 N.2   750  HEM750      0.0000
     40  NB        16.7800    2.5870   23.8810 N.ar  750  HEM750      0.0000
     41  NC        15.8630    4.9100   22.4580 N.2   750  HEM750      0.0000
     42  ND        13.9360    5.4810   24.5510 N.ar  750  HEM750      0.0000
     43 FE         15.5960    4.2640   24.4020 Fe    750  HEM750      0.0000
@<TRIPOS>BOND
     1    28    27    2
     2    26    23    1
     3    27    24    1
     4    23    24    2
     5    23    22    1
     6    24    25    1
     7    21    20    2
     8    22     3    2
     9    22    41    1
    10     3    18    1
    11    25    41    2
    12    25     4    1
    13    20    17    1
    14    41    43    1
    15     4    29    2
    16    18    17   ar
    17    18    40   ar
    18    17    16   ar
    19    29    30   ar
    20    29    42   ar
    21    33    30    1
    22    40    43    1
    23    40    15   ar
    24    16    15   ar
    25    16    19    1
    26    30    31   ar
    27    43    42    1
    28    43    39    1
    29    42    32   ar
    30    15     2    1
    31    31    32   ar
    32    31    34    1
    33    32     1    2
    34    35    34    1
    35    35    36    1
    36     2     8    2
    37    39     8    1
    38    39     5    2
    39     8     7    1
    40    38    36   ar
    41    36    37   ar
    42     1     5    1
    43     5     6    1
    44     7     6    2
    45     7     9    1
    46     6    10    1
    47    10    11    1
    48    13    12   ar
    49    12    11    1
    50    12    14   ar
