@<TRIPOS>MOLECULE
3n65_XFJ_A_1.pdb
 26 28 0 0 0
SMALL
GASTEIGER

@<TRIPOS>ATOM
      1  N01       13.2380    0.4790   24.1000 N.2   800  XFJ800     -0.3922
      2  C02       14.3620    0.3050   23.3660 C.2   800  XFJ800      0.2178
      3  N02       15.2190   -0.6810   23.7340 N.pl3 800  XFJ800     -0.0932
      4  C03       14.6220    1.1290   22.2430 C.2   800  XFJ800      0.0427
      5  C04       13.7050    2.1310   21.9400 C.2   800  XFJ800     -0.0333
      6  C05       12.5530    2.2860   22.7190 C.3   800  XFJ800      0.0766
      7  C06       12.3290    1.4520   23.8210 C.2   800  XFJ800      0.0928
      8  C07       13.9280    3.0550   20.7400 C.3   800  XFJ800      0.0269
      9  C08       11.0760    1.6110   24.6730 C.3   800  XFJ800      0.0595
     10  C09        9.8100    1.4820   23.8220 C.3   800  XFJ800      0.0350
     11  N11        6.8800   -0.1850   25.4770 N.ar  800  XFJ800     -0.2430
     12  C12        7.9760    0.0440   24.7380 C.ar  800  XFJ800      0.0946
     13  C13        8.5560    1.3140   24.6740 C.ar  800  XFJ800     -0.0029
     14  C14        7.9580    2.3710   25.3710 C.ar  800  XFJ800     -0.0054
     15  C15        6.7850    2.0900   26.1140 C.ar  800  XFJ800     -0.0029
     16  C16        6.2750    0.7960   26.1500 C.ar  800  XFJ800      0.0946
     17  C17        6.0500    3.1370   26.9180 C.3   800  XFJ800      0.0353
     18  C18        5.0050    3.7950   26.0210 C.3   800  XFJ800      0.0637
     19  N21        5.1890    6.1770   26.6640 N.2   800  XFJ800     -0.3924
     20  C22        4.7540    7.3320   27.2090 C.2   800  XFJ800      0.2001
     21  N22        5.5630    8.4310   27.2140 N.pl3 800  XFJ800     -0.0977
     22  C23        3.4420    7.3790   27.7230 C.3   800  XFJ800      0.1001
     23  C24        2.6400    6.2300   27.6890 C.2   800  XFJ800     -0.0332
     24  C25        3.1340    5.0500   27.1220 C.2   800  XFJ800      0.0196
     25  C26        4.4430    5.0510   26.6380 C.2   800  XFJ800      0.1100
     26  C27        1.2310    6.2690   28.2450 C.3   800  XFJ800      0.0269
@<TRIPOS>BOND
     1     8     5    1
     2     5     4    2
     3     5     6    1
     4     4     2    1
     5     6     7    1
     6     2     3    1
     7     2     1    2
     8     7     1    2
     9     7     9    1
    10    10     9    1
    11    10    13    1
    12    13    12   ar
    13    13    14   ar
    14    12    11   ar
    15    14    15   ar
    16    11    16   ar
    17    18    25    1
    18    18    17    1
    19    15    16   ar
    20    15    17    1
    21    25    19    2
    22    25    24    1
    23    19    20    2
    24    24    23    2
    25    20    21    1
    26    20    22    1
    27    23    22    1
    28    23    26    1
