@<TRIPOS>MOLECULE
3n65_H4B_A_1.pdb
 17 18 0 0 0
SMALL
GASTEIGER

@<TRIPOS>ATOM
      1  N1         9.6500    2.4900   34.0230 N.2   760  H4B760     -0.2683
      2  C2         9.8860    2.3110   32.7170 C.1   760  H4B760      0.2608
      3  N2        11.1750    2.1560   32.3360 N.pl3 760  H4B760     -0.0220
      4  N3         8.8730    2.2850   31.8140 N.2   760  H4B760     -0.2474
      5  C4         7.5950    2.4470   32.2270 C.1   760  H4B760      0.2441
      6  O4         6.6580    2.4250   31.3960 O.2   760  H4B760     -0.2063
      7  C4A        7.3440    2.6300   33.5770 C.2   760  H4B760      0.2463
      8  C8A        8.4000    2.6550   34.4690 C.1   760  H4B760      0.1270
      9  N5         6.1020    2.8100   34.0620 N.2   760  H4B760     -0.2460
     10  N8         8.2100    2.8390   35.7970 N.2   760  H4B760     -0.2054
     11  C6         6.0430    3.6630   35.2310 C.3   760  H4B760      0.1627
     12  C7         6.8730    3.0180   36.3350 C.3   760  H4B760      0.1643
     13  C9         4.6140    3.9400   35.6970 C.3   760  H4B760      0.2063
     14  O9         4.0190    2.6930   36.0770 O.3   760  H4B760     -0.2183
     15  C10        4.6440    4.9370   36.8680 C.3   760  H4B760      0.1842
     16  C11        3.5820    4.6440   37.9170 C.3   760  H4B760      0.0383
     17  O10        4.5140    6.2740   36.3630 O.3   760  H4B760     -0.2204
@<TRIPOS>BOND
     1     6     5    2
     2     4     5    2
     3     4     2    2
     4     5     7    1
     5     3     2    1
     6     2     1    2
     7     7     9    2
     8     7     8    1
     9     1     8    2
    10     9    11    1
    11     8    10    2
    12    11    13    1
    13    11    12    1
    14    13    14    1
    15    13    15    1
    16    10    12    1
    17    17    15    1
    18    15    16    1
