@<TRIPOS>MOLECULE
3n65_MTL_B_1.pdb
 12 11 0 0 0
SMALL
GASTEIGER

@<TRIPOS>ATOM
      1  O1        20.9220    7.4580   58.6190 O.3   870  MTL870     -0.2175
      2  C1        21.9230    8.3010   58.0260 C.3   870  MTL870      0.2175
      3  C2        23.1410    8.4360   58.9540 C.3   870  MTL870      0.2175
      4  O2        22.7110    8.6150   60.3140 O.3   870  MTL870     -0.2175
      5  C3        24.1140    7.2400   58.8640 C.3   870  MTL870      0.2175
      6  O3        24.4570    6.9560   57.4780 O.3   870  MTL870     -0.2175
      7  C4        25.4030    7.5440   59.6440 C.3   870  MTL870      0.2175
      8  O4        26.0100    8.7120   59.0710 O.3   870  MTL870     -0.2175
      9  C5        26.4190    6.4060   59.6600 C.3   870  MTL870      0.2175
     10  O5        25.7540    5.1970   60.0420 O.3   870  MTL870     -0.2175
     11  C6        27.5840    6.6920   60.6370 C.3   870  MTL870      0.2175
     12  O6        28.5910    5.6570   60.5800 O.3   870  MTL870     -0.2175
@<TRIPOS>BOND
     1     6     5    1
     2     2     1    1
     3     2     3    1
     4     5     3    1
     5     5     7    1
     6     3     4    1
     7     8     7    1
     8     7     9    1
     9     9    10    1
    10     9    11    1
    11    12    11    1
