@<TRIPOS>MOLECULE
3n65_HEM_A_1.pdb
 43 50 0 0 0
SMALL
GASTEIGER

@<TRIPOS>ATOM
      1  CHA       12.9880    4.6730   26.4580 C.2   750  HEM750      0.0000
      2  CHB       16.7280    1.5940   26.0090 C.2   750  HEM750      0.0000
      3  CHC       17.7080    3.4670   21.6630 C.2   750  HEM750      0.0000
      4  CHD       14.7540    7.2250   22.6440 C.2   750  HEM750      0.0000
      5  C1A       13.8250    3.5930   26.6350 C.2   750  HEM750      0.0000
      6  C2A       13.6340    2.5050   27.5820 C.2   750  HEM750      0.0000
      7  C3A       14.6730    1.6630   27.4580 C.2   750  HEM750      0.0000
      8  C4A       15.5460    2.1730   26.4090 C.2   750  HEM750      0.0000
      9  CMA       14.9780    0.3580   28.2440 C.3   750  HEM750      0.0000
     10  CAA       12.4390    2.4170   28.5750 C.3   750  HEM750      0.0000
     11  CBA       11.5120    1.2280   28.2950 C.3   750  HEM750      0.0000
     12  CGA       10.9040    0.7320   29.5910 C.2   750  HEM750      0.0000
     13  O1A       11.2620    1.2830   30.6580 O.co2 750  HEM750      0.0000
     14  O2A       10.0840   -0.2290   29.5920 O.co2 750  HEM750      0.0000
     15  C1B       17.3280    1.7890   24.7790 C.ar  750  HEM750      0.0000
     16  C2B       18.3770    0.9870   24.1980 C.ar  750  HEM750      0.0000
     17  C3B       18.6590    1.4920   22.9920 C.ar  750  HEM750      0.0000
     18  C4B       17.8000    2.6500   22.7810 C.ar  750  HEM750      0.0000
     19  CMB       19.0150   -0.2460   24.8890 C.3   750  HEM750      0.0000
     20  CAB       19.7290    0.9050   22.0510 C.2   750  HEM750      0.0000
     21  CBB       20.2150    1.5710   21.0060 C.2   750  HEM750      0.0000
     22  C1C       16.9330    4.6130   21.5350 C.2   750  HEM750      0.0000
     23  C2C       16.9150    5.4530   20.3510 C.2   750  HEM750      0.0000
     24  C3C       16.1170    6.5030   20.6130 C.2   750  HEM750      0.0000
     25  C4C       15.6060    6.3580   21.9570 C.2   750  HEM750      0.0000
     26  CMC       17.6880    5.0560   19.0550 C.3   750  HEM750      0.0000
     27  CAC       15.7170    7.6810   19.6790 C.2   750  HEM750      0.0000
     28  CBC       16.4290    7.9830   18.5890 C.2   750  HEM750      0.0000
     29  C1D       13.9330    6.8550   23.7100 C.ar  750  HEM750      0.0000
     30  C2D       12.7760    7.5870   24.1790 C.ar  750  HEM750      0.0000
     31  C3D       12.2300    6.7930   25.3320 C.ar  750  HEM750      0.0000
     32  C4D       13.1060    5.6610   25.4900 C.ar  750  HEM750      0.0000
     33  CMD       12.1960    8.9060   23.6100 C.3   750  HEM750      0.0000
     34  CAD       10.9620    7.1410   26.1500 C.3   750  HEM750      0.0000
     35  CBD        9.8840    6.4890   25.2590 C.3   750  HEM750      0.0000
     36  CGD        8.5060    6.7060   25.8410 C.2   750  HEM750      0.0000
     37  O1D        8.2740    7.7520   26.5030 O.co2 750  HEM750      0.0000
     38  O2D        7.6170    5.8410   25.6150 O.co2 750  HEM750      0.0000
     39  NA        15.0240    3.3860   25.9750 N.2   750  HEM750      0.0000
     40  NB        17.0500    2.8300   23.9400 N.ar  750  HEM750      0.0000
     41  NC        16.1800    5.2240   22.5090 N.2   750  HEM750      0.0000
     42  ND        14.1400    5.7760   24.5590 N.ar  750  HEM750      0.0000
     43 FE         15.7060    4.3990   24.3560 Fe    750  HEM750      0.0000
@<TRIPOS>BOND
     1    28    27    2
     2    26    23    1
     3    27    24    1
     4    23    24    2
     5    23    22    1
     6    24    25    1
     7    21    20    2
     8    22     3    2
     9    22    41    1
    10     3    18    1
    11    25    41    2
    12    25     4    1
    13    20    17    1
    14    41    43    1
    15     4    29    2
    16    18    17   ar
    17    18    40   ar
    18    17    16   ar
    19    33    30    1
    20    29    30   ar
    21    29    42   ar
    22    40    43    1
    23    40    15   ar
    24    30    31   ar
    25    16    15   ar
    26    16    19    1
    27    43    42    1
    28    43    39    1
    29    42    32   ar
    30    15     2    1
    31    35    36    1
    32    35    34    1
    33    31    32   ar
    34    31    34    1
    35    32     1    2
    36    38    36   ar
    37    36    37   ar
    38    39     8    1
    39    39     5    2
    40     2     8    2
    41     8     7    1
    42     1     5    1
    43     5     6    1
    44     7     6    2
    45     7     9    1
    46     6    10    1
    47    11    10    1
    48    11    12    1
    49    12    14   ar
    50    12    13   ar
