@<TRIPOS>MOLECULE
3n66_XFN_A_1.pdb
 27 29 0 0 0
SMALL
GASTEIGER

@<TRIPOS>ATOM
      1  C01        6.6400    0.6910   27.4620 C.ar  800  XFN800      0.0138
      2  C02        6.4940    0.4480   26.0910 C.ar  800  XFN800      0.0885
      3  N02        5.2790    0.0880   25.5740 N.pl3 800  XFN800     -0.1281
      4  C03        7.6070    0.5680   25.2510 C.ar  800  XFN800      0.0138
      5  C04        8.8740    0.9350   25.7270 C.ar  800  XFN800     -0.0207
      6  C05        9.0240    1.1810   27.1220 C.ar  800  XFN800     -0.0084
      7  C06        7.8950    1.0550   27.9740 C.ar  800  XFN800     -0.0207
      8  C07        9.9810    1.0080   24.6580 C.3   800  XFN800      0.0338
      9  C08        8.0280    1.3060   29.4660 C.3   800  XFN800      0.0335
     10  C09        6.6740    1.5730   30.1170 C.3   800  XFN800      0.0595
     11  C11        5.3960    2.4300   33.5220 C.2   800  XFN800      0.2178
     12  N12        5.5200    2.1110   32.2060 N.2   800  XFN800     -0.3922
     13  C13        6.7280    1.9470   31.5920 C.2   800  XFN800      0.0928
     14  C14        7.8970    2.1420   32.3300 C.3   800  XFN800      0.0766
     15  C15        7.7880    2.4930   33.6870 C.2   800  XFN800     -0.0333
     16  C16        6.5360    2.6210   34.2960 C.2   800  XFN800      0.0427
     17  N17        4.1450    2.5550   34.0500 N.pl3 800  XFN800     -0.0932
     18  C18        9.0440    2.7040   34.5210 C.3   800  XFN800      0.0269
     19  C34       11.2780    1.6410   25.1340 C.3   800  XFN800      0.0637
     20  C35       12.3930    1.4210   24.1220 C.2   800  XFN800      0.1100
     21  C36       12.5250    2.2670   23.0120 C.2   800  XFN800      0.0196
     22  C37       13.5490    2.0870   22.1000 C.2   800  XFN800     -0.0332
     23  C38       14.4260    1.0130   22.2750 C.3   800  XFN800      0.1001
     24  C39       14.2700    0.1850   23.3970 C.2   800  XFN800      0.2001
     25  N40       13.2610    0.3910   24.2730 N.2   800  XFN800     -0.3924
     26  N41       15.1370   -0.8480   23.6240 N.pl3 800  XFN800     -0.0977
     27  C42       13.6840    2.9980   20.8960 C.3   800  XFN800      0.0269
@<TRIPOS>BOND
     1    27    22    1
     2    22    23    1
     3    22    21    2
     4    23    24    1
     5    21    20    1
     6    24    26    1
     7    24    25    2
     8    20    25    2
     9    20    19    1
    10     8    19    1
    11     8     5    1
    12     4     5   ar
    13     4     2   ar
    14     3     2    1
    15     5     6   ar
    16     2     1   ar
    17     6     7   ar
    18     1     7   ar
    19     7     9    1
    20     9    10    1
    21    10    13    1
    22    13    12    2
    23    13    14    1
    24    12    11    2
    25    14    15    1
    26    11    17    1
    27    11    16    1
    28    15    16    2
    29    15    18    1
