@<TRIPOS>MOLECULE
3n66_HEM_A_1.pdb
 43 50 0 0 0
SMALL
GASTEIGER

@<TRIPOS>ATOM
      1  CHA       13.0550    4.5430   26.6520 C.2   750  HEM750      0.0000
      2  CHB       16.7110    1.4320   26.0560 C.2   750  HEM750      0.0000
      3  CHC       17.6130    3.3370   21.6970 C.2   750  HEM750      0.0000
      4  CHD       14.5730    7.0030   22.6880 C.2   750  HEM750      0.0000
      5  C1A       13.8740    3.4490   26.7980 C.2   750  HEM750      0.0000
      6  C2A       13.6820    2.4100   27.7860 C.2   750  HEM750      0.0000
      7  C3A       14.6890    1.5350   27.6300 C.2   750  HEM750      0.0000
      8  C4A       15.5410    1.9990   26.5300 C.2   750  HEM750      0.0000
      9  CMA       14.9870    0.2370   28.4250 C.3   750  HEM750      0.0000
     10  CAA       12.4980    2.4520   28.7870 C.3   750  HEM750      0.0000
     11  CBA       12.7340    1.7460   30.1390 C.3   750  HEM750      0.0000
     12  CGA       12.3140    0.2840   30.0580 C.2   750  HEM750      0.0000
     13  O1A       11.7170   -0.1030   29.0110 O.co2 750  HEM750      0.0000
     14  O2A       12.5930   -0.5060   31.0240 O.co2 750  HEM750      0.0000
     15  C1B       17.2430    1.6510   24.8170 C.ar  750  HEM750      0.0000
     16  C2B       18.2640    0.8410   24.2100 C.ar  750  HEM750      0.0000
     17  C3B       18.5340    1.3440   23.0030 C.ar  750  HEM750      0.0000
     18  C4B       17.7090    2.5370   22.8150 C.ar  750  HEM750      0.0000
     19  CMB       18.9040   -0.4230   24.8490 C.3   750  HEM750      0.0000
     20  CAB       19.5690    0.6940   22.0600 C.2   750  HEM750      0.0000
     21  CBB       20.2050    1.3560   21.0800 C.2   750  HEM750      0.0000
     22  C1C       16.7880    4.4610   21.5660 C.2   750  HEM750      0.0000
     23  C2C       16.7050    5.2680   20.3600 C.2   750  HEM750      0.0000
     24  C3C       15.9000    6.3100   20.6360 C.2   750  HEM750      0.0000
     25  C4C       15.4290    6.1690   21.9980 C.2   750  HEM750      0.0000
     26  CMC       17.5030    4.9180   19.0600 C.3   750  HEM750      0.0000
     27  CAC       15.4680    7.4720   19.7150 C.2   750  HEM750      0.0000
     28  CBC       16.2070    7.8080   18.6470 C.2   750  HEM750      0.0000
     29  C1D       13.8610    6.6600   23.8290 C.ar  750  HEM750      0.0000
     30  C2D       12.7170    7.3870   24.3220 C.ar  750  HEM750      0.0000
     31  C3D       12.2520    6.6330   25.5330 C.ar  750  HEM750      0.0000
     32  C4D       13.1300    5.4870   25.6460 C.ar  750  HEM750      0.0000
     33  CMD       12.1230    8.7150   23.7800 C.3   750  HEM750      0.0000
     34  CAD       11.0590    7.0430   26.4000 C.3   750  HEM750      0.0000
     35  CBD        9.8790    6.3570   25.7330 C.3   750  HEM750      0.0000
     36  CGD        8.5840    6.6200   26.4540 C.2   750  HEM750      0.0000
     37  O1D        8.4540    7.6700   27.1050 O.co2 750  HEM750      0.0000
     38  O2D        7.6810    5.7550   26.3550 O.co2 750  HEM750      0.0000
     39  NA        15.0470    3.2030   26.0940 N.2   750  HEM750      0.0000
     40  NB        16.9710    2.7340   23.9810 N.ar  750  HEM750      0.0000
     41  NC        16.0420    5.0690   22.5490 N.2   750  HEM750      0.0000
     42  ND        14.1020    5.5630   24.6500 N.ar  750  HEM750      0.0000
     43 FE         15.6490    4.2370   24.3960 Fe    750  HEM750      0.0000
@<TRIPOS>BOND
     1    28    27    2
     2    26    23    1
     3    27    24    1
     4    23    24    2
     5    23    22    1
     6    24    25    1
     7    21    20    2
     8    22     3    2
     9    22    41    1
    10     3    18    1
    11    25    41    2
    12    25     4    1
    13    20    17    1
    14    41    43    1
    15     4    29    2
    16    18    17   ar
    17    18    40   ar
    18    17    16   ar
    19    33    30    1
    20    29    30   ar
    21    29    42   ar
    22    40    43    1
    23    40    15   ar
    24    16    15   ar
    25    16    19    1
    26    30    31   ar
    27    43    42    1
    28    43    39    1
    29    42    32   ar
    30    15     2    1
    31    31    32   ar
    32    31    34    1
    33    32     1    2
    34    35    34    1
    35    35    36    1
    36     2     8    2
    37    39     8    1
    38    39     5    2
    39    38    36   ar
    40    36    37   ar
    41     8     7    1
    42     1     5    1
    43     5     6    1
    44     7     6    2
    45     7     9    1
    46     6    10    1
    47    10    11    1
    48    13    12   ar
    49    12    11    1
    50    12    14   ar
