@<TRIPOS>MOLECULE
3n66_MTL_B_1.pdb
 12 11 0 0 0
SMALL
GASTEIGER

@<TRIPOS>ATOM
      1  O1        21.4260    7.2350   58.3370 O.3   870  MTL870     -0.2175
      2  C1        22.2350    8.3480   57.9230 C.3   870  MTL870      0.2175
      3  C2        23.4600    8.4750   58.8410 C.3   870  MTL870      0.2175
      4  O2        23.0480    8.6980   60.2090 O.3   870  MTL870     -0.2175
      5  C3        24.4420    7.2890   58.7390 C.3   870  MTL870      0.2175
      6  O3        24.8720    7.0850   57.3630 O.3   870  MTL870     -0.2175
      7  C4        25.6620    7.5460   59.6310 C.3   870  MTL870      0.2175
      8  O4        26.2930    8.7780   59.2200 O.3   870  MTL870     -0.2175
      9  C5        26.6700    6.3970   59.6030 C.3   870  MTL870      0.2175
     10  O5        26.0540    5.1850   60.0790 O.3   870  MTL870     -0.2175
     11  C6        27.9400    6.6980   60.4130 C.3   870  MTL870      0.2175
     12  O6        28.7470    5.5120   60.4910 O.3   870  MTL870     -0.2175
@<TRIPOS>BOND
     1     6     5    1
     2     2     1    1
     3     2     3    1
     4     5     3    1
     5     5     7    1
     6     3     4    1
     7     8     7    1
     8     9     7    1
     9     9    10    1
    10     9    11    1
    11    11    12    1
