@<TRIPOS>MOLECULE
3n67_XFN_A_1.pdb
 27 29 0 0 0
SMALL
GASTEIGER

@<TRIPOS>ATOM
      1  C01       11.8940   16.2560   36.0130 C.ar  800  XFN800      0.0138
      2  C02       10.9440   17.0100   35.3170 C.ar  800  XFN800      0.0885
      3  N02       10.6810   18.3170   35.6330 N.pl3 800  XFN800     -0.1281
      4  C03       10.2400   16.4020   34.2760 C.ar  800  XFN800      0.0138
      5  C04       10.4810   15.0750   33.9140 C.ar  800  XFN800     -0.0207
      6  C05       11.4280   14.3250   34.6180 C.ar  800  XFN800     -0.0084
      7  C06       12.1380   14.9130   35.6680 C.ar  800  XFN800     -0.0207
      8  C07        9.6680   14.4710   32.7820 C.3   800  XFN800      0.0338
      9  C08       13.1550   14.0600   36.4040 C.3   800  XFN800      0.0338
     10  C09       13.9790   14.7940   37.4710 C.3   800  XFN800      0.0637
     11  C11       17.5080   15.1050   36.1770 C.2   800  XFN800      0.2001
     12  N12       16.3670   14.6000   36.7420 N.2   800  XFN800     -0.3924
     13  C13       15.2370   15.3630   36.8440 C.2   800  XFN800      0.1100
     14  C14       15.2430   16.6900   36.3650 C.2   800  XFN800      0.0196
     15  C15       16.3990   17.2330   35.7800 C.2   800  XFN800     -0.0332
     16  C16       17.5430   16.4240   35.6880 C.3   800  XFN800      0.1001
     17  N17       18.6260   14.3410   36.0840 N.pl3 800  XFN800     -0.0977
     18  C18       16.4160   18.6590   35.2630 C.3   800  XFN800      0.0269
     19  C34        9.0890   13.1650   33.2930 C.3   800  XFN800      0.0637
     20  C35        8.1630   12.4890   32.3130 C.2   800  XFN800      0.1100
     21  C36        8.7040   11.8120   31.2260 C.2   800  XFN800      0.0196
     22  C37        7.8600   11.1710   30.3230 C.2   800  XFN800     -0.0332
     23  C38        6.4790   11.2340   30.5470 C.3   800  XFN800      0.1001
     24  C39        5.9840   11.9330   31.6580 C.2   800  XFN800      0.2001
     25  N40        6.8180   12.5500   32.5140 N.2   800  XFN800     -0.3924
     26  N41        4.6620   11.9680   31.8910 N.pl3 800  XFN800     -0.0977
     27  C42        8.4380   10.4380   29.1150 C.3   800  XFN800      0.0269
@<TRIPOS>BOND
     1    27    22    1
     2    22    23    1
     3    22    21    2
     4    23    24    1
     5    21    20    1
     6    24    26    1
     7    24    25    2
     8    20    25    2
     9    20    19    1
    10     8    19    1
    11     8     5    1
    12     5     4   ar
    13     5     6   ar
    14     4     2   ar
    15     6     7   ar
    16    18    15    1
    17     2     3    1
    18     2     1   ar
    19     7     1   ar
    20     7     9    1
    21    16    15    1
    22    16    11    1
    23    15    14    2
    24    17    11    1
    25    11    12    2
    26    14    13    1
    27     9    10    1
    28    12    13    2
    29    13    10    1
