@<TRIPOS>MOLECULE
3n67_HEM_A_1.pdb
 43 50 0 0 0
SMALL
GASTEIGER

@<TRIPOS>ATOM
      1  CHA        9.2570    9.1840   35.2110 C.2   500  HEM500      0.0000
      2  CHB        4.6310    8.9980   33.7450 C.2   500  HEM500      0.0000
      3  CHC        5.9560    7.3830   29.3970 C.2   500  HEM500      0.0000
      4  CHD       10.3420    6.6420   31.2390 C.2   500  HEM500      0.0000
      5  C1A        7.8880    9.4110   35.1090 C.2   500  HEM500      0.0000
      6  C2A        7.0850   10.1820   36.0210 C.2   500  HEM500      0.0000
      7  C3A        5.7940   10.1430   35.6190 C.2   500  HEM500      0.0000
      8  C4A        5.7630    9.3430   34.4330 C.2   500  HEM500      0.0000
      9  CMA        4.5540   10.8330   36.2810 C.3   500  HEM500      0.0000
     10  CAA        7.6600   10.9630   37.2200 C.3   500  HEM500      0.0000
     11  CBA        8.5380   12.1010   36.6610 C.3   500  HEM500      0.0000
     12  CGA        8.8320   13.2490   37.6160 C.2   500  HEM500      0.0000
     13  O1A        8.0840   13.4640   38.6050 O.co2 500  HEM500      0.0000
     14  O2A        9.8500   13.9740   37.3630 O.co2 500  HEM500      0.0000
     15  C1B        4.6000    8.5620   32.4460 C.ar  500  HEM500      0.0000
     16  C2B        3.4230    8.5790   31.6120 C.ar  500  HEM500      0.0000
     17  C3B        3.7710    8.1290   30.4210 C.ar  500  HEM500      0.0000
     18  C4B        5.1980    7.8190   30.4580 C.ar  500  HEM500      0.0000
     19  CMB        1.9770    8.9860   32.0030 C.3   500  HEM500      0.0000
     20  CAB        2.7840    7.9830   29.2460 C.2   500  HEM500      0.0000
     21  CBB        2.8710    6.9990   28.3340 C.2   500  HEM500      0.0000
     22  C1C        7.3220    7.1540   29.5130 C.2   500  HEM500      0.0000
     23  C2C        8.2050    6.7310   28.4470 C.2   500  HEM500      0.0000
     24  C3C        9.4200    6.5200   28.9810 C.2   500  HEM500      0.0000
     25  C4C        9.3150    6.7720   30.3830 C.2   500  HEM500      0.0000
     26  CMC        7.8560    6.5780   26.9320 C.3   500  HEM500      0.0000
     27  CAC       10.7310    6.0660   28.3010 C.2   500  HEM500      0.0000
     28  CBC       10.7330    5.3140   27.1820 C.2   500  HEM500      0.0000
     29  C1D       10.4440    7.3070   32.4200 C.ar  500  HEM500      0.0000
     30  C2D       11.6670    7.4270   33.1530 C.ar  500  HEM500      0.0000
     31  C3D       11.3560    8.2180   34.3860 C.ar  500  HEM500      0.0000
     32  C4D        9.9510    8.4600   34.2890 C.ar  500  HEM500      0.0000
     33  CMD       13.0470    6.8730   32.7550 C.3   500  HEM500      0.0000
     34  CAD       12.3570    8.6390   35.4990 C.3   500  HEM500      0.0000
     35  CBD       12.9390   10.0100   35.1570 C.3   500  HEM500      0.0000
     36  CGD       13.8850   10.4270   36.2610 C.2   500  HEM500      0.0000
     37  O1D       14.3240    9.5700   37.0830 O.co2 500  HEM500      0.0000
     38  O2D       14.2300   11.6400   36.3220 O.co2 500  HEM500      0.0000
     39  NA         7.0470    8.8370   34.1900 N.2   500  HEM500      0.0000
     40  NB         5.6600    8.0480   31.7420 N.ar  500  HEM500      0.0000
     41  NC         8.0080    7.0990   30.7200 N.2   500  HEM500      0.0000
     42  ND         9.4240    7.8340   33.1270 N.ar  500  HEM500      0.0000
     43 FE          7.5250    7.8010   32.4810 Fe    500  HEM500      0.0000
@<TRIPOS>BOND
     1    26    23    1
     2    28    27    2
     3    27    24    1
     4    21    20    2
     5    23    24    2
     6    23    22    1
     7    24    25    1
     8    20    17    1
     9     3    22    2
    10     3    18    1
    11    22    41    1
    12    25    41    2
    13    25     4    1
    14    17    18   ar
    15    17    16   ar
    16    18    40   ar
    17    41    43    1
    18     4    29    2
    19    16    19    1
    20    16    15   ar
    21    40    15   ar
    22    40    43    1
    23    29    42   ar
    24    29    30   ar
    25    15     2    1
    26    43    42    1
    27    43    39    1
    28    33    30    1
    29    42    32   ar
    30    30    31   ar
    31     2     8    2
    32    39     8    1
    33    39     5    2
    34    32    31   ar
    35    32     1    2
    36    31    34    1
    37     8     7    1
    38     5     1    1
    39     5     6    1
    40    35    34    1
    41    35    36    1
    42     7     6    2
    43     7     9    1
    44     6    10    1
    45    36    38   ar
    46    36    37   ar
    47    11    10    1
    48    11    12    1
    49    14    12   ar
    50    12    13   ar
