@<TRIPOS>MOLECULE
3n67_H4B_A_1.pdb
 17 18 0 0 0
SMALL
GASTEIGER

@<TRIPOS>ATOM
      1  N1         8.3360   11.7860   42.9910 N.2   600  H4B600     -0.2683
      2  C2         8.3000   12.1510   41.6980 C.1   600  H4B600      0.2608
      3  N2         7.4580   11.5160   40.8540 N.pl3 600  H4B600     -0.0220
      4  N3         9.1040   13.1340   41.2470 N.2   600  H4B600     -0.2474
      5  C4         9.9670   13.7800   42.0470 C.1   600  H4B600      0.2441
      6  O4        10.7250   14.6950   41.5740 O.2   600  H4B600     -0.2063
      7  C4A       10.0260   13.3830   43.3750 C.2   600  H4B600      0.2463
      8  C8A        9.1930   12.3710   43.8370 C.1   600  H4B600      0.1270
      9  N5        10.8710   13.9520   44.2520 N.2   600  H4B600     -0.2460
     10  N8         9.2220   11.9830   45.1460 N.2   600  H4B600     -0.2054
     11  C6        11.3510   13.1050   45.3420 C.3   600  H4B600      0.1627
     12  C7        10.1310   12.6100   46.1080 C.3   600  H4B600      0.1643
     13  C9        12.3080   13.9120   46.2430 C.3   600  H4B600      0.2063
     14  O9        11.7440   15.2340   46.5690 O.3   600  H4B600     -0.2183
     15  C10       12.6820   13.1340   47.5030 C.3   600  H4B600      0.1842
     16  C11       13.3980   14.0160   48.5230 C.3   600  H4B600      0.0383
     17  O10       13.5550   12.0630   47.1720 O.3   600  H4B600     -0.2204
@<TRIPOS>BOND
     1     3     2    1
     2     4     2    2
     3     4     5    2
     4     6     5    2
     5     2     1    2
     6     5     7    1
     7     1     8    2
     8     7     8    1
     9     7     9    2
    10     8    10    2
    11     9    11    1
    12    10    12    1
    13    11    12    1
    14    11    13    1
    15    13    14    1
    16    13    15    1
    17    17    15    1
    18    15    16    1
