@<TRIPOS>MOLECULE
3n68_XFH_A_1.pdb
 26 28 0 0 0
SMALL
GASTEIGER

@<TRIPOS>ATOM
      1  N01        6.6550   12.8990   32.2840 N.2   800  XFH800     -0.3924
      2  C02        5.9060   11.9680   31.6280 C.2   800  XFH800      0.2001
      3  N02        4.6100   11.8100   31.9850 N.pl3 800  XFH800     -0.0977
      4  C03        6.4510   11.1740   30.5980 C.3   800  XFH800      0.1001
      5  C04        7.7940   11.3630   30.2510 C.2   800  XFH800     -0.0332
      6  C05        8.5390   12.3120   30.9350 C.2   800  XFH800      0.0196
      7  C06        7.9610   13.0790   31.9560 C.2   800  XFH800      0.1100
      8  C07        8.4420   10.5480   29.1700 C.3   800  XFH800      0.0269
      9  C08        8.7990   14.1190   32.6890 C.3   800  XFH800      0.0637
     10  C09        9.3170   13.5460   33.9960 C.3   800  XFH800      0.0338
     11  C11       11.9900   10.9180   33.1880 C.ar  800  XFH800     -0.0006
     12  C12       10.7390   11.5470   33.3030 C.ar  800  XFH800     -0.0043
     13  C13       10.6480   12.8440   33.8520 C.ar  800  XFH800     -0.0221
     14  C14       11.8100   13.4900   34.2980 C.ar  800  XFH800     -0.0085
     15  C15       13.0690   12.8700   34.1770 C.ar  800  XFH800     -0.0222
     16  C16       13.1560   11.5830   33.6190 C.ar  800  XFH800     -0.0043
     17  C17       14.2910   13.6230   34.6650 C.3   800  XFH800      0.0307
     18  C18       15.5870   12.8720   34.3970 C.3   800  XFH800      0.0272
     19  C21       16.5040   13.9800   36.4660 C.2   800  XFH800      0.0427
     20  C22       17.5570   14.5570   37.1650 C.2   800  XFH800      0.2178
     21  N22       17.3120   15.0090   38.4210 N.pl3 800  XFH800     -0.0932
     22  N23       18.8010   14.6590   36.6080 N.2   800  XFH800     -0.3922
     23  C24       19.0490   14.2020   35.3580 C.2   800  XFH800      0.0929
     24  C25       18.0120   13.6200   34.6200 C.3   800  XFH800      0.0766
     25  C26       16.7280   13.5060   35.1740 C.2   800  XFH800     -0.0333
     26  C27       20.4330   14.3230   34.7650 C.3   800  XFH800      0.0619
@<TRIPOS>BOND
     1     8     5    1
     2     5     4    1
     3     5     6    2
     4     4     2    1
     5     6     7    1
     6     2     3    1
     7     2     1    2
     8     7     1    2
     9     7     9    1
    10     9    10    1
    11    11    12   ar
    12    11    16   ar
    13    12    13   ar
    14    16    15   ar
    15    13    10    1
    16    13    14   ar
    17    15    14   ar
    18    15    17    1
    19    18    17    1
    20    18    25    1
    21    24    25    1
    22    24    23    1
    23    26    23    1
    24    25    19    2
    25    23    22    2
    26    19    20    1
    27    22    20    2
    28    20    21    1
