@<TRIPOS>MOLECULE
3n68_H4B_A_1.pdb
 17 18 0 0 0
SMALL
GASTEIGER

@<TRIPOS>ATOM
      1  N1         8.5290   11.7840   43.0860 N.2   600  H4B600     -0.2683
      2  C2         8.4700   12.2090   41.8020 C.1   600  H4B600      0.2608
      3  N2         7.6360   11.5950   40.9140 N.pl3 600  H4B600     -0.0220
      4  N3         9.2470   13.2380   41.4050 N.2   600  H4B600     -0.2474
      5  C4        10.0800   13.8540   42.2820 C.1   600  H4B600      0.2441
      6  O4        10.8040   14.8140   41.9060 O.2   600  H4B600     -0.2063
      7  C4A       10.1180   13.4320   43.6010 C.2   600  H4B600      0.2463
      8  C8A        9.3340   12.3730   43.9860 C.1   600  H4B600      0.1270
      9  N5        10.9370   14.0060   44.5150 N.2   600  H4B600     -0.2460
     10  N8         9.3660   11.9390   45.2640 N.2   600  H4B600     -0.2054
     11  C6        11.4440   13.1410   45.5610 C.3   600  H4B600      0.1627
     12  C7        10.2230   12.5520   46.2680 C.3   600  H4B600      0.1643
     13  C9        12.3650   13.9110   46.5090 C.3   600  H4B600      0.2063
     14  O9        11.8650   15.2400   46.7320 O.3   600  H4B600     -0.2183
     15  C10       12.5230   13.1500   47.8210 C.3   600  H4B600      0.1842
     16  C11       13.5120   13.7630   48.7910 C.3   600  H4B600      0.0383
     17  O10       12.9670   11.8320   47.4910 O.3   600  H4B600     -0.2204
@<TRIPOS>BOND
     1     3     2    1
     2     4     2    2
     3     4     5    2
     4     2     1    2
     5     6     5    2
     6     5     7    1
     7     1     8    2
     8     7     8    1
     9     7     9    2
    10     8    10    2
    11     9    11    1
    12    10    12    1
    13    11    12    1
    14    11    13    1
    15    13    14    1
    16    13    15    1
    17    17    15    1
    18    15    16    1
