@<TRIPOS>MOLECULE
3n68_HEM_A_1.pdb
 43 50 0 0 0
SMALL
GASTEIGER

@<TRIPOS>ATOM
      1  CHA        9.5760    8.8240   35.4310 C.2   500  HEM500      0.0000
      2  CHB        4.9770    9.1370   33.8610 C.2   500  HEM500      0.0000
      3  CHC        6.1110    7.4190   29.5450 C.2   500  HEM500      0.0000
      4  CHD       10.5940    6.7380   31.1860 C.2   500  HEM500      0.0000
      5  C1A        8.2290    9.1540   35.3010 C.2   500  HEM500      0.0000
      6  C2A        7.4500    9.9460   36.2410 C.2   500  HEM500      0.0000
      7  C3A        6.1930   10.0260   35.8070 C.2   500  HEM500      0.0000
      8  C4A        6.1320    9.2730   34.5860 C.2   500  HEM500      0.0000
      9  CMA        4.9780   10.7660   36.4590 C.3   500  HEM500      0.0000
     10  CAA        8.0060   10.6150   37.5030 C.3   500  HEM500      0.0000
     11  CBA        8.5040   11.9360   36.9010 C.3   500  HEM500      0.0000
     12  CGA        8.7960   13.0720   37.8370 C.2   500  HEM500      0.0000
     13  O1A        8.0050   13.3140   38.7740 O.co2 500  HEM500      0.0000
     14  O2A        9.8220   13.7570   37.6100 O.co2 500  HEM500      0.0000
     15  C1B        4.8990    8.6960   32.5740 C.ar  500  HEM500      0.0000
     16  C2B        3.6710    8.6720   31.8100 C.ar  500  HEM500      0.0000
     17  C3B        3.9670    8.1870   30.6180 C.ar  500  HEM500      0.0000
     18  C4B        5.3980    7.9060   30.6040 C.ar  500  HEM500      0.0000
     19  CMB        2.2980    9.1110   32.3450 C.3   500  HEM500      0.0000
     20  CAB        2.9850    7.9620   29.4540 C.2   500  HEM500      0.0000
     21  CBB        3.2410    6.9970   28.5440 C.2   500  HEM500      0.0000
     22  C1C        7.4470    7.1590   29.6020 C.2   500  HEM500      0.0000
     23  C2C        8.3080    6.7820   28.4830 C.2   500  HEM500      0.0000
     24  C3C        9.5440    6.5920   28.9720 C.2   500  HEM500      0.0000
     25  C4C        9.4930    6.8590   30.3830 C.2   500  HEM500      0.0000
     26  CMC        7.8640    6.6420   27.0120 C.3   500  HEM500      0.0000
     27  CAC       10.8660    6.2010   28.2500 C.2   500  HEM500      0.0000
     28  CBC       10.9500    5.3750   27.2040 C.2   500  HEM500      0.0000
     29  C1D       10.7430    7.1760   32.4690 C.ar  500  HEM500      0.0000
     30  C2D       11.9360    7.0050   33.2710 C.ar  500  HEM500      0.0000
     31  C3D       11.6440    7.6490   34.6010 C.ar  500  HEM500      0.0000
     32  C4D       10.2930    8.1440   34.4770 C.ar  500  HEM500      0.0000
     33  CMD       13.2630    6.3260   32.8860 C.3   500  HEM500      0.0000
     34  CAD       12.6320    7.7200   35.7730 C.3   500  HEM500      0.0000
     35  CBD       13.1720    9.1380   35.9180 C.3   500  HEM500      0.0000
     36  CGD       14.2570    9.0940   36.9650 C.2   500  HEM500      0.0000
     37  O1D       14.8330    7.9990   37.1120 O.co2 500  HEM500      0.0000
     38  O2D       14.5250   10.1190   37.6450 O.co2 500  HEM500      0.0000
     39  NA         7.3830    8.7560   34.2880 N.2   500  HEM500      0.0000
     40  NB         5.9390    8.2240   31.8190 N.ar  500  HEM500      0.0000
     41  NC         8.1890    7.1850   30.7540 N.2   500  HEM500      0.0000
     42  ND         9.8030    7.8220   33.2110 N.ar  500  HEM500      0.0000
     43 FE          7.7320    7.6700   32.6450 Fe    500  HEM500      0.0000
@<TRIPOS>BOND
     1    26    23    1
     2    28    27    2
     3    27    24    1
     4    23    24    2
     5    23    22    1
     6    21    20    2
     7    24    25    1
     8    20    17    1
     9     3    22    2
    10     3    18    1
    11    22    41    1
    12    25    41    2
    13    25     4    1
    14    18    17   ar
    15    18    40   ar
    16    17    16   ar
    17    41    43    1
    18     4    29    2
    19    16    19    1
    20    16    15   ar
    21    40    15   ar
    22    40    43    1
    23    29    42   ar
    24    29    30   ar
    25    15     2    1
    26    43    42    1
    27    43    39    1
    28    33    30    1
    29    42    32   ar
    30    30    31   ar
    31     2     8    2
    32    39     8    1
    33    39     5    2
    34    32    31   ar
    35    32     1    2
    36     8     7    1
    37    31    34    1
    38     5     1    1
    39     5     6    1
    40    34    35    1
    41     7     6    2
    42     7     9    1
    43    35    36    1
    44     6    10    1
    45    11    10    1
    46    11    12    1
    47    36    37   ar
    48    36    38   ar
    49    14    12   ar
    50    12    13   ar
