@<TRIPOS>MOLECULE
3n69_HEM_A_1.pdb
 43 50 0 0 0
SMALL
GASTEIGER

@<TRIPOS>ATOM
      1  CHA        9.1770    9.1380   35.1240 C.2   500  HEM500      0.0000
      2  CHB        4.5370    8.8660   33.7530 C.2   500  HEM500      0.0000
      3  CHC        5.9160    7.2860   29.4020 C.2   500  HEM500      0.0000
      4  CHD       10.3520    6.4960   31.2390 C.2   500  HEM500      0.0000
      5  C1A        7.8230    9.3510   35.0360 C.2   500  HEM500      0.0000
      6  C2A        7.0480   10.1660   35.9410 C.2   500  HEM500      0.0000
      7  C3A        5.7500   10.0820   35.5890 C.2   500  HEM500      0.0000
      8  C4A        5.6770    9.2190   34.4320 C.2   500  HEM500      0.0000
      9  CMA        4.5480   10.7710   36.2760 C.3   500  HEM500      0.0000
     10  CAA        7.6830   10.9260   37.1240 C.3   500  HEM500      0.0000
     11  CBA        8.1350   12.2670   36.5670 C.3   500  HEM500      0.0000
     12  CGA        8.4870   13.3060   37.5970 C.2   500  HEM500      0.0000
     13  O1A        8.0310   13.2330   38.7790 O.co2 500  HEM500      0.0000
     14  O2A        9.2360   14.2420   37.1710 O.co2 500  HEM500      0.0000
     15  C1B        4.4920    8.4860   32.4380 C.ar  500  HEM500      0.0000
     16  C2B        3.3010    8.4880   31.6150 C.ar  500  HEM500      0.0000
     17  C3B        3.6540    8.0450   30.4030 C.ar  500  HEM500      0.0000
     18  C4B        5.1030    7.7320   30.4340 C.ar  500  HEM500      0.0000
     19  CMB        1.8820    8.9320   32.0810 C.3   500  HEM500      0.0000
     20  CAB        2.6810    7.9200   29.2130 C.2   500  HEM500      0.0000
     21  CBB        2.8360    6.9840   28.2690 C.2   500  HEM500      0.0000
     22  C1C        7.2890    7.0250   29.4970 C.2   500  HEM500      0.0000
     23  C2C        8.1750    6.6470   28.3910 C.2   500  HEM500      0.0000
     24  C3C        9.4130    6.4060   28.8960 C.2   500  HEM500      0.0000
     25  C4C        9.3300    6.6440   30.3380 C.2   500  HEM500      0.0000
     26  CMC        7.7380    6.5520   26.9060 C.3   500  HEM500      0.0000
     27  CAC       10.7140    5.9900   28.1490 C.2   500  HEM500      0.0000
     28  CBC       10.6760    5.1620   27.0930 C.2   500  HEM500      0.0000
     29  C1D       10.4870    7.1770   32.4030 C.ar  500  HEM500      0.0000
     30  C2D       11.7180    7.3420   33.1290 C.ar  500  HEM500      0.0000
     31  C3D       11.3370    8.1590   34.3270 C.ar  500  HEM500      0.0000
     32  C4D        9.9210    8.4120   34.2210 C.ar  500  HEM500      0.0000
     33  CMD       13.1240    6.8200   32.7760 C.3   500  HEM500      0.0000
     34  CAD       12.2890    8.6550   35.4220 C.3   500  HEM500      0.0000
     35  CBD       12.7290   10.0450   34.9830 C.3   500  HEM500      0.0000
     36  CGD       13.7170   10.5950   35.9730 C.2   500  HEM500      0.0000
     37  O1D       14.2650    9.8370   36.8170 O.co2 500  HEM500      0.0000
     38  O2D       13.9450   11.8230   35.9110 O.co2 500  HEM500      0.0000
     39  NA         6.9490    8.7240   34.1560 N.2   500  HEM500      0.0000
     40  NB         5.5420    7.9560   31.7280 N.ar  500  HEM500      0.0000
     41  NC         8.0290    6.9520   30.6840 N.2   500  HEM500      0.0000
     42  ND         9.4440    7.7450   33.0990 N.ar  500  HEM500      0.0000
     43 FE          7.4850    7.7210   32.4780 Fe    500  HEM500      0.0000
@<TRIPOS>BOND
     1    26    23    1
     2    28    27    2
     3    27    24    1
     4    21    20    2
     5    23    24    2
     6    23    22    1
     7    24    25    1
     8    20    17    1
     9     3    22    2
    10     3    18    1
    11    22    41    1
    12    25    41    2
    13    25     4    1
    14    17    18   ar
    15    17    16   ar
    16    18    40   ar
    17    41    43    1
    18     4    29    2
    19    16    19    1
    20    16    15   ar
    21    40    15   ar
    22    40    43    1
    23    29    42   ar
    24    29    30   ar
    25    15     2    1
    26    43    42    1
    27    43    39    1
    28    33    30    1
    29    42    32   ar
    30    30    31   ar
    31     2     8    2
    32    39     8    1
    33    39     5    2
    34    32    31   ar
    35    32     1    2
    36    31    34    1
    37     8     7    1
    38    35    34    1
    39    35    36    1
    40     5     1    1
    41     5     6    1
    42     7     6    2
    43     7     9    1
    44    38    36   ar
    45     6    10    1
    46    36    37   ar
    47    11    10    1
    48    11    12    1
    49    14    12   ar
    50    12    13   ar
