@<TRIPOS>MOLECULE
3n69_H4B_A_1.pdb
 17 18 0 0 0
SMALL
GASTEIGER

@<TRIPOS>ATOM
      1  N1         8.3340   11.7250   42.9100 N.2   600  H4B600     -0.2683
      2  C2         8.2580   12.0800   41.6190 C.1   600  H4B600      0.2608
      3  N2         7.4050   11.4170   40.7860 N.pl3 600  H4B600     -0.0220
      4  N3         9.0390   13.0720   41.1750 N.2   600  H4B600     -0.2474
      5  C4         9.9020   13.7040   41.9960 C.1   600  H4B600      0.2441
      6  O4        10.5770   14.6550   41.5390 O.2   600  H4B600     -0.2063
      7  C4A        9.9730   13.3440   43.3320 C.2   600  H4B600      0.2463
      8  C8A        9.1590   12.3270   43.7800 C.1   600  H4B600      0.1270
      9  N5        10.8090   13.9440   44.2150 N.2   600  H4B600     -0.2460
     10  N8         9.1760   11.9100   45.0660 N.2   600  H4B600     -0.2054
     11  C6        11.2560   13.1230   45.3440 C.3   600  H4B600      0.1627
     12  C7        10.0480   12.5330   46.0900 C.3   600  H4B600      0.1643
     13  C9        12.2250   13.8880   46.2590 C.3   600  H4B600      0.2063
     14  O9        11.6890   15.1670   46.6000 O.3   600  H4B600     -0.2183
     15  C10       12.5700   13.1390   47.5390 C.3   600  H4B600      0.1842
     16  C11       13.4350   13.9740   48.4660 C.3   600  H4B600      0.0383
     17  O10       13.2310   11.9340   47.1700 O.3   600  H4B600     -0.2204
@<TRIPOS>BOND
     1     3     2    1
     2     4     2    2
     3     4     5    2
     4     6     5    2
     5     2     1    2
     6     5     7    1
     7     1     8    2
     8     7     8    1
     9     7     9    2
    10     8    10    2
    11     9    11    1
    12    10    12    1
    13    11    12    1
    14    11    13    1
    15    13    14    1
    16    13    15    1
    17    17    15    1
    18    15    16    1
