@<TRIPOS>MOLECULE
3n69_XFJ_A_1.pdb
 26 28 0 0 0
SMALL
GASTEIGER

@<TRIPOS>ATOM
      1  N01        6.8270   12.5230   32.5030 N.2   800  XFJ800     -0.3924
      2  C02        6.0060   11.8420   31.6550 C.2   800  XFJ800      0.2001
      3  N02        4.6680   11.8800   31.9130 N.pl3 800  XFJ800     -0.0977
      4  C03        6.5300   11.1090   30.5430 C.3   800  XFJ800      0.1001
      5  C04        7.9360   11.0810   30.3610 C.2   800  XFJ800     -0.0332
      6  C05        8.7440   11.7800   31.2710 C.2   800  XFJ800      0.0196
      7  C06        8.1640   12.5030   32.3190 C.2   800  XFJ800      0.1100
      8  C07        8.5940   10.3290   29.2070 C.3   800  XFJ800      0.0269
      9  C08        9.0220   13.2370   33.3220 C.3   800  XFJ800      0.0637
     10  C09        9.6710   14.4770   32.7920 C.3   800  XFJ800      0.0353
     11  N11       10.7310   17.1540   35.2190 N.ar  800  XFJ800     -0.2430
     12  C12       10.1060   16.4930   34.2160 C.ar  800  XFJ800      0.0946
     13  C13       10.3910   15.1570   33.9370 C.ar  800  XFJ800     -0.0029
     14  C14       11.3510   14.4750   34.6980 C.ar  800  XFJ800     -0.0054
     15  C15       11.9840   15.1870   35.7370 C.ar  800  XFJ800     -0.0029
     16  C16       11.6610   16.5400   35.9930 C.ar  800  XFJ800      0.0946
     17  C17       12.9790   14.4520   36.5910 C.3   800  XFJ800      0.0353
     18  C18       14.0920   15.3580   37.0170 C.3   800  XFJ800      0.0637
     19  N21       15.3060   13.2320   37.5870 N.2   800  XFJ800     -0.3924
     20  C22       16.2850   12.5360   38.2500 C.2   800  XFJ800      0.2001
     21  N22       16.4610   11.1880   38.0730 N.pl3 800  XFJ800     -0.0977
     22  C23       17.1170   13.2230   39.1380 C.3   800  XFJ800      0.1001
     23  C24       16.9440   14.6000   39.3140 C.2   800  XFJ800     -0.0332
     24  C25       15.9400   15.2870   38.6260 C.2   800  XFJ800      0.0196
     25  C26       15.1290   14.5750   37.7600 C.2   800  XFJ800      0.1100
     26  C27       17.8290   15.3590   40.2690 C.3   800  XFJ800      0.0269
@<TRIPOS>BOND
     1     8     5    1
     2     5     4    1
     3     5     6    2
     4     4     2    1
     5     6     7    1
     6     2     3    1
     7     2     1    2
     8     7     1    2
     9     7     9    1
    10    10     9    1
    11    10    13    1
    12    13    12   ar
    13    13    14   ar
    14    12    11   ar
    15    14    15   ar
    16    11    16   ar
    17    15    16   ar
    18    15    17    1
    19    17    18    1
    20    18    25    1
    21    19    25    2
    22    19    20    2
    23    25    24    1
    24    21    20    1
    25    20    22    1
    26    24    23    2
    27    22    23    1
    28    23    26    1
