@<TRIPOS>MOLECULE
3n6a_HEM_A_1.pdb
 43 50 0 0 0
SMALL
GASTEIGER

@<TRIPOS>ATOM
      1  CHA        9.3800    9.1760   35.2180 C.2   500  HEM500      0.0000
      2  CHB        4.7490    9.1530   33.8450 C.2   500  HEM500      0.0000
      3  CHC        6.0240    7.4520   29.5140 C.2   500  HEM500      0.0000
      4  CHD       10.4870    6.6620   31.1990 C.2   500  HEM500      0.0000
      5  C1A        8.0330    9.4360   35.1670 C.2   500  HEM500      0.0000
      6  C2A        7.2850   10.2460   36.1050 C.2   500  HEM500      0.0000
      7  C3A        5.9900   10.2340   35.7320 C.2   500  HEM500      0.0000
      8  C4A        5.8890    9.4290   34.5390 C.2   500  HEM500      0.0000
      9  CMA        4.8230   10.9500   36.4410 C.3   500  HEM500      0.0000
     10  CAA        7.8790   10.9780   37.3290 C.3   500  HEM500      0.0000
     11  CBA        8.5940   12.1990   36.7660 C.3   500  HEM500      0.0000
     12  CGA        8.6680   13.3860   37.6940 C.2   500  HEM500      0.0000
     13  O1A        8.2500   13.2640   38.8780 O.co2 500  HEM500      0.0000
     14  O2A        9.1550   14.4680   37.2160 O.co2 500  HEM500      0.0000
     15  C1B        4.7100    8.6900   32.5500 C.ar  500  HEM500      0.0000
     16  C2B        3.5060    8.6400   31.7430 C.ar  500  HEM500      0.0000
     17  C3B        3.8450    8.1820   30.5590 C.ar  500  HEM500      0.0000
     18  C4B        5.2790    7.9200   30.5750 C.ar  500  HEM500      0.0000
     19  CMB        2.1040    9.0560   32.2140 C.3   500  HEM500      0.0000
     20  CAB        2.8870    7.9560   29.3690 C.2   500  HEM500      0.0000
     21  CBB        3.0900    6.9290   28.5350 C.2   500  HEM500      0.0000
     22  C1C        7.3520    7.1610   29.5790 C.2   500  HEM500      0.0000
     23  C2C        8.1650    6.7220   28.4750 C.2   500  HEM500      0.0000
     24  C3C        9.4020    6.4980   28.9610 C.2   500  HEM500      0.0000
     25  C4C        9.3980    6.7880   30.3710 C.2   500  HEM500      0.0000
     26  CMC        7.6880    6.5670   27.0120 C.3   500  HEM500      0.0000
     27  CAC       10.6520    6.0390   28.1870 C.2   500  HEM500      0.0000
     28  CBC       10.5260    5.2180   27.1520 C.2   500  HEM500      0.0000
     29  C1D       10.6320    7.2700   32.4260 C.ar  500  HEM500      0.0000
     30  C2D       11.8550    7.3130   33.2020 C.ar  500  HEM500      0.0000
     31  C3D       11.5120    8.0930   34.4510 C.ar  500  HEM500      0.0000
     32  C4D       10.1170    8.4450   34.3100 C.ar  500  HEM500      0.0000
     33  CMD       13.2340    6.7170   32.8730 C.3   500  HEM500      0.0000
     34  CAD       12.5100    8.4290   35.5860 C.3   500  HEM500      0.0000
     35  CBD       12.9000    9.8920   35.3930 C.3   500  HEM500      0.0000
     36  CGD       13.9840   10.2830   36.3620 C.2   500  HEM500      0.0000
     37  O1D       14.6220    9.3490   36.9630 O.co2 500  HEM500      0.0000
     38  O2D       14.1970   11.5350   36.5100 O.co2 500  HEM500      0.0000
     39  NA         7.1530    8.9550   34.2180 N.2   500  HEM500      0.0000
     40  NB         5.7810    8.2410   31.8040 N.ar  500  HEM500      0.0000
     41  NC         8.1290    7.1950   30.7210 N.2   500  HEM500      0.0000
     42  ND         9.6360    7.9300   33.1150 N.ar  500  HEM500      0.0000
     43 FE          7.5880    7.7770   32.5910 Fe    500  HEM500      0.0000
@<TRIPOS>BOND
     1    26    23    1
     2    28    27    2
     3    27    24    1
     4    23    24    2
     5    23    22    1
     6    21    20    2
     7    24    25    1
     8    20    17    1
     9     3    22    2
    10     3    18    1
    11    22    41    1
    12    25    41    2
    13    25     4    1
    14    17    18   ar
    15    17    16   ar
    16    18    40   ar
    17    41    43    1
    18     4    29    2
    19    16    19    1
    20    16    15   ar
    21    40    15   ar
    22    40    43    1
    23    29    42   ar
    24    29    30   ar
    25    15     2    1
    26    43    42    1
    27    43    39    1
    28    33    30    1
    29    42    32   ar
    30    30    31   ar
    31     2     8    2
    32    39     8    1
    33    39     5    2
    34    32    31   ar
    35    32     1    2
    36    31    34    1
    37     8     7    1
    38     5     1    1
    39     5     6    1
    40    35    34    1
    41    35    36    1
    42     7     6    2
    43     7     9    1
    44     6    10    1
    45    36    38   ar
    46    36    37   ar
    47    11    10    1
    48    11    12    1
    49    14    12   ar
    50    12    13   ar
