@<TRIPOS>MOLECULE
3n6a_H4B_A_1.pdb
 17 18 0 0 0
SMALL
GASTEIGER

@<TRIPOS>ATOM
      1  N1         8.4700   11.7470   42.9480 N.2   600  H4B600     -0.2683
      2  C2         8.3580   12.1710   41.6800 C.1   600  H4B600      0.2608
      3  N2         7.4960   11.5410   40.8360 N.pl3 600  H4B600     -0.0220
      4  N3         9.1010   13.2190   41.2640 N.2   600  H4B600     -0.2474
      5  C4         9.9680   13.8670   42.0820 C.1   600  H4B600      0.2441
      6  O4        10.6380   14.8460   41.6330 O.2   600  H4B600     -0.2063
      7  C4A       10.0750   13.4270   43.4050 C.2   600  H4B600      0.2463
      8  C8A        9.3000   12.3520   43.8080 C.1   600  H4B600      0.1270
      9  N5        10.9190   13.9850   44.3100 N.2   600  H4B600     -0.2460
     10  N8         9.3670   11.8780   45.0640 N.2   600  H4B600     -0.2054
     11  C6        11.4270   13.1160   45.3560 C.3   600  H4B600      0.1627
     12  C7        10.2550   12.4590   46.0690 C.3   600  H4B600      0.1643
     13  C9        12.2840   13.9200   46.3270 C.3   600  H4B600      0.2063
     14  O9        11.6760   15.1930   46.5750 O.3   600  H4B600     -0.2183
     15  C10       12.5630   13.1770   47.6390 C.3   600  H4B600      0.1842
     16  C11       13.4390   13.9680   48.5940 C.3   600  H4B600      0.0383
     17  O10       13.2270   11.9420   47.3330 O.3   600  H4B600     -0.2204
@<TRIPOS>BOND
     1     3     2    1
     2     4     2    2
     3     4     5    2
     4     6     5    2
     5     2     1    2
     6     5     7    1
     7     1     8    2
     8     7     8    1
     9     7     9    2
    10     8    10    2
    11     9    11    1
    12    10    12    1
    13    11    12    1
    14    11    13    1
    15    13    14    1
    16    13    15    1
    17    17    15    1
    18    15    16    1
