@<TRIPOS>MOLECULE
3n6a_XFK_A_1.pdb
 26 28 0 0 0
SMALL
GASTEIGER

@<TRIPOS>ATOM
      1  N01        6.8240   12.5050   32.4200 N.2   800  XFK800     -0.3922
      2  C02        6.0650   11.7820   31.5900 C.2   800  XFK800      0.2178
      3  N02        4.7290   11.7930   31.7960 N.pl3 800  XFK800     -0.0932
      4  C03        6.6550   11.0460   30.5620 C.2   800  XFK800      0.0427
      5  C04        8.0420   11.0820   30.3910 C.2   800  XFK800     -0.0333
      6  C05        8.8120   11.8410   31.2760 C.3   800  XFK800      0.0766
      7  C06        8.1600   12.5520   32.3000 C.2   800  XFK800      0.0928
      8  C07        8.6740   10.2910   29.2690 C.3   800  XFK800      0.0269
      9  C08        8.8360   13.4370   33.3290 C.3   800  XFK800      0.0595
     10  C09       10.3430   13.2980   33.4490 C.3   800  XFK800      0.0350
     11  N11       10.7120   16.6670   35.1230 N.ar  800  XFK800     -0.2430
     12  C12       10.2240   15.6550   34.3750 C.ar  800  XFK800      0.0946
     13  C13       10.9040   14.4350   34.2700 C.ar  800  XFK800     -0.0029
     14  C14       12.1120   14.2740   34.9400 C.ar  800  XFK800     -0.0054
     15  C15       12.5980   15.3340   35.6990 C.ar  800  XFK800     -0.0030
     16  C16       11.8810   16.5290   35.7760 C.ar  800  XFK800      0.0946
     17  C17       13.9060   15.1880   36.4300 C.3   800  XFK800      0.0323
     18  C18       15.0230   15.8190   35.5940 C.3   800  XFK800      0.0273
     19  C21       16.2490   14.8930   37.5370 C.2   800  XFK800      0.0427
     20  C22       17.4180   14.5760   38.2030 C.2   800  XFK800      0.2178
     21  N22       17.3320   13.9940   39.4170 N.pl3 800  XFK800     -0.0932
     22  N23       18.6280   14.8320   37.6320 N.2   800  XFK800     -0.3922
     23  C24       18.7490   15.4080   36.4010 C.2   800  XFK800      0.0929
     24  C25       17.5860   15.7550   35.6920 C.3   800  XFK800      0.0766
     25  C26       16.3300   15.4870   36.2760 C.2   800  XFK800     -0.0333
     26  C27       20.1390   15.6600   35.8470 C.3   800  XFK800      0.0619
@<TRIPOS>BOND
     1     8     5    1
     2     5     4    2
     3     5     6    1
     4     4     2    1
     5     6     7    1
     6     2     3    1
     7     2     1    2
     8     7     1    2
     9     7     9    1
    10     9    10    1
    11    10    13    1
    12    13    12   ar
    13    13    14   ar
    14    12    11   ar
    15    14    15   ar
    16    11    16   ar
    17    18    25    1
    18    18    17    1
    19    24    25    1
    20    24    23    1
    21    15    16   ar
    22    15    17    1
    23    26    23    1
    24    25    19    2
    25    23    22    2
    26    19    20    1
    27    22    20    2
    28    20    21    1
