@<TRIPOS>MOLECULE
3n6b_XFJ_A_1.pdb
 26 28 0 0 0
SMALL
GASTEIGER

@<TRIPOS>ATOM
      1  N01        6.1890   12.6240   32.7220 N.2   800  XFJ800     -0.3922
      2  C02        5.4350   11.9240   31.8430 C.2   800  XFJ800      0.2178
      3  N02        4.0810   11.9350   31.9940 N.pl3 800  XFJ800     -0.0932
      4  C03        6.0760   11.2200   30.8150 C.2   800  XFJ800      0.0427
      5  C04        7.4570   11.2560   30.7140 C.2   800  XFJ800     -0.0333
      6  C05        8.2070   11.9950   31.6250 C.3   800  XFJ800      0.0766
      7  C06        7.5360   12.6860   32.6390 C.2   800  XFJ800      0.0928
      8  C07        8.1230   10.5130   29.6080 C.3   800  XFJ800      0.0269
      9  C08        8.2070   13.5070   33.7100 C.3   800  XFJ800      0.0595
     10  C09        9.6680   13.8230   33.4430 C.3   800  XFJ800      0.0350
     11  N11       10.0910   17.0380   35.4080 N.ar  800  XFJ800     -0.2430
     12  C12        9.6490   16.1400   34.4970 C.ar  800  XFJ800      0.0946
     13  C13       10.1620   14.8290   34.4620 C.ar  800  XFJ800     -0.0029
     14  C14       11.1430   14.4510   35.3740 C.ar  800  XFJ800     -0.0054
     15  C15       11.5720   15.3930   36.3050 C.ar  800  XFJ800     -0.0029
     16  C16       11.0370   16.6870   36.3050 C.ar  800  XFJ800      0.0946
     17  C17       12.6320   15.0250   37.3000 C.3   800  XFJ800      0.0353
     18  C18       13.9340   15.3580   36.6100 C.3   800  XFJ800      0.0637
     19  N21       15.1590   13.2960   37.2010 N.2   800  XFJ800     -0.3924
     20  C22       16.2070   12.6590   37.7690 C.2   800  XFJ800      0.2001
     21  N22       16.3110   11.3160   37.7220 N.pl3 800  XFJ800     -0.0977
     22  C23       17.2090   13.3740   38.4150 C.3   800  XFJ800      0.1001
     23  C24       17.1350   14.7590   38.4790 C.2   800  XFJ800     -0.0332
     24  C25       16.0580   15.4100   37.8930 C.2   800  XFJ800      0.0196
     25  C26       15.0820   14.6450   37.2540 C.2   800  XFJ800      0.1100
     26  C27       18.2160   15.5290   39.1800 C.3   800  XFJ800      0.0269
@<TRIPOS>BOND
     1     8     5    1
     2     5     4    2
     3     5     6    1
     4     4     2    1
     5     6     7    1
     6     2     3    1
     7     2     1    2
     8     7     1    2
     9     7     9    1
    10    10     9    1
    11    10    13    1
    12    13    12   ar
    13    13    14   ar
    14    12    11   ar
    15    14    15   ar
    16    11    16   ar
    17    15    16   ar
    18    15    17    1
    19    18    25    1
    20    18    17    1
    21    19    25    2
    22    19    20    2
    23    25    24    1
    24    21    20    1
    25    20    22    1
    26    24    23    2
    27    22    23    1
    28    23    26    1
