@<TRIPOS>MOLECULE
3n6b_H4B_A_1.pdb
 17 18 0 0 0
SMALL
GASTEIGER

@<TRIPOS>ATOM
      1  N1         8.4360   11.8110   43.4670 N.2   600  H4B600     -0.2683
      2  C2         8.3380   12.0900   42.1540 C.1   600  H4B600      0.2608
      3  N2         7.4310   11.4090   41.4220 N.pl3 600  H4B600     -0.0220
      4  N3         9.1190   13.0330   41.5630 N.2   600  H4B600     -0.2474
      5  C4        10.0320   13.7260   42.2800 C.1   600  H4B600      0.2441
      6  O4        10.7640   14.5820   41.7020 O.2   600  H4B600     -0.2063
      7  C4A       10.1440   13.4530   43.6420 C.2   600  H4B600      0.2463
      8  C8A        9.3190   12.4830   44.2000 C.1   600  H4B600      0.1270
      9  N5        11.0470   14.0950   44.4350 N.2   600  H4B600     -0.2460
     10  N8         9.3770   12.1770   45.5000 N.2   600  H4B600     -0.2054
     11  C6        11.4950   13.3890   45.6310 C.3   600  H4B600      0.1627
     12  C7        10.3000   12.8360   46.4120 C.3   600  H4B600      0.1643
     13  C9        12.2890   14.2750   46.5690 C.3   600  H4B600      0.2063
     14  O9        11.6050   15.5160   46.7450 O.3   600  H4B600     -0.2183
     15  C10       12.3690   13.5580   47.9010 C.3   600  H4B600      0.1842
     16  C11       13.2450   14.2510   48.9360 C.3   600  H4B600      0.0383
     17  O10       12.8750   12.2620   47.6110 O.3   600  H4B600     -0.2204
@<TRIPOS>BOND
     1     3     2    1
     2     4     2    2
     3     4     5    2
     4     6     5    2
     5     2     1    2
     6     5     7    1
     7     1     8    2
     8     7     8    1
     9     7     9    2
    10     8    10    2
    11     9    11    1
    12    10    12    1
    13    11    12    1
    14    11    13    1
    15    13    14    1
    16    13    15    1
    17    17    15    1
    18    15    16    1
