@<TRIPOS>MOLECULE
3n6b_HEM_A_1.pdb
 43 50 0 0 0
SMALL
GASTEIGER

@<TRIPOS>ATOM
      1  CHA        9.1100    9.2000   35.3170 C.2   500  HEM500      0.0000
      2  CHB        4.3140    9.2080   34.1750 C.2   500  HEM500      0.0000
      3  CHC        5.3360    7.7330   29.8290 C.2   500  HEM500      0.0000
      4  CHD        9.8840    6.9130   31.2090 C.2   500  HEM500      0.0000
      5  C1A        7.7420    9.4240   35.3080 C.2   500  HEM500      0.0000
      6  C2A        7.0170   10.1830   36.3230 C.2   500  HEM500      0.0000
      7  C3A        5.7180   10.1760   36.0020 C.2   500  HEM500      0.0000
      8  C4A        5.5540    9.4270   34.7710 C.2   500  HEM500      0.0000
      9  CMA        4.5550   10.8460   36.7830 C.3   500  HEM500      0.0000
     10  CAA        7.6240   10.8670   37.5600 C.3   500  HEM500      0.0000
     11  CBA        8.0130   12.2990   37.2420 C.3   500  HEM500      0.0000
     12  CGA        8.3830   13.0540   38.5050 C.2   500  HEM500      0.0000
     13  O1A        7.7700   12.8420   39.5830 O.co2 500  HEM500      0.0000
     14  O2A        9.3090   13.9130   38.4510 O.co2 500  HEM500      0.0000
     15  C1B        4.1110    8.8500   32.8710 C.ar  500  HEM500      0.0000
     16  C2B        2.9000    8.8830   32.0590 C.ar  500  HEM500      0.0000
     17  C3B        3.2190    8.4750   30.8600 C.ar  500  HEM500      0.0000
     18  C4B        4.6150    8.1640   30.8710 C.ar  500  HEM500      0.0000
     19  CMB        1.4670    9.2930   32.4540 C.3   500  HEM500      0.0000
     20  CAB        2.2770    8.3460   29.6630 C.2   500  HEM500      0.0000
     21  CBB        2.1530    7.1500   29.0710 C.2   500  HEM500      0.0000
     22  C1C        6.6590    7.4540   29.8680 C.2   500  HEM500      0.0000
     23  C2C        7.4150    7.1090   28.6710 C.2   500  HEM500      0.0000
     24  C3C        8.6750    6.8730   29.0630 C.2   500  HEM500      0.0000
     25  C4C        8.7370    7.0640   30.5000 C.2   500  HEM500      0.0000
     26  CMC        6.8510    7.0440   27.2220 C.3   500  HEM500      0.0000
     27  CAC        9.8390    6.4780   28.1540 C.3   500  HEM500      0.0000
     28  CBC        9.5020    5.6450   27.1850 C.3   500  HEM500      0.0000
     29  C1D       10.1510    7.4580   32.4240 C.ar  500  HEM500      0.0000
     30  C2D       11.4240    7.4290   33.0720 C.ar  500  HEM500      0.0000
     31  C3D       11.2140    8.1540   34.3630 C.ar  500  HEM500      0.0000
     32  C4D        9.8230    8.5290   34.3740 C.ar  500  HEM500      0.0000
     33  CMD       12.7380    6.8060   32.5680 C.3   500  HEM500      0.0000
     34  CAD       12.3150    8.3210   35.4080 C.3   500  HEM500      0.0000
     35  CBD       13.5360    9.0820   34.9140 C.3   500  HEM500      0.0000
     36  CGD       13.7920   10.0930   36.0030 C.2   500  HEM500      0.0000
     37  O1D       14.2120    9.6710   37.1480 O.co2 500  HEM500      0.0000
     38  O2D       13.5240   11.3090   35.7090 O.co2 500  HEM500      0.0000
     39  NA         6.8210    8.9850   34.3730 N.2   500  HEM500      0.0000
     40  NB         5.1470    8.3980   32.0990 N.ar  500  HEM500      0.0000
     41  NC         7.4840    7.4220   30.9710 N.2   500  HEM500      0.0000
     42  ND         9.2330    8.0950   33.2230 N.ar  500  HEM500      0.0000
     43 FE          7.1620    8.2260   32.6810 Fe    500  HEM500      0.0000
@<TRIPOS>BOND
     1    28    27    1
     2    26    23    1
     3    27    24    1
     4    23    24    2
     5    23    22    1
     6    24    25    1
     7    21    20    2
     8    20    17    1
     9     3    22    2
    10     3    18    1
    11    22    41    1
    12    25    41    2
    13    25     4    1
    14    17    18   ar
    15    17    16   ar
    16    18    40   ar
    17    41    43    1
    18     4    29    2
    19    16    19    1
    20    16    15   ar
    21    40    43    1
    22    40    15   ar
    23    29    30   ar
    24    29    42   ar
    25    33    30    1
    26    43    42    1
    27    43    39    1
    28    15     2    1
    29    30    31   ar
    30    42    32   ar
    31     2     8    2
    32    31    32   ar
    33    31    34    1
    34    39     8    1
    35    39     5    2
    36    32     1    2
    37     8     7    1
    38    35    34    1
    39    35    36    1
    40     5     1    1
    41     5     6    1
    42    38    36   ar
    43     7     6    2
    44     7     9    1
    45    36    37   ar
    46     6    10    1
    47    11    10    1
    48    11    12    1
    49    14    12   ar
    50    12    13   ar
