@<TRIPOS>MOLECULE
3n6c_HEM_A_1.pdb
 43 50 0 0 0
SMALL
GASTEIGER

@<TRIPOS>ATOM
      1  CHA        8.7660    8.8210   35.5660 C.2   500  HEM500      0.0000
      2  CHB        4.0680    9.0350   34.4250 C.2   500  HEM500      0.0000
      3  CHC        5.1780    7.6470   30.0070 C.2   500  HEM500      0.0000
      4  CHD        9.8130    6.9570   31.2430 C.2   500  HEM500      0.0000
      5  C1A        7.4370    9.1550   35.5670 C.2   500  HEM500      0.0000
      6  C2A        6.7790   10.0320   36.5240 C.2   500  HEM500      0.0000
      7  C3A        5.4780   10.0860   36.1950 C.2   500  HEM500      0.0000
      8  C4A        5.2810    9.2480   35.0390 C.2   500  HEM500      0.0000
      9  CMA        4.3400   10.8660   36.8870 C.3   500  HEM500      0.0000
     10  CAA        7.4810   10.7630   37.6950 C.3   500  HEM500      0.0000
     11  CBA        7.5080   12.2500   37.3630 C.3   500  HEM500      0.0000
     12  CGA        8.1740   13.0620   38.4390 C.2   500  HEM500      0.0000
     13  O1A        7.6460   13.0930   39.5810 O.co2 500  HEM500      0.0000
     14  O2A        9.2350   13.6820   38.1360 O.co2 500  HEM500      0.0000
     15  C1B        3.9330    8.7250   33.1070 C.ar  500  HEM500      0.0000
     16  C2B        2.7390    8.8450   32.3180 C.ar  500  HEM500      0.0000
     17  C3B        3.0320    8.4630   31.0810 C.ar  500  HEM500      0.0000
     18  C4B        4.4360    8.0910   31.0680 C.ar  500  HEM500      0.0000
     19  CMB        1.3770    9.3350   32.8400 C.3   500  HEM500      0.0000
     20  CAB        2.0550    8.4380   29.8840 C.2   500  HEM500      0.0000
     21  CBB        1.9310    7.3580   29.1100 C.2   500  HEM500      0.0000
     22  C1C        6.5350    7.4240   29.9730 C.2   500  HEM500      0.0000
     23  C2C        7.2780    7.1700   28.7600 C.2   500  HEM500      0.0000
     24  C3C        8.5450    6.9900   29.0970 C.2   500  HEM500      0.0000
     25  C4C        8.6580    7.1120   30.5260 C.2   500  HEM500      0.0000
     26  CMC        6.6830    7.1330   27.3370 C.3   500  HEM500      0.0000
     27  CAC        9.6900    6.6910   28.1350 C.2   500  HEM500      0.0000
     28  CBC        9.7910    5.4740   27.6210 C.2   500  HEM500      0.0000
     29  C1D       10.0040    7.3610   32.5360 C.ar  500  HEM500      0.0000
     30  C2D       11.2480    7.3170   33.2810 C.ar  500  HEM500      0.0000
     31  C3D       10.9010    7.9120   34.6500 C.ar  500  HEM500      0.0000
     32  C4D        9.4960    8.2470   34.5610 C.ar  500  HEM500      0.0000
     33  CMD       12.6360    6.7950   32.8180 C.3   500  HEM500      0.0000
     34  CAD       11.8440    8.1070   35.8700 C.3   500  HEM500      0.0000
     35  CBD       13.2050    8.6770   35.4650 C.3   500  HEM500      0.0000
     36  CGD       13.9030    9.1650   36.7110 C.2   500  HEM500      0.0000
     37  O1D       14.7680    8.4260   37.2650 O.co2 500  HEM500      0.0000
     38  O2D       13.5880   10.3000   37.1590 O.co2 500  HEM500      0.0000
     39  NA         6.4990    8.6920   34.6770 N.2   500  HEM500      0.0000
     40  NB         4.9530    8.2530   32.3230 N.ar  500  HEM500      0.0000
     41  NC         7.4080    7.3800   31.0380 N.2   500  HEM500      0.0000
     42  ND         9.0080    7.9060   33.3190 N.ar  500  HEM500      0.0000
     43 FE          6.9830    8.0290   32.8210 Fe    500  HEM500      0.0000
@<TRIPOS>BOND
     1    26    23    1
     2    28    27    2
     3    27    24    1
     4    23    24    2
     5    23    22    1
     6    24    25    1
     7    21    20    2
     8    20    17    1
     9    22     3    2
    10    22    41    1
    11     3    18    1
    12    25    41    2
    13    25     4    1
    14    41    43    1
    15    18    17   ar
    16    18    40   ar
    17    17    16   ar
    18     4    29    2
    19    16    19    1
    20    16    15   ar
    21    40    43    1
    22    40    15   ar
    23    29    30   ar
    24    29    42   ar
    25    33    30    1
    26    43    42    1
    27    43    39    1
    28    15     2    1
    29    30    31   ar
    30    42    32   ar
    31     2     8    2
    32    32    31   ar
    33    32     1    2
    34    31    34    1
    35    39     8    1
    36    39     5    2
    37     8     7    1
    38    35    34    1
    39    35    36    1
    40     1     5    1
    41     5     6    1
    42     7     6    2
    43     7     9    1
    44     6    10    1
    45    36    38   ar
    46    36    37   ar
    47    11    10    1
    48    11    12    1
    49    14    12   ar
    50    12    13   ar
