@<TRIPOS>MOLECULE
3n6c_XFM_A_1.pdb
 26 28 0 0 0
SMALL
GASTEIGER

@<TRIPOS>ATOM
      1  N1         5.7350   12.8810   32.7960 N.2   800  XFM800     -0.3924
      2  C2         6.9700   13.1700   32.3070 C.2   800  XFM800      0.1101
      3  C3         7.3790   12.6050   31.1040 C.2   800  XFM800      0.0196
      4  C4         6.5260   11.7480   30.4200 C.2   800  XFM800     -0.0332
      5  C5         5.2750   11.4580   30.9440 C.3   800  XFM800      0.1001
      6  C6         4.8890   12.0400   32.1440 C.2   800  XFM800      0.2001
      7  C7         7.9010   14.1180   33.0360 C.3   800  XFM800      0.0664
      8  C8         8.4790   13.5190   34.3090 C.3   800  XFM800      0.0664
      9  C9         9.8250   12.9100   34.0070 C.2   800  XFM800      0.1083
     10  N10       10.9680   13.6200   34.1980 N.2   800  XFM800     -0.4145
     11  C11       12.1910   13.0790   33.9350 C.2   800  XFM800      0.0909
     12  C12       12.2790   11.7800   33.4460 C.3   800  XFM800      0.0804
     13  C13       11.1170   11.0390   33.2470 C.2   800  XFM800     -0.0167
     14  C14        9.8780   11.6050   33.5300 C.2   800  XFM800      0.0234
     15  C15       13.4770   13.8630   34.1300 C.3   800  XFM800      0.0591
     16  C16       13.9070   14.0900   35.5850 C.3   800  XFM800      0.0296
     17  C17       14.9440   15.2020   35.5760 C.2   800  XFM800     -0.0332
     18  C18       16.3130   14.9110   35.5930 C.2   800  XFM800      0.0196
     19  C19       17.2540   15.9480   35.5730 C.2   800  XFM800      0.1101
     20  N20       16.8310   17.2410   35.5300 N.2   800  XFM800     -0.3924
     21  C21       15.5070   17.5530   35.5050 C.2   800  XFM800      0.2001
     22  C22       14.5440   16.5400   35.5270 C.3   800  XFM800      0.1001
     23  N23       15.1190   18.8530   35.4610 N.pl3 800  XFM800     -0.0977
     24  C24       18.7340   15.6410   35.5990 C.3   800  XFM800      0.0664
     25  C25        6.9610   11.1250   29.1210 C.3   800  XFM800      0.0269
     26  N26        3.6650   11.7660   32.6500 N.pl3 800  XFM800     -0.0977
@<TRIPOS>BOND
     1    25     4    1
     2     4     5    1
     3     4     3    2
     4     5     6    1
     5     3     2    1
     6     6    26    1
     7     6     1    2
     8     2     1    2
     9     2     7    1
    10     7     8    1
    11    13    12    1
    12    13    14    2
    13    12    11    1
    14    14     9    1
    15    11    15    1
    16    11    10    2
    17     9    10    2
    18     9     8    1
    19    15    16    1
    20    23    21    1
    21    21    22    1
    22    21    20    2
    23    22    17    1
    24    20    19    2
    25    19    18    1
    26    19    24    1
    27    17    16    1
    28    17    18    2
