@<TRIPOS>MOLECULE
3n6c_H4B_A_1.pdb
 17 18 0 0 0
SMALL
GASTEIGER

@<TRIPOS>ATOM
      1  N1         7.6380   11.8160   43.9600 N.2   600  H4B600     -0.2683
      2  C2         7.3880   12.1310   42.6650 C.1   600  H4B600      0.2608
      3  N2         6.3640   11.5310   42.0140 N.pl3 600  H4B600     -0.0220
      4  N3         8.1550   13.0450   42.0180 N.2   600  H4B600     -0.2474
      5  C4         9.1910   13.6680   42.6370 C.1   600  H4B600      0.2441
      6  O4         9.8890   14.5130   42.0210 O.2   600  H4B600     -0.2063
      7  C4A        9.4550   13.3580   43.9670 C.2   600  H4B600      0.2463
      8  C8A        8.6600   12.4170   44.6180 C.1   600  H4B600      0.1270
      9  N5        10.4750   13.9290   44.6530 N.2   600  H4B600     -0.2460
     10  N8         8.9150   12.1010   45.9190 N.2   600  H4B600     -0.2054
     11  C6        11.0920   13.0780   45.6600 C.3   600  H4B600      0.1627
     12  C7        10.0050   12.7200   46.6770 C.3   600  H4B600      0.1643
     13  C9        12.3870   13.6700   46.2350 C.3   600  H4B600      0.2063
     14  O9        12.5060   15.0280   45.7900 O.3   600  H4B600     -0.2183
     15  C10       12.5040   13.5670   47.7600 C.3   600  H4B600      0.1842
     16  C11       13.6800   14.3610   48.3160 C.3   600  H4B600      0.0383
     17  O10       12.6750   12.1970   48.1430 O.3   600  H4B600     -0.2204
@<TRIPOS>BOND
     1     3     2    1
     2     4     5    2
     3     4     2    2
     4     6     5    2
     5     5     7    1
     6     2     1    2
     7     1     8    2
     8     7     8    1
     9     7     9    2
    10     8    10    2
    11     9    11    1
    12    11    13    1
    13    11    12    1
    14    14    13    1
    15    10    12    1
    16    13    15    1
    17    15    17    1
    18    15    16    1
