@<TRIPOS>MOLECULE
3n6d_H4B_A_1.pdb
 17 18 0 0 0
SMALL
GASTEIGER

@<TRIPOS>ATOM
      1  N1         8.0120   12.1350   42.8970 N.2   600  H4B600     -0.2683
      2  C2         7.8400   12.5820   41.6260 C.1   600  H4B600      0.2608
      3  N2         6.8010   12.0970   40.8940 N.pl3 600  H4B600     -0.0220
      4  N3         8.7070   13.5090   41.1030 N.2   600  H4B600     -0.2474
      5  C4         9.7650   14.0100   41.8150 C.1   600  H4B600      0.2441
      6  O4        10.5470   14.8670   41.3020 O.2   600  H4B600     -0.2063
      7  C4A        9.9300   13.5420   43.1260 C.2   600  H4B600      0.2463
      8  C8A        9.0420   12.6000   43.6480 C.1   600  H4B600      0.1270
      9  N5        10.9360   13.9740   43.9170 N.2   600  H4B600     -0.2460
     10  N8         9.1970   12.1300   44.9080 N.2   600  H4B600     -0.2054
     11  C6        11.4050   13.1370   45.0090 C.3   600  H4B600      0.1627
     12  C7        10.2480   12.5610   45.8180 C.3   600  H4B600      0.1643
     13  C9        12.3490   13.9730   45.8590 C.3   600  H4B600      0.2063
     14  O9        12.0950   15.3540   45.6050 O.3   600  H4B600     -0.2183
     15  C10       12.2350   13.6870   47.3460 C.3   600  H4B600      0.1842
     16  C11       13.0790   14.6800   48.1260 C.3   600  H4B600      0.0383
     17  O10       12.7210   12.3680   47.6270 O.3   600  H4B600     -0.2204
@<TRIPOS>BOND
     1     3     2    1
     2     4     2    2
     3     4     5    2
     4     6     5    2
     5     2     1    2
     6     5     7    1
     7     1     8    2
     8     7     8    1
     9     7     9    2
    10     8    10    2
    11     9    11    1
    12    10    12    1
    13    11    12    1
    14    11    13    1
    15    14    13    1
    16    13    15    1
    17    15    17    1
    18    15    16    1
