@<TRIPOS>MOLECULE
3n6d_XFN_A_1.pdb
 27 29 0 0 0
SMALL
GASTEIGER

@<TRIPOS>ATOM
      1  C01       13.5430   15.9850   35.5170 C.ar  800  XFN800      0.0138
      2  C02       13.2530   15.6930   34.1750 C.ar  800  XFN800      0.0885
      3  N02       13.9780   16.2390   33.1540 N.pl3 800  XFN800     -0.1281
      4  C03       12.2010   14.8230   33.8910 C.ar  800  XFN800      0.0138
      5  C04       11.4310   14.2410   34.8960 C.ar  800  XFN800     -0.0207
      6  C05       11.7350   14.5350   36.2390 C.ar  800  XFN800     -0.0084
      7  C06       12.8030   15.4040   36.5590 C.ar  800  XFN800     -0.0207
      8  C07       10.2940   13.3010   34.4840 C.3   800  XFN800      0.0335
      9  C08       13.1490   15.7710   38.0050 C.3   800  XFN800      0.0335
     10  C09       14.3980   15.1210   38.6210 C.3   800  XFN800      0.0595
     11  C11       17.5470   15.8250   36.6870 C.2   800  XFN800      0.2178
     12  N12       16.3590   15.3050   37.1250 N.2   800  XFN800     -0.3922
     13  C13       15.7150   15.7800   38.2330 C.2   800  XFN800      0.0928
     14  C14       16.2950   16.8360   38.9750 C.3   800  XFN800      0.0766
     15  C15       17.5250   17.3920   38.5460 C.2   800  XFN800     -0.0333
     16  C16       18.1490   16.8790   37.3970 C.2   800  XFN800      0.0427
     17  N17       18.1330   15.3200   35.5640 N.pl3 800  XFN800     -0.0932
     18  C18       18.2050   18.5250   39.2800 C.3   800  XFN800      0.0269
     19  C34        9.1490   13.9600   33.6490 C.3   800  XFN800      0.0595
     20  C35        8.3030   13.0580   32.7280 C.2   800  XFN800      0.0928
     21  C36        8.8530   12.2650   31.7030 C.3   800  XFN800      0.0766
     22  C37        8.0260   11.4770   30.8920 C.2   800  XFN800     -0.0333
     23  C38        6.6540   11.4680   31.0840 C.2   800  XFN800      0.0427
     24  C39        6.1380   12.2660   32.0950 C.2   800  XFN800      0.2178
     25  N40        6.9530   13.0330   32.8780 N.2   800  XFN800     -0.3922
     26  N41        4.8040   12.2820   32.3050 N.pl3 800  XFN800     -0.0932
     27  C42        8.6020   10.6330   29.8070 C.3   800  XFN800      0.0269
@<TRIPOS>BOND
     1    27    22    1
     2    22    23    2
     3    22    21    1
     4    23    24    1
     5    21    20    1
     6    24    26    1
     7    24    25    2
     8    20    25    2
     9    20    19    1
    10     3     2    1
    11    19     8    1
    12     4     2   ar
    13     4     5   ar
    14     2     1   ar
    15     8     5    1
    16     5     6   ar
    17     1     7   ar
    18    17    11    1
    19     6     7   ar
    20     7     9    1
    21    11    12    2
    22    11    16    1
    23    12    13    2
    24    16    15    2
    25     9    10    1
    26    13    10    1
    27    13    14    1
    28    15    14    1
    29    15    18    1
