@<TRIPOS>MOLECULE
3n6d_HEM_A_1.pdb
 43 50 0 0 0
SMALL
GASTEIGER

@<TRIPOS>ATOM
      1  CHA        9.0290    9.0930   35.5320 C.2   500  HEM500      0.0000
      2  CHB        4.4960    9.4080   33.9370 C.2   500  HEM500      0.0000
      3  CHC        5.8210    7.9100   29.5890 C.2   500  HEM500      0.0000
      4  CHD       10.1690    6.9840   31.3170 C.2   500  HEM500      0.0000
      5  C1A        7.7130    9.4200   35.4390 C.2   500  HEM500      0.0000
      6  C2A        6.9620   10.2010   36.3990 C.2   500  HEM500      0.0000
      7  C3A        5.6980   10.2810   35.9460 C.2   500  HEM500      0.0000
      8  C4A        5.6280    9.5710   34.6900 C.2   500  HEM500      0.0000
      9  CMA        4.4920   11.0020   36.5880 C.3   500  HEM500      0.0000
     10  CAA        7.5130   10.8270   37.6990 C.3   500  HEM500      0.0000
     11  CBA        8.3820   12.0310   37.3330 C.3   500  HEM500      0.0000
     12  CGA        8.2190   13.2720   38.2060 C.2   500  HEM500      0.0000
     13  O1A        7.0580   13.6950   38.5040 O.co2 500  HEM500      0.0000
     14  O2A        9.2710   13.8770   38.5930 O.co2 500  HEM500      0.0000
     15  C1B        4.4510    8.9960   32.6370 C.ar  500  HEM500      0.0000
     16  C2B        3.2630    8.8630   31.8450 C.ar  500  HEM500      0.0000
     17  C3B        3.6120    8.4540   30.6360 C.ar  500  HEM500      0.0000
     18  C4B        5.0530    8.3090   30.6410 C.ar  500  HEM500      0.0000
     19  CMB        1.8410    9.1670   32.3150 C.3   500  HEM500      0.0000
     20  CAB        2.6330    8.2180   29.4460 C.2   500  HEM500      0.0000
     21  CBB        2.7710    7.2360   28.5370 C.2   500  HEM500      0.0000
     22  C1C        7.1340    7.5790   29.6550 C.2   500  HEM500      0.0000
     23  C2C        7.9900    7.2070   28.5470 C.2   500  HEM500      0.0000
     24  C3C        9.1890    6.9640   29.0630 C.2   500  HEM500      0.0000
     25  C4C        9.1150    7.1670   30.4860 C.2   500  HEM500      0.0000
     26  CMC        7.6210    7.1200   27.0530 C.3   500  HEM500      0.0000
     27  CAC       10.4720    6.5190   28.3150 C.2   500  HEM500      0.0000
     28  CBC       10.4540    5.5110   27.4310 C.2   500  HEM500      0.0000
     29  C1D       10.3170    7.5480   32.5460 C.ar  500  HEM500      0.0000
     30  C2D       11.5780    7.7160   33.2270 C.ar  500  HEM500      0.0000
     31  C3D       11.2040    8.3920   34.5520 C.ar  500  HEM500      0.0000
     32  C4D        9.7760    8.5400   34.5310 C.ar  500  HEM500      0.0000
     33  CMD       12.9780    7.3100   32.7040 C.3   500  HEM500      0.0000
     34  CAD       12.1300    8.8160   35.7040 C.3   500  HEM500      0.0000
     35  CBD       13.5190    9.2140   35.1910 C.3   500  HEM500      0.0000
     36  CGD       14.0980   10.3290   36.0320 C.2   500  HEM500      0.0000
     37  O1D       14.4050   10.0980   37.2500 O.co2 500  HEM500      0.0000
     38  O2D       14.2430   11.4460   35.4560 O.co2 500  HEM500      0.0000
     39  NA         6.8740    9.0480   34.4090 N.2   500  HEM500      0.0000
     40  NB         5.5290    8.6260   31.8820 N.ar  500  HEM500      0.0000
     41  NC         7.8360    7.5280   30.8230 N.2   500  HEM500      0.0000
     42  ND         9.2840    8.0180   33.3470 N.ar  500  HEM500      0.0000
     43 FE          7.3140    8.2760   32.6090 Fe    500  HEM500      0.0000
@<TRIPOS>BOND
     1    26    23    1
     2    28    27    2
     3    27    24    1
     4    21    20    2
     5    23    24    2
     6    23    22    1
     7    24    25    1
     8    20    17    1
     9     3    22    2
    10     3    18    1
    11    22    41    1
    12    25    41    2
    13    25     4    1
    14    17    18   ar
    15    17    16   ar
    16    18    40   ar
    17    41    43    1
    18     4    29    2
    19    16    19    1
    20    16    15   ar
    21    40    43    1
    22    40    15   ar
    23    29    30   ar
    24    29    42   ar
    25    43    42    1
    26    43    39    1
    27    15     2    1
    28    33    30    1
    29    30    31   ar
    30    42    32   ar
    31     2     8    2
    32    39     8    1
    33    39     5    2
    34    32    31   ar
    35    32     1    2
    36    31    34    1
    37     8     7    1
    38    35    34    1
    39    35    36    1
    40     5     1    1
    41     5     6    1
    42    38    36   ar
    43     7     6    2
    44     7     9    1
    45    36    37   ar
    46     6    10    1
    47    11    10    1
    48    11    12    1
    49    12    13   ar
    50    12    14   ar
