@<TRIPOS>MOLECULE
3n6e_XFN_A_1.pdb
 27 29 0 0 0
SMALL
GASTEIGER

@<TRIPOS>ATOM
      1  C01       13.4820   15.6820   34.9200 C.ar  800  XFN800      0.0138
      2  C02       13.3140   15.6140   33.5420 C.ar  800  XFN800      0.0885
      3  N02       14.3790   15.8440   32.7320 N.pl3 800  XFN800     -0.1281
      4  C03       12.0530   15.3080   33.0230 C.ar  800  XFN800      0.0138
      5  C04       10.9560   15.0570   33.8590 C.ar  800  XFN800     -0.0207
      6  C05       11.1450   15.1300   35.2390 C.ar  800  XFN800     -0.0084
      7  C06       12.4020   15.4340   35.7700 C.ar  800  XFN800     -0.0207
      8  C07        9.5950   14.7170   33.2580 C.3   800  XFN800      0.0338
      9  C08       12.6040   15.5230   37.2720 C.3   800  XFN800      0.0338
     10  C09       13.6940   14.5780   37.7910 C.3   800  XFN800      0.0637
     11  C11       17.3320   15.3780   37.3220 C.2   800  XFN800      0.2001
     12  N12       16.1180   14.7620   37.2680 N.2   800  XFN800     -0.3924
     13  C13       15.0270   15.2960   37.8840 C.2   800  XFN800      0.1100
     14  C14       15.1390   16.5050   38.5920 C.2   800  XFN800      0.0196
     15  C15       16.3740   17.1580   38.6610 C.2   800  XFN800     -0.0332
     16  C16       17.4800   16.5860   38.0220 C.3   800  XFN800      0.1001
     17  N17       18.4010   14.8200   36.6960 N.pl3 800  XFN800     -0.0977
     18  C18       16.5060   18.4580   39.4150 C.3   800  XFN800      0.0269
     19  C34        9.2760   13.2450   33.5180 C.3   800  XFN800      0.0637
     20  C35        8.3380   12.5810   32.5180 C.2   800  XFN800      0.1100
     21  C36        8.8830   11.8890   31.4370 C.2   800  XFN800      0.0196
     22  C37        8.0430   11.2530   30.5220 C.2   800  XFN800     -0.0332
     23  C38        6.6570   11.3180   30.7120 C.3   800  XFN800      0.1001
     24  C39        6.1420   12.0150   31.8170 C.2   800  XFN800      0.2001
     25  N40        6.9810   12.6220   32.6870 N.2   800  XFN800     -0.3924
     26  N41        4.8010   12.0790   32.0290 N.pl3 800  XFN800     -0.0977
     27  C42        8.6500   10.5170   29.3400 C.3   800  XFN800      0.0269
@<TRIPOS>BOND
     1    27    22    1
     2    22    23    1
     3    22    21    2
     4    23    24    1
     5    21    20    1
     6    24    26    1
     7    24    25    2
     8    20    25    2
     9    20    19    1
    10     3     2    1
    11     4     2   ar
    12     4     5   ar
    13     8    19    1
    14     8     5    1
    15     2     1   ar
    16     5     6   ar
    17     1     7   ar
    18     6     7   ar
    19     7     9    1
    20    17    11    1
    21    12    11    2
    22    12    13    2
    23     9    10    1
    24    11    16    1
    25    10    13    1
    26    13    14    1
    27    16    15    1
    28    14    15    2
    29    15    18    1
