@<TRIPOS>MOLECULE
3n6e_HEM_A_1.pdb
 43 50 0 0 0
SMALL
GASTEIGER

@<TRIPOS>ATOM
      1  CHA        9.3340    9.0900   35.2660 C.2   500  HEM500      0.0000
      2  CHB        4.7070    8.9980   33.8570 C.2   500  HEM500      0.0000
      3  CHC        6.0630    7.4140   29.4810 C.2   500  HEM500      0.0000
      4  CHD       10.4470    6.5610   31.2810 C.2   500  HEM500      0.0000
      5  C1A        7.9840    9.3430   35.1920 C.2   500  HEM500      0.0000
      6  C2A        7.2150   10.1800   36.0990 C.2   500  HEM500      0.0000
      7  C3A        5.9350   10.1590   35.7290 C.2   500  HEM500      0.0000
      8  C4A        5.8460    9.3130   34.5550 C.2   500  HEM500      0.0000
      9  CMA        4.7580   10.9180   36.3950 C.3   500  HEM500      0.0000
     10  CAA        7.8110   10.9630   37.2860 C.3   500  HEM500      0.0000
     11  CBA        8.1450   12.3230   36.6920 C.3   500  HEM500      0.0000
     12  CGA        8.7470   13.2570   37.7110 C.2   500  HEM500      0.0000
     13  O1A        8.1260   13.4550   38.7910 O.co2 500  HEM500      0.0000
     14  O2A        9.8390   13.8130   37.4100 O.co2 500  HEM500      0.0000
     15  C1B        4.6750    8.6070   32.5390 C.ar  500  HEM500      0.0000
     16  C2B        3.5090    8.6270   31.6910 C.ar  500  HEM500      0.0000
     17  C3B        3.8690    8.1820   30.4790 C.ar  500  HEM500      0.0000
     18  C4B        5.2870    7.8720   30.5330 C.ar  500  HEM500      0.0000
     19  CMB        2.1070    9.0870   32.1400 C.3   500  HEM500      0.0000
     20  CAB        2.9490    8.0550   29.2370 C.2   500  HEM500      0.0000
     21  CBB        3.1440    7.0810   28.3200 C.2   500  HEM500      0.0000
     22  C1C        7.4090    7.1300   29.5570 C.2   500  HEM500      0.0000
     23  C2C        8.2820    6.7280   28.4680 C.2   500  HEM500      0.0000
     24  C3C        9.5010    6.4970   28.9850 C.2   500  HEM500      0.0000
     25  C4C        9.4250    6.7350   30.3980 C.2   500  HEM500      0.0000
     26  CMC        7.8650    6.6270   26.9850 C.3   500  HEM500      0.0000
     27  CAC       10.8000    6.0580   28.2760 C.2   500  HEM500      0.0000
     28  CBC       10.7660    5.2620   27.1960 C.2   500  HEM500      0.0000
     29  C1D       10.5930    7.2090   32.4650 C.ar  500  HEM500      0.0000
     30  C2D       11.8400    7.3460   33.1940 C.ar  500  HEM500      0.0000
     31  C3D       11.5000    8.1430   34.4350 C.ar  500  HEM500      0.0000
     32  C4D       10.0750    8.3910   34.3370 C.ar  500  HEM500      0.0000
     33  CMD       13.2460    6.8340   32.8280 C.3   500  HEM500      0.0000
     34  CAD       12.5200    8.5470   35.5220 C.3   500  HEM500      0.0000
     35  CBD       13.0270    9.9740   35.3270 C.3   500  HEM500      0.0000
     36  CGD       13.9500   10.3630   36.4700 C.2   500  HEM500      0.0000
     37  O1D       14.5070    9.4690   37.1770 O.co2 500  HEM500      0.0000
     38  O2D       14.1380   11.5950   36.6770 O.co2 500  HEM500      0.0000
     39  NA         7.1060    8.7900   34.2840 N.2   500  HEM500      0.0000
     40  NB         5.7250    8.0910   31.8250 N.ar  500  HEM500      0.0000
     41  NC         8.1320    7.0560   30.7270 N.2   500  HEM500      0.0000
     42  ND         9.5620    7.7690   33.1840 N.ar  500  HEM500      0.0000
     43 FE          7.6110    7.8320   32.5400 Fe    500  HEM500      0.0000
@<TRIPOS>BOND
     1    26    23    1
     2    28    27    2
     3    27    24    1
     4    21    20    2
     5    23    24    2
     6    23    22    1
     7    24    25    1
     8    20    17    1
     9     3    22    2
    10     3    18    1
    11    22    41    1
    12    25    41    2
    13    25     4    1
    14    17    18   ar
    15    17    16   ar
    16    18    40   ar
    17    41    43    1
    18     4    29    2
    19    16    19    1
    20    16    15   ar
    21    40    15   ar
    22    40    43    1
    23    29    42   ar
    24    29    30   ar
    25    15     2    1
    26    43    42    1
    27    43    39    1
    28    33    30    1
    29    42    32   ar
    30    30    31   ar
    31     2     8    2
    32    39     8    1
    33    39     5    2
    34    32    31   ar
    35    32     1    2
    36    31    34    1
    37     8     7    1
    38     5     1    1
    39     5     6    1
    40    35    34    1
    41    35    36    1
    42     7     6    2
    43     7     9    1
    44     6    10    1
    45    36    38   ar
    46    36    37   ar
    47    11    10    1
    48    11    12    1
    49    14    12   ar
    50    12    13   ar
