@<TRIPOS>MOLECULE
3n6e_H4B_A_1.pdb
 17 18 0 0 0
SMALL
GASTEIGER

@<TRIPOS>ATOM
      1  N1         8.3930   11.8510   42.9770 N.2   600  H4B600     -0.2683
      2  C2         8.3070   12.2290   41.6900 C.1   600  H4B600      0.2608
      3  N2         7.4550   11.5770   40.8590 N.pl3 600  H4B600     -0.0220
      4  N3         9.0640   13.2520   41.2500 N.2   600  H4B600     -0.2474
      5  C4         9.9350   13.9190   42.0500 C.1   600  H4B600      0.2441
      6  O4        10.6290   14.8730   41.5670 O.2   600  H4B600     -0.2063
      7  C4A       10.0290   13.5390   43.3870 C.2   600  H4B600      0.2463
      8  C8A        9.2300   12.4870   43.8250 C.1   600  H4B600      0.1270
      9  N5        10.8760   14.1350   44.2810 N.2   600  H4B600     -0.2460
     10  N8         9.2800   12.0640   45.1100 N.2   600  H4B600     -0.2054
     11  C6        11.3570   13.2990   45.3880 C.3   600  H4B600      0.1627
     12  C7        10.1550   12.6770   46.1040 C.3   600  H4B600      0.1643
     13  C9        12.2240   14.0750   46.3880 C.3   600  H4B600      0.2063
     14  O9        11.5520   15.2820   46.7180 O.3   600  H4B600     -0.2183
     15  C10       12.4850   13.3000   47.6840 C.3   600  H4B600      0.1842
     16  C11       13.3050   14.0960   48.6820 C.3   600  H4B600      0.0383
     17  O10       13.2220   12.1280   47.3760 O.3   600  H4B600     -0.2204
@<TRIPOS>BOND
     1     3     2    1
     2     4     2    2
     3     4     5    2
     4     6     5    2
     5     2     1    2
     6     5     7    1
     7     1     8    2
     8     7     8    1
     9     7     9    2
    10     8    10    2
    11     9    11    1
    12    10    12    1
    13    11    12    1
    14    11    13    1
    15    13    14    1
    16    13    15    1
    17    17    15    1
    18    15    16    1
