@<TRIPOS>MOLECULE
3n6f_HEM_A_1.pdb
 43 50 0 0 0
SMALL
GASTEIGER

@<TRIPOS>ATOM
      1  CHA        9.2450    9.1980   35.1820 C.2   500  HEM500      0.0000
      2  CHB        4.5760    9.0120   33.8710 C.2   500  HEM500      0.0000
      3  CHC        5.9210    7.4390   29.4670 C.2   500  HEM500      0.0000
      4  CHD       10.3360    6.6500   31.2150 C.2   500  HEM500      0.0000
      5  C1A        7.8830    9.3920   35.1540 C.2   500  HEM500      0.0000
      6  C2A        7.1200   10.1290   36.1290 C.2   500  HEM500      0.0000
      7  C3A        5.8250   10.0820   35.7760 C.2   500  HEM500      0.0000
      8  C4A        5.7270    9.3110   34.5610 C.2   500  HEM500      0.0000
      9  CMA        4.6400   10.7310   36.5330 C.3   500  HEM500      0.0000
     10  CAA        7.7150   10.8580   37.3570 C.3   500  HEM500      0.0000
     11  CBA        8.2500   12.1700   36.7640 C.3   500  HEM500      0.0000
     12  CGA        8.5090   13.2990   37.7370 C.2   500  HEM500      0.0000
     13  O1A        7.9770   13.3180   38.8750 O.co2 500  HEM500      0.0000
     14  O2A        9.2550   14.2290   37.3320 O.co2 500  HEM500      0.0000
     15  C1B        4.5520    8.5950   32.5530 C.ar  500  HEM500      0.0000
     16  C2B        3.3660    8.5660   31.7170 C.ar  500  HEM500      0.0000
     17  C3B        3.7160    8.1190   30.5020 C.ar  500  HEM500      0.0000
     18  C4B        5.1500    7.8540   30.5350 C.ar  500  HEM500      0.0000
     19  CMB        1.9570    8.9770   32.1890 C.3   500  HEM500      0.0000
     20  CAB        2.7590    7.9460   29.2910 C.2   500  HEM500      0.0000
     21  CBB        2.9400    6.9710   28.3730 C.2   500  HEM500      0.0000
     22  C1C        7.2570    7.1510   29.5170 C.2   500  HEM500      0.0000
     23  C2C        8.1150    6.7170   28.4260 C.2   500  HEM500      0.0000
     24  C3C        9.3460    6.4940   28.9400 C.2   500  HEM500      0.0000
     25  C4C        9.2840    6.7850   30.3510 C.2   500  HEM500      0.0000
     26  CMC        7.6700    6.5570   26.9500 C.3   500  HEM500      0.0000
     27  CAC       10.6470    6.0150   28.2490 C.2   500  HEM500      0.0000
     28  CBC       10.6060    5.3040   27.1160 C.2   500  HEM500      0.0000
     29  C1D       10.4860    7.2880   32.4080 C.ar  500  HEM500      0.0000
     30  C2D       11.7410    7.4130   33.1300 C.ar  500  HEM500      0.0000
     31  C3D       11.3930    8.1980   34.3680 C.ar  500  HEM500      0.0000
     32  C4D        9.9780    8.4870   34.2650 C.ar  500  HEM500      0.0000
     33  CMD       13.1460    6.8830   32.7670 C.3   500  HEM500      0.0000
     34  CAD       12.3970    8.6210   35.4480 C.3   500  HEM500      0.0000
     35  CBD       12.7960   10.0380   35.0470 C.3   500  HEM500      0.0000
     36  CGD       13.8660   10.5760   35.9560 C.2   500  HEM500      0.0000
     37  O1D       14.4890    9.7950   36.7220 O.co2 500  HEM500      0.0000
     38  O2D       14.0800   11.8130   35.9060 O.co2 500  HEM500      0.0000
     39  NA         7.0070    8.9070   34.2050 N.2   500  HEM500      0.0000
     40  NB         5.6250    8.1580   31.8040 N.ar  500  HEM500      0.0000
     41  NC         8.0050    7.1730   30.6730 N.2   500  HEM500      0.0000
     42  ND         9.4790    7.9180   33.0990 N.ar  500  HEM500      0.0000
     43 FE          7.4780    7.6610   32.5760 Fe    500  HEM500      0.0000
@<TRIPOS>BOND
     1    26    23    1
     2    28    27    2
     3    27    24    1
     4    21    20    2
     5    23    24    2
     6    23    22    1
     7    24    25    1
     8    20    17    1
     9     3    22    2
    10     3    18    1
    11    22    41    1
    12    25    41    2
    13    25     4    1
    14    17    18   ar
    15    17    16   ar
    16    18    40   ar
    17    41    43    1
    18     4    29    2
    19    16    19    1
    20    16    15   ar
    21    40    15   ar
    22    40    43    1
    23    29    42   ar
    24    29    30   ar
    25    15     2    1
    26    43    42    1
    27    43    39    1
    28    33    30    1
    29    42    32   ar
    30    30    31   ar
    31     2     8    2
    32    39     8    1
    33    39     5    2
    34    32    31   ar
    35    32     1    2
    36    31    34    1
    37     8     7    1
    38    35    34    1
    39    35    36    1
    40     5     1    1
    41     5     6    1
    42     7     6    2
    43     7     9    1
    44    38    36   ar
    45    36    37   ar
    46     6    10    1
    47    11    10    1
    48    11    12    1
    49    14    12   ar
    50    12    13   ar
