@<TRIPOS>MOLECULE
3n6f_H4B_A_1.pdb
 17 18 0 0 0
SMALL
GASTEIGER

@<TRIPOS>ATOM
      1  N1         8.4420   11.7210   43.0530 N.2   600  H4B600     -0.2683
      2  C2         8.3500   12.1120   41.7640 C.1   600  H4B600      0.2608
      3  N2         7.5110   11.4610   40.9380 N.pl3 600  H4B600     -0.0220
      4  N3         9.0840   13.1450   41.3110 N.2   600  H4B600     -0.2474
      5  C4         9.9470   13.7960   42.1240 C.1   600  H4B600      0.2441
      6  O4        10.6080   14.7670   41.6560 O.2   600  H4B600     -0.2063
      7  C4A       10.0340   13.4060   43.4550 C.2   600  H4B600      0.2463
      8  C8A        9.2650   12.3420   43.9010 C.1   600  H4B600      0.1270
      9  N5        10.8620   14.0040   44.3440 N.2   600  H4B600     -0.2460
     10  N8         9.3180   11.9060   45.1870 N.2   600  H4B600     -0.2054
     11  C6        11.3760   13.1500   45.4250 C.3   600  H4B600      0.1627
     12  C7        10.1960   12.5340   46.1850 C.3   600  H4B600      0.1643
     13  C9        12.3100   13.9460   46.3500 C.3   600  H4B600      0.2063
     14  O9        11.6820   15.1960   46.6780 O.3   600  H4B600     -0.2183
     15  C10       12.6730   13.1750   47.6220 C.3   600  H4B600      0.1842
     16  C11       13.5980   13.9450   48.5470 C.3   600  H4B600      0.0383
     17  O10       13.2960   11.9370   47.2850 O.3   600  H4B600     -0.2204
@<TRIPOS>BOND
     1     3     2    1
     2     4     2    2
     3     4     5    2
     4     6     5    2
     5     2     1    2
     6     5     7    1
     7     1     8    2
     8     7     8    1
     9     7     9    2
    10     8    10    2
    11     9    11    1
    12    10    12    1
    13    11    12    1
    14    11    13    1
    15    13    14    1
    16    13    15    1
    17    17    15    1
    18    15    16    1
