@<TRIPOS>MOLECULE
3n6f_XFJ_A_1.pdb
 26 28 0 0 0
SMALL
GASTEIGER

@<TRIPOS>ATOM
      1  N01        6.7160   12.5730   32.5970 N.2   800  XFJ800     -0.3924
      2  C02        5.8840   11.9100   31.7710 C.2   800  XFJ800      0.2001
      3  N02        4.5400   11.9460   32.0420 N.pl3 800  XFJ800     -0.0977
      4  C03        6.4180   11.2070   30.6620 C.3   800  XFJ800      0.1001
      5  C04        7.8030   11.2000   30.4490 C.2   800  XFJ800     -0.0332
      6  C05        8.6340   11.8940   31.3470 C.2   800  XFJ800      0.0196
      7  C06        8.0530   12.5900   32.4190 C.2   800  XFJ800      0.1100
      8  C07        8.4130   10.4560   29.2730 C.3   800  XFJ800      0.0269
      9  C08        8.8460   13.3620   33.4520 C.3   800  XFJ800      0.0637
     10  C09       10.0640   14.1050   32.9340 C.3   800  XFJ800      0.0353
     11  N11       10.6990   17.0410   35.2130 N.ar  800  XFJ800     -0.2430
     12  C12       10.1950   16.2740   34.2190 C.ar  800  XFJ800      0.0946
     13  C13       10.6340   14.9570   34.0410 C.ar  800  XFJ800     -0.0029
     14  C14       11.6070   14.4420   34.8880 C.ar  800  XFJ800     -0.0054
     15  C15       12.1120   15.2550   35.9100 C.ar  800  XFJ800     -0.0029
     16  C16       11.6370   16.5640   36.0520 C.ar  800  XFJ800      0.0946
     17  C17       13.1620   14.7080   36.8640 C.3   800  XFJ800      0.0350
     18  C18       14.5270   15.2520   36.4670 C.3   800  XFJ800      0.0595
     19  N21       15.7120   13.2400   37.3220 N.2   800  XFJ800     -0.3922
     20  C22       16.6690   12.6140   38.0260 C.2   800  XFJ800      0.2178
     21  N22       16.7350   11.2580   38.0000 N.pl3 800  XFJ800     -0.0932
     22  C23       17.5730   13.3630   38.7900 C.2   800  XFJ800      0.0427
     23  C24       17.4790   14.7490   38.7900 C.2   800  XFJ800     -0.0333
     24  C25       16.4830   15.3790   38.0440 C.3   800  XFJ800      0.0766
     25  C26       15.6010   14.5930   37.3050 C.2   800  XFJ800      0.0928
     26  C27       18.4510   15.5670   39.5940 C.3   800  XFJ800      0.0269
@<TRIPOS>BOND
     1     8     5    1
     2     5     4    1
     3     5     6    2
     4     4     2    1
     5     6     7    1
     6     2     3    1
     7     2     1    2
     8     7     1    2
     9     7     9    1
    10    10     9    1
    11    10    13    1
    12    13    12   ar
    13    13    14   ar
    14    12    11   ar
    15    14    15   ar
    16    11    16   ar
    17    15    16   ar
    18    15    17    1
    19    18    17    1
    20    18    25    1
    21    25    19    2
    22    25    24    1
    23    19    20    2
    24    21    20    1
    25    20    22    1
    26    24    23    1
    27    22    23    2
    28    23    26    1
