@<TRIPOS>MOLECULE
3n6g_H4B_A_1.pdb
 17 18 0 0 0
SMALL
GASTEIGER

@<TRIPOS>ATOM
      1  N1         8.4110   11.7750   42.9260 N.2   600  H4B600     -0.2683
      2  C2         8.3190   12.1780   41.6450 C.1   600  H4B600      0.2608
      3  N2         7.4900   11.5320   40.8060 N.pl3 600  H4B600     -0.0220
      4  N3         9.0530   13.2280   41.2040 N.2   600  H4B600     -0.2474
      5  C4         9.9200   13.8810   42.0200 C.1   600  H4B600      0.2441
      6  O4        10.5790   14.8560   41.5630 O.2   600  H4B600     -0.2063
      7  C4A       10.0210   13.4680   43.3490 C.2   600  H4B600      0.2463
      8  C8A        9.2440   12.3910   43.7750 C.1   600  H4B600      0.1270
      9  N5        10.8630   14.0550   44.2350 N.2   600  H4B600     -0.2460
     10  N8         9.3050   11.9340   45.0350 N.2   600  H4B600     -0.2054
     11  C6        11.3800   13.1830   45.2930 C.3   600  H4B600      0.1627
     12  C7        10.1830   12.5500   46.0280 C.3   600  H4B600      0.1643
     13  C9        12.2690   13.9660   46.2550 C.3   600  H4B600      0.2063
     14  O9        11.6550   15.2140   46.5800 O.3   600  H4B600     -0.2183
     15  C10       12.5020   13.2120   47.5570 C.3   600  H4B600      0.1842
     16  C11       13.4100   13.9560   48.5200 C.3   600  H4B600      0.0383
     17  O10       13.0920   11.9610   47.2460 O.3   600  H4B600     -0.2204
@<TRIPOS>BOND
     1     3     2    1
     2     4     2    2
     3     4     5    2
     4     6     5    2
     5     2     1    2
     6     5     7    1
     7     1     8    2
     8     7     8    1
     9     7     9    2
    10     8    10    2
    11     9    11    1
    12    10    12    1
    13    11    12    1
    14    11    13    1
    15    13    14    1
    16    13    15    1
    17    17    15    1
    18    15    16    1
