@<TRIPOS>MOLECULE
3n6g_HEM_A_1.pdb
 43 50 0 0 0
SMALL
GASTEIGER

@<TRIPOS>ATOM
      1  CHA        9.3780    9.2270   35.1470 C.2   500  HEM500      0.0000
      2  CHB        4.7060    9.0170   33.7860 C.2   500  HEM500      0.0000
      3  CHC        5.9900    7.4780   29.3580 C.2   500  HEM500      0.0000
      4  CHD       10.4010    6.6970   31.1950 C.2   500  HEM500      0.0000
      5  C1A        8.0150    9.4130   35.0930 C.2   500  HEM500      0.0000
      6  C2A        7.2520   10.1810   36.0330 C.2   500  HEM500      0.0000
      7  C3A        5.9530   10.1290   35.6850 C.2   500  HEM500      0.0000
      8  C4A        5.8570    9.3300   34.4870 C.2   500  HEM500      0.0000
      9  CMA        4.7830   10.8180   36.4270 C.3   500  HEM500      0.0000
     10  CAA        7.8780   10.9190   37.2270 C.3   500  HEM500      0.0000
     11  CBA        8.0320   12.3410   36.7020 C.3   500  HEM500      0.0000
     12  CGA        8.5010   13.3690   37.7100 C.2   500  HEM500      0.0000
     13  O1A        7.9680   13.3990   38.8460 O.co2 500  HEM500      0.0000
     14  O2A        9.3890   14.2040   37.3460 O.co2 500  HEM500      0.0000
     15  C1B        4.6810    8.6010   32.4650 C.ar  500  HEM500      0.0000
     16  C2B        3.4810    8.5630   31.6440 C.ar  500  HEM500      0.0000
     17  C3B        3.7890    8.1290   30.4140 C.ar  500  HEM500      0.0000
     18  C4B        5.2250    7.8790   30.4260 C.ar  500  HEM500      0.0000
     19  CMB        2.1100    8.9840   32.1920 C.3   500  HEM500      0.0000
     20  CAB        2.8020    7.9800   29.2210 C.2   500  HEM500      0.0000
     21  CBB        2.8920    7.0530   28.2390 C.2   500  HEM500      0.0000
     22  C1C        7.3290    7.1910   29.4770 C.2   500  HEM500      0.0000
     23  C2C        8.2050    6.7170   28.4220 C.2   500  HEM500      0.0000
     24  C3C        9.4250    6.4990   28.9660 C.2   500  HEM500      0.0000
     25  C4C        9.3520    6.8280   30.3540 C.2   500  HEM500      0.0000
     26  CMC        7.7800    6.5020   26.9500 C.3   500  HEM500      0.0000
     27  CAC       10.6950    5.9890   28.2820 C.2   500  HEM500      0.0000
     28  CBC       10.5840    5.3140   27.1340 C.2   500  HEM500      0.0000
     29  C1D       10.5940    7.3040   32.3910 C.ar  500  HEM500      0.0000
     30  C2D       11.8330    7.3580   33.1420 C.ar  500  HEM500      0.0000
     31  C3D       11.4860    8.1520   34.3780 C.ar  500  HEM500      0.0000
     32  C4D       10.1040    8.4950   34.2430 C.ar  500  HEM500      0.0000
     33  CMD       13.2280    6.7810   32.8250 C.3   500  HEM500      0.0000
     34  CAD       12.4420    8.5400   35.5080 C.3   500  HEM500      0.0000
     35  CBD       13.1060    9.8010   34.9770 C.3   500  HEM500      0.0000
     36  CGD       13.9910   10.4610   36.0060 C.2   500  HEM500      0.0000
     37  O1D       14.4290    9.7950   36.9950 O.co2 500  HEM500      0.0000
     38  O2D       14.2300   11.6870   35.8140 O.co2 500  HEM500      0.0000
     39  NA         7.1540    8.9070   34.1440 N.2   500  HEM500      0.0000
     40  NB         5.7350    8.1730   31.6870 N.ar  500  HEM500      0.0000
     41  NC         8.0590    7.2430   30.6460 N.2   500  HEM500      0.0000
     42  ND         9.6230    7.9700   33.0620 N.ar  500  HEM500      0.0000
     43 FE          7.5910    7.7020   32.5550 Fe    500  HEM500      0.0000
@<TRIPOS>BOND
     1    26    23    1
     2    28    27    2
     3    21    20    2
     4    27    24    1
     5    23    24    2
     6    23    22    1
     7    24    25    1
     8    20    17    1
     9     3    22    2
    10     3    18    1
    11    22    41    1
    12    25    41    2
    13    25     4    1
    14    17    18   ar
    15    17    16   ar
    16    18    40   ar
    17    41    43    1
    18     4    29    2
    19    16    19    1
    20    16    15   ar
    21    40    15   ar
    22    40    43    1
    23    29    42   ar
    24    29    30   ar
    25    15     2    1
    26    43    42    1
    27    43    39    1
    28    33    30    1
    29    42    32   ar
    30    30    31   ar
    31     2     8    2
    32    39     8    1
    33    39     5    2
    34    32    31   ar
    35    32     1    2
    36    31    34    1
    37     8     7    1
    38    35    34    1
    39    35    36    1
    40     5     1    1
    41     5     6    1
    42     7     6    2
    43     7     9    1
    44    38    36   ar
    45    36    37   ar
    46     6    10    1
    47    11    10    1
    48    11    12    1
    49    14    12   ar
    50    12    13   ar
