@<TRIPOS>MOLECULE
3n6g_XFK_A_1.pdb
 26 28 0 0 0
SMALL
GASTEIGER

@<TRIPOS>ATOM
      1  N01        6.8660   12.5410   32.5890 N.2   800  XFK800     -0.3924
      2  C02        6.0340   11.9550   31.7090 C.2   800  XFK800      0.2001
      3  N02        4.6890   12.0520   31.9360 N.pl3 800  XFK800     -0.0977
      4  C03        6.5570   11.2740   30.5790 C.3   800  XFK800      0.1001
      5  C04        7.9620   11.1900   30.3980 C.2   800  XFK800     -0.0332
      6  C05        8.7880   11.7920   31.3370 C.2   800  XFK800      0.0196
      7  C06        8.2280   12.4720   32.4200 C.2   800  XFK800      0.1100
      8  C07        8.5850   10.4650   29.2120 C.3   800  XFK800      0.0269
      9  C08        9.1410   13.1090   33.4560 C.3   800  XFK800      0.0637
     10  C09        9.9610   14.2380   32.8750 C.3   800  XFK800      0.0353
     11  N11       10.7260   17.1040   35.1350 N.ar  800  XFK800     -0.2430
     12  C12       10.1960   16.3530   34.1550 C.ar  800  XFK800      0.0946
     13  C13       10.5930   15.0320   33.9870 C.ar  800  XFK800     -0.0029
     14  C14       11.5550   14.4810   34.8320 C.ar  800  XFK800     -0.0054
     15  C15       12.0810   15.2940   35.8430 C.ar  800  XFK800     -0.0030
     16  C16       11.6510   16.6140   35.9690 C.ar  800  XFK800      0.0946
     17  C17       13.1170   14.7740   36.8090 C.3   800  XFK800      0.0323
     18  C18       14.4790   15.1020   36.2250 C.3   800  XFK800      0.0273
     19  C21       15.6770   13.1120   37.1580 C.2   800  XFK800      0.0427
     20  C22       16.6480   12.5430   37.9660 C.2   800  XFK800      0.2178
     21  N22       16.7610   11.1890   37.9730 N.pl3 800  XFK800     -0.0932
     22  N23       17.4440   13.3530   38.7310 N.2   800  XFK800     -0.3922
     23  C24       17.2990   14.7150   38.7040 C.2   800  XFK800      0.0929
     24  C25       16.3360   15.3120   37.8920 C.3   800  XFK800      0.0766
     25  C26       15.5230   14.4940   37.1150 C.2   800  XFK800     -0.0333
     26  C27       18.1680   15.6210   39.5340 C.3   800  XFK800      0.0619
@<TRIPOS>BOND
     1     8     5    1
     2     5     4    1
     3     5     6    2
     4     4     2    1
     5     6     7    1
     6     2     3    1
     7     2     1    2
     8     7     1    2
     9     7     9    1
    10    10     9    1
    11    10    13    1
    12    13    12   ar
    13    13    14   ar
    14    12    11   ar
    15    14    15   ar
    16    11    16   ar
    17    15    16   ar
    18    15    17    1
    19    18    17    1
    20    18    25    1
    21    25    19    2
    22    25    24    1
    23    19    20    1
    24    24    23    1
    25    20    21    1
    26    20    22    2
    27    23    22    2
    28    23    26    1
