@<TRIPOS>MOLECULE
3n6i_XD1_A_1.pdb
 14 14 0 0 0
SMALL
GASTEIGER

@<TRIPOS>ATOM
      1  C        -11.7120  -11.2750    5.3610 C.3     1  XD11        0.2033
      2  N        -10.4210  -11.9300    3.4220 N.3     1  XD11       -0.1277
      3  O        -12.5310  -10.7990    4.2310 O.3     1  XD11       -0.2187
      4  CA       -10.4640  -11.6880    4.9060 C.3     1  XD11        0.1507
      5  CB        -9.5450  -10.4740    5.3120 C.3     1  XD11        0.1405
      6  CAA       -7.8170   -7.5320    4.7300 C.3     1  XD11        0.0129
      7  CAB       -8.0640   -8.2550    2.2830 C.3     1  XD11        0.0129
      8  OAE      -10.5720   -6.8450    5.2760 O.co2   1  XD11       -0.2441
      9  OAF      -10.6940   -6.3030    3.2830 O.co2   1  XD11       -0.2441
     10  NAH      -10.3070   -9.2320    5.1390 N.3     1  XD11       -0.1964
     11  SAI       -8.0420  -10.2470    4.3240 S.3     1  XD11       -0.1219
     12  CAJ      -10.4570   -7.0490    4.1720 C.2     1  XD11        0.3811
     13  CAM       -9.9660   -8.4740    3.9270 C.3     1  XD11        0.1857
     14  CAN       -8.4430   -8.5270    3.7540 C.3     1  XD11        0.0658
@<TRIPOS>BOND
     1     7    14    1
     2     9    12   ar
     3     2     4    1
     4    14    13    1
     5    14    11    1
     6    14     6    1
     7    13    12    1
     8    13    10    1
     9    12     8   ar
    10     3     1    1
    11    11     5    1
    12     4     5    1
    13     4     1    1
    14    10     5    1
