@<TRIPOS>MOLECULE
3n6k_BFH_F_1.pdb
 20 22 0 0 0
SMALL
GASTEIGER

@<TRIPOS>ATOM
      1  O1         7.4620   74.2460   26.9990 O.co2   1  BFH1       -0.2435
      2  C2         6.1290   74.0720   26.9450 C.2     1  BFH1        0.3875
      3  O3         5.5450   74.1650   25.8800 O.co2   1  BFH1       -0.2435
      4  C4         5.3830   73.7670   28.2290 C.3     1  BFH1        0.2212
      5  N5         3.9150   73.9320   28.0460 N.ar    1  BFH1       -0.3119
      6  C6         3.0470   72.8560   27.8750 C.ar    1  BFH1        0.1411
      7  C7         1.7740   73.3090   27.7790 C.ar    1  BFH1        0.0254
      8  C8         1.8080   74.7090   27.8550 C.ar    1  BFH1        0.0175
      9  C9         0.7320   75.6480   27.7860 C.ar    1  BFH1        0.0015
     10  C10        0.9780   76.9870   27.8670 C.ar    1  BFH1        0.0001
     11  C11        2.3140   77.4810   28.0130 C.ar    1  BFH1        0.0014
     12  C12        2.5360   78.8790   28.0950 C.ar    1  BFH1        0.0000
     13  C13        3.8210   79.3670   28.2330 C.ar    1  BFH1        0.0000
     14  C14        4.9410   78.5080   28.3010 C.ar    1  BFH1        0.0000
     15  C15        4.7570   77.1310   28.2270 C.ar    1  BFH1        0.0014
     16  C16        3.4480   76.5530   28.0880 C.ar    1  BFH1        0.0158
     17  C17        3.1720   75.1190   28.0090 C.ar    1  BFH1        0.0605
     18  C18        3.3540   71.4200   27.7880 C.2     1  BFH1        0.4033
     19  O19        3.0110   70.7650   26.6520 O.co2   1  BFH1       -0.2389
     20  O20        3.9000   70.8370   28.7110 O.co2   1  BFH1       -0.2389
@<TRIPOS>BOND
     1     3     2   ar
     2    19    18   ar
     3     2     1   ar
     4     2     4    1
     5     7     8   ar
     6     7     6   ar
     7     9     8   ar
     8     9    10   ar
     9    18     6    1
    10    18    20   ar
    11     8    17   ar
    12    10    11   ar
    13     6     5   ar
    14    17     5   ar
    15    17    16   ar
    16    11    16   ar
    17    11    12   ar
    18     5     4    1
    19    16    15   ar
    20    12    13   ar
    21    15    14   ar
    22    13    14   ar
