@<TRIPOS>MOLECULE
3n6m_GTP_A_1.pdb
 32 34 0 0 0
SMALL
GASTEIGER

@<TRIPOS>ATOM
      1  PG       -34.2180   15.8310   11.0020 P.3   464  GTP464      0.5373
      2  O1G      -35.5440   15.1770   10.7230 O.3   464  GTP464     -0.1143
      3  O2G      -33.1530   14.7650   11.1440 O.3   464  GTP464     -0.1143
      4  O3G      -33.8920   16.7620    9.8440 O.2   464  GTP464     -0.2221
      5  O3B      -34.2960   16.5900   12.4370 O.3   464  GTP464     -0.2258
      6  PB       -34.7370   18.1160   12.7440 P.3   464  GTP464      0.2277
      7  O1B      -33.5730   19.0570   12.4840 O.2   464  GTP464     -0.5168
      8  O2B      -35.2290   18.1870   14.1790 O.3   464  GTP464     -0.4368
      9  O3A      -35.9250   18.3840   11.6640 O.3   464  GTP464     -0.2700
     10  PA       -36.7790   19.7450   11.4460 P.3   464  GTP464      0.2189
     11  O1A      -36.2410   20.5050   10.2360 O.2   464  GTP464     -0.5170
     12  O2A      -38.2440   19.3820   11.2920 O.3   464  GTP464     -0.4371
     13  O5'      -36.5410   20.6130   12.8020 O.3   464  GTP464     -0.3112
     14  C5'      -37.3410   20.5350   13.9630 C.3   464  GTP464      0.1813
     15  C4'      -36.5240   21.2650   15.0120 C.3   464  GTP464      0.1799
     16  O4'      -36.4030   22.6310   14.6450 O.3   464  GTP464     -0.3326
     17  C3'      -37.1380   21.2450   16.4140 C.3   464  GTP464      0.2158
     18  O3'      -36.7410   20.1160   17.1700 O.3   464  GTP464     -0.2175
     19  C2'      -36.7010   22.5910   17.0020 C.3   464  GTP464      0.2310
     20  O2'      -35.5890   22.4850   17.8610 O.3   464  GTP464     -0.2158
     21  C1'      -36.3090   23.4540   15.8090 C.3   464  GTP464      0.2293
     22  N9       -37.2210   24.5900   15.5490 N.pl3 464  GTP464     -0.2354
     23  C8       -36.8400   25.9010   15.3200 C.3   464  GTP464      0.2246
     24  N7       -37.9550   26.6310   15.0620 N.2   464  GTP464     -0.2322
     25  C5       -39.0350   25.8110   15.1020 C.2   464  GTP464      0.2182
     26  C6       -40.3980   26.0380   14.9080 C.1   464  GTP464      0.2372
     27  O6       -40.8070   27.1740   14.6490 O.2   464  GTP464     -0.2069
     28  N1       -41.2950   24.9790   15.0180 N.2   464  GTP464     -0.2485
     29  C2       -40.8500   23.7010   15.3080 C.1   464  GTP464      0.2531
     30  N2       -41.7300   22.7080   15.4100 N.pl3 464  GTP464     -0.0226
     31  N3       -39.4920   23.4790   15.5070 N.2   464  GTP464     -0.3074
     32  C4       -38.5990   24.5160   15.4090 C.2   464  GTP464      0.2300
@<TRIPOS>BOND
     1     4     1    2
     2    11    10    2
     3     2     1    1
     4     1     3    1
     5     1     5    1
     6    12    10    1
     7    10     9    1
     8    10    13    1
     9     9     6    1
    10     5     6    1
    11     7     6    2
    12     6     8    1
    13    13    14    1
    14    14    15    1
    15    16    15    1
    16    16    21    1
    17    27    26    2
    18    26    28    2
    19    26    25    1
    20    15    17    1
    21    28    29    2
    22    24    25    2
    23    24    23    1
    24    25    32    1
    25    29    30    1
    26    29    31    2
    27    23    22    1
    28    32    31    2
    29    32    22    1
    30    22    21    1
    31    21    19    1
    32    17    19    1
    33    17    18    1
    34    19    20    1
