@<TRIPOS>MOLECULE
3n6n_BUP_A_1.pdb
 30 31 0 0 0
SMALL
GASTEIGER

@<TRIPOS>ATOM
      1 BR          0.5640  -48.3040    7.1170 Br    464  BUP464     -0.0340
      2  C1         1.7400  -47.2590    7.1260 C.2   464  BUP464      0.1452
      3  N1         4.2470  -46.7220    7.4670 N.2   464  BUP464     -0.2447
      4  O1         3.4080  -49.0430    7.7590 O.2   464  BUP464     -0.2080
      5  P1        -1.3600  -41.5030   10.0960 P.3   464  BUP464      0.2189
      6  C2         1.4660  -45.8150    6.8040 C.2   464  BUP464      0.0989
      7  N2         2.5630  -44.8350    6.8060 N.am  464  BUP464     -0.1762
      8  O2         5.0310  -44.3630    7.1570 O.2   464  BUP464     -0.1918
      9  P2        -1.2300  -38.6910    9.3140 P.3   464  BUP464      0.2277
     10  C3         3.9760  -45.2860    7.1460 C.1   464  BUP464      0.2845
     11  O3         1.4310  -42.8390    7.5110 O.3   464  BUP464     -0.3320
     12  P3        -3.0430  -37.5790   11.2860 P.3   464  BUP464      0.5373
     13  C4         3.1470  -47.7010    7.4590 C.1   464  BUP464      0.2238
     14  O4         2.4760  -42.3840    4.3260 O.3   464  BUP464     -0.2157
     15  C5         0.3180  -42.5820    5.3950 C.3   464  BUP464      0.2158
     16  O5         0.0340  -41.5310    4.4980 O.3   464  BUP464     -0.2175
     17  C6         1.6630  -43.2120    5.1250 C.3   464  BUP464      0.2319
     18  O6        -0.7530  -42.4970    8.9140 O.3   464  BUP464     -0.3112
     19  C7         2.3110  -43.4220    6.5000 C.3   464  BUP464      0.2401
     20  O7        -0.5880  -40.0320   10.0510 O.3   464  BUP464     -0.2700
     21  C8         0.3990  -42.0550    6.8310 C.3   464  BUP464      0.1799
     22  O8        -1.0970  -42.1960   11.5750 O.3   464  BUP464     -0.4371
     23  C9        -0.9550  -42.2220    7.5450 C.3   464  BUP464      0.1813
     24  O9        -2.8000  -41.3350    9.9010 O.2   464  BUP464     -0.5170
     25  O10       -2.7650  -38.3960    9.8680 O.3   464  BUP464     -0.2258
     26  O11       -1.2630  -38.9090    7.6730 O.2   464  BUP464     -0.5168
     27  O12       -0.3750  -37.5390    9.6100 O.3   464  BUP464     -0.4368
     28  O13       -3.7320  -36.1170   10.9400 O.2   464  BUP464     -0.2221
     29  O14       -1.6250  -37.3420   12.1020 O.3   464  BUP464     -0.1143
     30  O15       -3.9580  -38.3540   12.1260 O.3   464  BUP464     -0.1143
@<TRIPOS>BOND
     1    14    17    1
     2    16    15    1
     3    17    15    1
     4    17    19    1
     5    15    21    1
     6    19     7    1
     7    19    11    1
     8     6     7    1
     9     6     2    2
    10     7    10   am
    11    21    11    1
    12    21    23    1
    13     1     2    1
    14     2    13    1
    15    10     8    2
    16    10     3    2
    17    13     3    2
    18    13     4    2
    19    23    18    1
    20    26     9    2
    21    18     5    1
    22     9    27    1
    23     9    25    1
    24     9    20    1
    25    25    12    1
    26    24     5    2
    27    20     5    1
    28     5    22    1
    29    28    12    2
    30    12    29    1
    31    12    30    1
