@<TRIPOS>MOLECULE
3n6r_BTI_A_1.pdb
 15 16 0 0 0
SMALL
GASTEIGER

@<TRIPOS>ATOM
      1  C11     -138.4760    7.2860  115.5460 C.2   801  BTI801      0.2074
      2  O11     -138.9200    6.2130  115.1100 O.2   801  BTI801     -0.2883
      3  C10     -137.0240    7.6580  115.3370 C.3   801  BTI801      0.0722
      4  C9      -136.8690    8.9630  114.6430 C.3   801  BTI801      0.0082
      5  C8      -136.7180    8.7450  113.1610 C.3   801  BTI801      0.0014
      6  C7      -136.1780   10.0190  112.5150 C.3   801  BTI801      0.0129
      7  C2      -137.1580   10.5600  111.4730 C.3   801  BTI801      0.0729
      8  S1      -137.0060    9.6200  109.9130 S.3   801  BTI801     -0.1369
      9  C6      -137.2240   11.0160  108.7560 C.3   801  BTI801      0.0848
     10  C5      -137.1500   12.2830  109.6160 C.3   801  BTI801      0.1509
     11  N3      -135.9880   13.0710  109.1780 N.2   801  BTI801     -0.1859
     12  C3      -134.9550   12.7660  109.9600 C.1   801  BTI801      0.2386
     13  O3      -133.6570   13.0080  109.6330 O.2   801  BTI801     -0.2023
     14  N2      -135.3300   12.1970  111.1050 N.2   801  BTI801     -0.1860
     15  C4      -136.7860   11.9910  111.0750 C.3   801  BTI801      0.1500
@<TRIPOS>BOND
     1     9    10    1
     2     9     8    1
     3    11    10    1
     4    11    12    2
     5    10    15    1
     6    13    12    2
     7     8     7    1
     8    12    14    2
     9    15    14    1
    10    15     7    1
    11     7     6    1
    12     6     5    1
    13     5     4    1
    14     4     3    1
    15     2     1    2
    16     3     1    1
