@<TRIPOS>MOLECULE
3n6u_TSU_A_1.pdb
 11 11 0 0 0
SMALL
GASTEIGER

@<TRIPOS>ATOM
      1  S        -14.6620  -12.9040   17.8900 S.3   1003  TSU1003     0.0421
      2  O1       -15.9950  -12.2020   18.0190 O.3   1003  TSU1003    -0.0650
      3  O2       -14.8150  -14.3940   17.6190 O.3   1003  TSU1003    -0.0650
      4  O3       -13.9570  -12.0550   16.8860 O.3   1003  TSU1003    -0.0650
      5  C1       -13.8030  -12.8770   19.2400 C.ar  1003  TSU1003     0.1123
      6  C2       -14.3040  -13.4610   20.4200 C.ar  1003  TSU1003     0.0186
      7  C3       -13.5460  -13.4180   21.5890 C.ar  1003  TSU1003    -0.0029
      8  C4       -12.3000  -12.7990   21.5180 C.ar  1003  TSU1003    -0.0218
      9  C5       -11.7860  -12.2520   20.3450 C.ar  1003  TSU1003    -0.0029
     10  C6       -12.5410  -12.2870   19.1930 C.ar  1003  TSU1003     0.0186
     11  C7       -11.4260  -12.7260   22.7230 C.3   1003  TSU1003     0.0310
@<TRIPOS>BOND
     1     4     1    1
     2     3     1    1
     3     1     2    1
     4     1     5    1
     5    10     5   ar
     6    10     9   ar
     7     5     6   ar
     8     9     8   ar
     9     6     7   ar
    10     8     7   ar
    11     8    11    1
