@<TRIPOS>MOLECULE
3n71_SFG_A_1.pdb
 27 29 0 0 0
SMALL
GASTEIGER

@<TRIPOS>ATOM
      1  N         45.3420   63.7340   31.7750 N.3   491  SFG491     -0.1208
      2  CA        44.4630   64.2840   30.7070 C.3   491  SFG491      0.1944
      3  C         42.9160   64.3010   30.9580 C.2   491  SFG491      0.3819
      4  O         42.1090   64.4880   30.0210 O.co2 491  SFG491     -0.2441
      5  OXT       42.4660   64.1310   32.0980 O.co2 491  SFG491     -0.2441
      6  CB        44.8650   63.5050   29.4150 C.3   491  SFG491      0.0321
      7  CG        45.8850   64.2250   28.5030 C.3   491  SFG491      0.0212
      8  CD        45.5350   65.6830   28.0300 C.3   491  SFG491      0.0944
      9  NE        45.4570   65.6860   26.5390 N.3   491  SFG491     -0.1328
     10  C5'       46.5580   66.7920   28.3270 C.3   491  SFG491      0.0514
     11  C4'       46.9380   67.1590   29.7920 C.3   491  SFG491      0.1537
     12  O4'       47.2560   66.0570   30.6740 O.3   491  SFG491     -0.3161
     13  C3'       48.1630   68.0420   29.8840 C.3   491  SFG491      0.2159
     14  O3'       47.8910   69.3750   29.5040 O.3   491  SFG491     -0.2175
     15  C2'       48.5900   67.9070   31.3290 C.3   491  SFG491      0.2569
     16  O2'       47.8620   68.8320   32.1550 O.3   491  SFG491     -0.2130
     17  C1'       48.2640   66.4580   31.6330 C.3   491  SFG491      0.3185
     18  N9        49.4360   65.5510   31.5250 N.pl3 491  SFG491     -0.1439
     19  C8        49.8510   64.8500   30.3950 C.3   491  SFG491      0.3377
     20  N7        50.9200   64.1530   30.6160 N.2   491  SFG491     -0.2095
     21  C5        51.2350   64.3720   31.9650 C.2   491  SFG491      0.2526
     22  C6        52.3060   63.9430   32.8370 C.2   491  SFG491      0.4393
     23  N6        53.2980   63.0680   32.4980 N.pl3 491  SFG491      0.2180
     24  N1        52.3260   64.3760   34.1550 N.2   491  SFG491      0.0021
     25  C2        51.3560   65.2420   34.5460 C.3   491  SFG491      0.5254
     26  N3        50.3190   65.7220   33.8200 N.2   491  SFG491     -0.0055
     27  C4        50.3430   65.2770   32.5220 C.2   491  SFG491      0.3518
@<TRIPOS>BOND
     1     9     8    1
     2     8    10    1
     3     8     7    1
     4    10    11    1
     5     7     6    1
     6     6     2    1
     7    14    13    1
     8    11    13    1
     9    11    12    1
    10    13    15    1
    11     4     3   ar
    12    19    20    1
    13    19    18    1
    14    20    21    2
    15    12    17    1
    16     2     3    1
    17     2     1    1
    18     3     5   ar
    19    15    17    1
    20    15    16    1
    21    18    17    1
    22    18    27    1
    23    21    27    1
    24    21    22    1
    25    23    22    1
    26    27    26    2
    27    22    24    2
    28    26    25    1
    29    24    25    1
