@<TRIPOS>MOLECULE
3n75_G4P_A_1.pdb
 36 38 0 0 0
SMALL
GASTEIGER

@<TRIPOS>ATOM
      1  PB        54.0650   18.9350  112.8620 P.3   716  G4P716      0.5373
      2  O1B       53.1350   18.7240  111.7040 O.2   716  G4P716     -0.2221
      3  O2B       53.4300   18.7050  114.2030 O.3   716  G4P716     -0.1143
      4  O3B       55.4570   18.3350  112.7450 O.3   716  G4P716     -0.1143
      5  O3A       54.3750   20.5170  112.7530 O.3   716  G4P716     -0.2261
      6  PA        53.2950   21.7130  112.5700 P.3   716  G4P716      0.2231
      7  O1A       51.9700   21.3780  113.2060 O.3   716  G4P716     -0.4370
      8  O2A       54.0110   22.9860  112.9280 O.2   716  G4P716     -0.5169
      9  O5'       53.0550   21.7660  110.9980 O.3   716  G4P716     -0.3111
     10  C5'       54.0920   22.1840  110.1080 C.3   716  G4P716      0.1812
     11  C4'       53.4810   22.0570  108.7270 C.3   716  G4P716      0.1771
     12  O4'       52.5150   23.0930  108.5400 O.3   716  G4P716     -0.3327
     13  C3'       54.4850   22.1710  107.6020 C.3   716  G4P716      0.1857
     14  O3'       54.8260   20.8520  107.1650 O.3   716  G4P716     -0.3109
     15  C2'       53.7100   22.8700  106.5100 C.3   716  G4P716      0.2282
     16  O2'       53.0230   21.8550  105.7470 O.3   716  G4P716     -0.2159
     17  C1'       52.6010   23.6310  107.2240 C.3   716  G4P716      0.2292
     18  N9        52.7070   25.1070  107.3510 N.pl3 716  G4P716     -0.2354
     19  C8        51.7040   25.9320  107.0070 C.3   716  G4P716      0.2246
     20  N7        52.0590   27.2040  107.2570 N.2   716  G4P716     -0.2322
     21  C5        53.2920   27.1740  107.7770 C.2   716  G4P716      0.2182
     22  C6        54.1410   28.1670  108.2230 C.1   716  G4P716      0.2372
     23  O6        53.7890   29.3610  108.1810 O.2   716  G4P716     -0.2069
     24  N1        55.3490   27.8400  108.7160 N.2   716  G4P716     -0.2485
     25  C2        55.7320   26.5460  108.7790 C.1   716  G4P716      0.2531
     26  N2        56.9560   26.2410  109.2780 N.pl3 716  G4P716     -0.0226
     27  N3        54.9210   25.5530  108.3560 N.2   716  G4P716     -0.3074
     28  C4        53.6990   25.8470  107.8480 C.2   716  G4P716      0.2300
     29  PC        56.3290   20.5250  106.6680 P.3   716  G4P716      0.2231
     30  O1C       57.0000   21.8200  106.2610 O.2   716  G4P716     -0.5169
     31  O2C       56.9920   19.7010  107.7540 O.3   716  G4P716     -0.4370
     32  O3C       56.1670   19.5570  105.3750 O.3   716  G4P716     -0.2261
     33  PD        54.8080   19.0770  104.6380 P.3   716  G4P716      0.5373
     34  O1D       54.2020   20.3430  104.0900 O.3   716  G4P716     -0.1143
     35  O2D       53.9770   18.3480  105.6720 O.3   716  G4P716     -0.1143
     36  O3D       55.3530   18.1450  103.5810 O.2   716  G4P716     -0.2221
@<TRIPOS>BOND
     1    36    33    2
     2    34    33    1
     3    33    32    1
     4    33    35    1
     5    32    29    1
     6    16    15    1
     7    30    29    2
     8    15    17    1
     9    15    13    1
    10    29    14    1
    11    29    31    1
    12    19    20    1
    13    19    18    1
    14    14    13    1
    15    17    18    1
    16    17    12    1
    17    20    21    2
    18    18    28    1
    19    13    11    1
    20    21    28    1
    21    21    22    1
    22    28    27    2
    23    23    22    2
    24    22    24    2
    25    27    25    2
    26    12    11    1
    27    24    25    2
    28    11    10    1
    29    25    26    1
    30    10     9    1
    31     9     6    1
    32     2     1    2
    33     6     5    1
    34     6     8    2
    35     6     7    1
    36     4     1    1
    37     5     1    1
    38     1     3    1
