@<TRIPOS>MOLECULE
3n76_CA2_A_1.pdb
 22 23 0 0 0
SMALL
GASTEIGER

@<TRIPOS>ATOM
      1  O2       -37.9190  -62.9070  -52.3590 O.co2 147  CA2147     -0.2429
      2  C7       -37.7280  -61.6870  -52.0010 C.2   147  CA2147      0.3920
      3  O1       -36.5970  -61.1070  -51.9230 O.co2 147  CA2147     -0.2429
      4  C1       -38.9520  -60.8160  -51.6350 C.3   147  CA2147      0.2251
      5  O3       -39.0280  -59.6360  -52.5020 O.3   147  CA2147     -0.2137
      6  C2       -38.7560  -60.5220  -50.2680 C.3   147  CA2147      0.0659
      7  C3       -39.8330  -60.2740  -49.3930 C.2   147  CA2147     -0.0131
      8  C4       -41.3310  -60.4960  -49.7650 C.3   147  CA2147      0.2004
      9  O4       -42.2780  -59.4930  -49.2220 O.3   147  CA2147     -0.2159
     10  C5       -41.4610  -60.6470  -51.2940 C.3   147  CA2147      0.1890
     11  O5       -42.6860  -61.2920  -51.6420 O.3   147  CA2147     -0.2200
     12  C6       -40.3040  -61.5270  -51.7910 C.3   147  CA2147      0.0778
     13  C8       -39.3610  -60.1370  -48.1010 C.2   147  CA2147     -0.0282
     14  C9       -40.0460  -59.9340  -46.9290 C.3   147  CA2147      0.0728
     15  C10      -39.1050  -59.7310  -45.9320 C.3   147  CA2147      0.2100
     16  O11      -39.1710  -60.5770  -44.8650 O.3   147  CA2147     -0.4751
     17  C12      -38.0430  -61.0090  -44.2490 C.ar  147  CA2147      0.1386
     18  C17      -36.8250  -61.1310  -44.8980 C.ar  147  CA2147      0.0369
     19  C16      -35.6890  -61.6260  -44.2260 C.ar  147  CA2147      0.0031
     20  C15      -35.8210  -62.0260  -42.9010 C.ar  147  CA2147      0.0002
     21  C14      -37.0690  -61.9100  -42.2420 C.ar  147  CA2147      0.0031
     22  C13      -38.1800  -61.4060  -42.9150 C.ar  147  CA2147      0.0369
@<TRIPOS>BOND
     1     5     4    1
     2     1     2   ar
     3     2     3   ar
     4     2     4    1
     5    12     4    1
     6    12    10    1
     7    11    10    1
     8     4     6    1
     9    10     8    1
    10     6     7    1
    11     8     7    1
    12     8     9    1
    13     7    13    2
    14    13    14    1
    15    14    15    1
    16    15    16    1
    17    18    17   ar
    18    18    19   ar
    19    16    17    1
    20    17    22   ar
    21    19    20   ar
    22    22    21   ar
    23    20    21   ar
