@<TRIPOS>MOLECULE
3n7a_FA1_A_1.pdb
 12 12 0 0 0
SMALL
GASTEIGER

@<TRIPOS>ATOM
      1  C2        44.1930    7.4980   26.9400 C.3   147  FA1147      0.0785
      2  C3        43.1350    7.7950   25.8900 C.3   147  FA1147      0.1894
      3  O3        42.6860    9.1730   26.0020 O.3   147  FA1147     -0.2199
      4  C4        43.7180    7.5280   24.5000 C.3   147  FA1147      0.2040
      5  O4        42.6520    7.6230   23.5870 O.3   147  FA1147     -0.2156
      6  C5        44.3450    6.1470   24.4450 C.2   147  FA1147      0.0068
      7  C6        44.7570    5.4970   25.6020 C.2   147  FA1147      0.0092
      8  C         45.9970    5.7860   27.5490 C.3   147  FA1147      0.4566
      9  O1        46.4530    6.8120   28.4250 O.2   147  FA1147     -0.2638
     10  O30       43.6030    5.1380   27.5580 O.3   147  FA1147     -0.2129
     11  O2        46.1060    4.4790   28.0570 O.2   147  FA1147     -0.2638
     12  C1        44.6090    6.0040   26.9170 C.3   147  FA1147      0.2315
@<TRIPOS>BOND
     1     5     4    1
     2     6     4    1
     3     6     7    2
     4     4     2    1
     5     7    12    1
     6     2     3    1
     7     2     1    1
     8    12     1    1
     9    12     8    1
    10    12    10    1
    11     8    11    1
    12     8     9    1
