@<TRIPOS>MOLECULE
3n7h_DE3_A_1.pdb
 14 14 0 0 0
SMALL
GASTEIGER

@<TRIPOS>ATOM
      1  CAA       13.7050    4.1300   14.6610 C.ar  129  DE3129      0.0533
      2  CAB       12.8460    3.0480   14.4360 C.ar  129  DE3129      0.0003
      3  CAC       15.0550    3.8920   14.9340 C.ar  129  DE3129      0.0045
      4  CAD       13.3410    1.7470   14.4470 C.ar  129  DE3129     -0.0217
      5  CAE       14.6900    1.5140   14.6970 C.ar  129  DE3129     -0.0043
      6  CAF       15.5510    2.5870   14.9370 C.ar  129  DE3129     -0.0002
      7  CAG       12.4140    0.5620   14.1720 C.3   129  DE3129      0.0310
      8  CAH       13.1370    5.5550   14.6580 C.2   129  DE3129      0.2490
      9  CAI       12.1740    8.0630   12.8880 C.3   129  DE3129      0.0233
     10  CAJ       15.0260    6.3000   13.2120 C.3   129  DE3129      0.0938
     11  CAK       13.2470    7.9070   13.9640 C.3   129  DE3129      0.0938
     12  CAL       16.1320    7.1520   13.7660 C.3   129  DE3129      0.0233
     13  NAM       13.7580    6.5210   13.9260 N.am  129  DE3129     -0.2761
     14  OAN       12.1130    5.7820   15.2990 O.2   129  DE3129     -0.2699
@<TRIPOS>BOND
     1     9    11    1
     2    10    12    1
     3    10    13    1
     4    13    11    1
     5    13     8   am
     6     7     4    1
     7     2     4   ar
     8     2     1   ar
     9     4     5   ar
    10     8     1    1
    11     8    14    2
    12     1     3   ar
    13     5     6   ar
    14     3     6   ar
