@<TRIPOS>MOLECULE
3n7o_N7O_A_1.pdb
 28 30 0 0 0
SMALL
GASTEIGER

@<TRIPOS>ATOM
      1  C10       -9.1710  -45.2550  -55.3240 C.2     1  N7O1        0.0180
      2  C13       -5.4160  -45.1750  -54.7110 C.ar    1  N7O1        0.0320
      3  C20      -14.9290  -46.8920  -57.3610 C.ar    1  N7O1        0.0321
      4  C22      -16.3170  -47.6280  -55.4240 C.ar    1  N7O1        0.0292
      5  C24      -17.3220  -47.6490  -53.2360 C.ar    1  N7O1        0.0119
      6  C28      -15.6110  -46.4310  -55.1790 C.ar    1  N7O1        0.0043
      7  C01      -15.3660  -43.4430  -58.5240 C.3     1  N7O1        0.1005
      8  P02      -14.6630  -43.2090  -56.9060 P.3     1  N7O1        0.2665
      9  O03      -15.6900  -42.7460  -55.9340 O.3     1  N7O1       -0.1670
     10  O04      -13.5540  -42.1140  -57.1180 O.2     1  N7O1       -0.2861
     11  C05      -13.9020  -44.7680  -56.3070 C.3     1  N7O1        0.1809
     12  C06      -12.4850  -44.9430  -56.9670 C.2     1  N7O1        0.2587
     13  O07      -12.3190  -45.2640  -58.1180 O.2     1  N7O1       -0.2721
     14  N08      -11.4550  -45.0920  -55.9930 N.am    1  N7O1       -0.1772
     15  C09      -10.0790  -45.2930  -56.3110 C.2     1  N7O1        0.0886
     16  C11       -7.7090  -45.2020  -55.5410 C.ar    1  N7O1        0.0037
     17  C12       -6.7840  -45.2150  -54.4840 C.ar    1  N7O1        0.0025
     18  C14       -4.9690  -45.1470  -56.0280 C.ar    1  N7O1        0.1674
     19  F15       -3.6660  -45.1120  -56.2790 F       1  N7O1       -0.2018
     20  C16       -5.8670  -45.1290  -57.0910 C.ar    1  N7O1        0.1674
     21  F17       -5.3870  -45.0840  -58.3430 F       1  N7O1       -0.2018
     22  C18       -7.2370  -45.1660  -56.8600 C.ar    1  N7O1        0.0320
     23  C19      -14.7910  -46.0040  -56.3470 C.ar    1  N7O1        0.0025
     24  S21      -15.9770  -48.2050  -57.0100 S.2     1  N7O1       -0.0867
     25  C23      -17.1500  -48.2370  -54.4800 C.ar    1  N7O1        0.0073
     26  C25      -16.6180  -46.4620  -53.0080 C.ar    1  N7O1        0.0577
     27 CL26      -16.7660  -45.7410  -51.4420 Cl      1  N7O1       -0.0822
     28  C27      -15.7980  -45.8520  -53.9260 C.ar    1  N7O1        0.0116
@<TRIPOS>BOND
     1     7     8    1
     2    21    20    1
     3    13    12    2
     4     3    24   ar
     5     3    23   ar
     6    10     8    2
     7    20    22   ar
     8    20    18   ar
     9    24     4   ar
    10    12    11    1
    11    12    14   am
    12     8    11    1
    13     8     9    1
    14    22    16   ar
    15    23    11    1
    16    23     6   ar
    17    15    14    1
    18    15     1    2
    19    19    18    1
    20    18     2   ar
    21    16     1    1
    22    16    17   ar
    23     4     6   ar
    24     4    25   ar
    25     6    28   ar
    26     2    17   ar
    27    25     5   ar
    28    28    26   ar
    29     5    26   ar
    30    26    27    1
