@<TRIPOS>MOLECULE
3n7u_NAD_A_1.pdb
 44 48 0 0 0
SMALL
GASTEIGER

@<TRIPOS>ATOM
      1  PA        68.9620   -9.5020   54.4470 P.3   401  NAD401      0.2189
      2  O1A       70.1070   -9.4050   53.4790 O.2   401  NAD401     -0.5170
      3  O2A       69.0930  -10.6360   55.4110 O.3   401  NAD401     -0.4371
      4  O5B       67.6150   -9.5850   53.5700 O.3   401  NAD401     -0.3112
      5  C5B       67.4810   -8.7990   52.3670 C.3   401  NAD401      0.1813
      6  C4B       66.4960   -9.5550   51.4420 C.3   401  NAD401      0.1821
      7  O4B       66.2250   -8.7530   50.2760 O.3   401  NAD401     -0.3135
      8  C3B       67.0740  -10.8800   50.9460 C.3   401  NAD401      0.2184
      9  O3B       66.2390  -11.9800   51.4210 O.3   401  NAD401     -0.2174
     10  C2B       67.1200  -10.6870   49.3980 C.3   401  NAD401      0.2570
     11  O2B       66.8070  -11.8880   48.7180 O.3   401  NAD401     -0.2130
     12  C1B       66.0630   -9.6200   49.1340 C.3   401  NAD401      0.3186
     13  N9A       66.2270   -8.8210   47.9080 N.pl3 401  NAD401     -0.1439
     14  C8A       67.3320   -8.0980   47.5140 C.3   401  NAD401      0.3377
     15  N7A       67.0580   -7.4860   46.3740 N.2   401  NAD401     -0.2095
     16  C5A       65.7580   -7.7850   46.0270 C.2   401  NAD401      0.2526
     17  C6A       64.9320   -7.4690   44.9450 C.2   401  NAD401      0.4393
     18  N6A       65.3990   -6.6360   43.9480 N.pl3 401  NAD401      0.2180
     19  N1A       63.6680   -7.9290   44.9290 N.2   401  NAD401      0.0021
     20  C2A       63.2050   -8.7290   45.8990 C.3   401  NAD401      0.5254
     21  N3A       63.9660   -9.0870   46.9150 N.2   401  NAD401     -0.0055
     22  C4A       65.2310   -8.6360   46.9960 C.2   401  NAD401      0.3518
     23  O3        68.8500   -8.0560   55.1960 O.3   401  NAD401     -0.2703
     24  PN        68.2270   -7.7230   56.6610 P.3   401  NAD401      0.2189
     25  O1N       69.1350   -8.1430   57.8310 O.3   401  NAD401     -0.4371
     26  O2N       66.7530   -8.2240   56.6230 O.2   401  NAD401     -0.5170
     27  O5D       68.1350   -6.1500   56.4590 O.3   401  NAD401     -0.3112
     28  C5D       67.5080   -5.6050   55.2970 C.3   401  NAD401      0.1813
     29  C4D       67.8240   -4.1150   55.1810 C.3   401  NAD401      0.1799
     30  O4D       67.1560   -3.3290   56.2110 O.3   401  NAD401     -0.3327
     31  C3D       69.3160   -3.7330   55.2750 C.3   401  NAD401      0.2158
     32  O3D       69.9680   -3.8440   53.9990 O.3   401  NAD401     -0.2175
     33  C2D       69.2690   -2.2530   55.7260 C.3   401  NAD401      0.2309
     34  O2D       69.2860   -1.4180   54.5540 O.3   401  NAD401     -0.2158
     35  C1D       67.8840   -2.1090   56.4550 C.3   401  NAD401      0.2263
     36  N1N       68.1360   -1.9660   57.9110 N.pl3 401  NAD401     -0.2787
     37  C2N       67.6390   -0.8950   58.5660 C.3   401  NAD401      0.1244
     38  C3N       67.9170   -0.7240   59.9630 C.2   401  NAD401      0.0544
     39  C7N       67.4140    0.4560   60.7400 C.2   401  NAD401      0.2818
     40  O7N       68.0170    0.8430   61.7540 O.2   401  NAD401     -0.2670
     41  N7N       66.3290    1.1580   60.3350 N.am  401  NAD401     -0.0839
     42  C4N       68.7290   -1.6840   60.5900 C.2   401  NAD401      0.0033
     43  C5N       69.1990   -2.7970   59.9010 C.2   401  NAD401      0.0157
     44  C6N       68.8900   -2.9060   58.5400 C.2   401  NAD401      0.0633
@<TRIPOS>BOND
     1    18    17    1
     2    19    17    2
     3    19    20    1
     4    17    16    1
     5    20    21    1
     6    16    15    2
     7    16    22    1
     8    15    14    1
     9    21    22    2
    10    22    13    1
    11    14    13    1
    12    13    12    1
    13    11    10    1
    14    12    10    1
    15    12     7    1
    16    10     8    1
    17     7     6    1
    18     8     9    1
    19     8     6    1
    20     6     5    1
    21     5     4    1
    22     2     1    2
    23     4     1    1
    24    32    31    1
    25     1    23    1
    26     1     3    1
    27    34    33    1
    28    29    31    1
    29    29    28    1
    30    29    30    1
    31    23    24    1
    32    31    33    1
    33    28    27    1
    34    33    35    1
    35    30    35    1
    36    35    36    1
    37    27    24    1
    38    26    24    2
    39    24    25    1
    40    36    44    1
    41    36    37    1
    42    44    43    2
    43    37    38    1
    44    43    42    1
    45    38    42    2
    46    38    39    1
    47    41    39   am
    48    39    40    2
