@<TRIPOS>MOLECULE
3n7w_AXL_A_1.pdb
 25 26 0 0 0
SMALL
GASTEIGER

@<TRIPOS>ATOM
      1  C1       -11.8560  -11.4980    5.1460 C.3     1  AXL1        0.2017
      2  O1       -12.4970  -10.8590    4.2480 O.3     1  AXL1       -0.2188
      3  C2       -10.4910  -11.8710    4.7820 C.3     1  AXL1        0.1343
      4  C3        -9.5500  -10.7130    5.1920 C.3     1  AXL1        0.1390
      5  S4        -7.9970  -10.3860    4.2120 S.3     1  AXL1       -0.1219
      6  C5        -8.4470   -8.6690    3.7230 C.3     1  AXL1        0.0658
      7  C51       -7.9040   -7.5710    4.6310 C.3     1  AXL1        0.0129
      8  C52       -7.9310   -8.4940    2.3290 C.3     1  AXL1        0.0129
      9  C6        -9.9460   -8.6770    3.8990 C.3     1  AXL1        0.1857
     10  C61      -10.4220   -7.2940    4.1710 C.2     1  AXL1        0.3811
     11  O62      -10.7850   -7.1140    5.2420 O.co2   1  AXL1       -0.2441
     12  O63      -10.5090   -6.5050    3.2720 O.co2   1  AXL1       -0.2441
     13  N7       -10.3080   -9.4620    5.1070 N.3     1  AXL1       -0.1965
     14  N8       -10.4360  -12.1560    3.3260 N.3     1  AXL1       -0.1841
     15  C9        -9.2810  -12.8960    2.8610 C.3     1  AXL1        0.2474
     16  O91       -8.8280  -13.8270    3.7720 O.3     1  AXL1       -0.2017
     17  C10       -9.6170  -13.6640    1.5960 C.3     1  AXL1        0.1612
     18  N11       -8.7960  -14.8220    1.5300 N.3     1  AXL1       -0.1238
     19  C12       -9.3630  -12.8850    0.3750 C.ar    1  AXL1       -0.0008
     20  C13       -8.6990  -11.7180    0.4490 C.ar    1  AXL1        0.0005
     21  C14       -8.4860  -10.9580   -0.6620 C.ar    1  AXL1        0.0418
     22  C15       -8.9070  -11.3970   -1.8920 C.ar    1  AXL1        0.1957
     23  C16       -9.5190  -12.6440   -1.9660 C.ar    1  AXL1        0.0418
     24  C17       -9.7900  -13.3870   -0.8450 C.ar    1  AXL1        0.0005
     25  O18       -8.6790  -10.6750   -3.0240 O.3     1  AXL1       -0.2866
@<TRIPOS>BOND
     1    25    22    1
     2    23    22   ar
     3    23    24   ar
     4    22    21   ar
     5    24    19   ar
     6    21    20   ar
     7    19    20   ar
     8    19    17    1
     9    18    17    1
    10    17    15    1
    11     8     6    1
    12    15    14    1
    13    15    16    1
    14    12    10   ar
    15    14     3    1
    16     6     9    1
    17     6     5    1
    18     6     7    1
    19     9    10    1
    20     9    13    1
    21    10    11   ar
    22     5     4    1
    23     2     1    1
    24     3     1    1
    25     3     4    1
    26    13     4    1
