@<TRIPOS>MOLECULE
3n7y_III_D_1.pdb
 47 48 0 0 0
SMALL
GASTEIGER

@<TRIPOS>ATOM
      1  N         -7.2380   48.5060   28.6300 N.2     1  TYR1       -0.1909
      2  CA        -8.0570   48.9470   29.7680 C.3     1  TYR1        0.2233
      3  C         -7.1120   49.1740   30.9510 C.1     1  TYR1        0.1504
      4  O         -6.1490   48.4350   31.1410 O.2     1  TYR1       -0.2250
      5  CB        -9.0970   47.8790   30.1140 C.3     1  TYR1        0.0686
      6  CG       -10.2020   47.8100   29.0560 C.ar    1  TYR1       -0.0189
      7  CD1      -11.1490   48.8260   28.9720 C.ar    1  TYR1       -0.0010
      8  CD2      -10.3040   46.7010   28.2230 C.ar    1  TYR1       -0.0010
      9  CE1      -12.2030   48.7300   28.0680 C.ar    1  TYR1        0.0371
     10  CE2      -11.3590   46.6030   27.3220 C.ar    1  TYR1        0.0371
     11  CZ       -12.3140   47.6120   27.2490 C.ar    1  TYR1        0.1490
     12  OH       -13.4060   47.4380   26.4540 O.3     1  TYR1       -0.3998
     13  P        -13.4860   48.4950   25.2400 P.3     1  TYR1        0.5887
     14  O1P      -15.0280   48.4450   24.7780 O.3     1  TYR1       -0.1039
     15  O2P      -13.0650   49.8670   25.6010 O.3     1  TYR1       -0.1039
     16  O3P      -12.6200   47.8700   24.0360 O.2     1  TYR1       -0.2114
     17  N         -7.4180   50.2070   31.7290 N.2     2  VAL2       -0.1897
     18  CA        -6.5940   50.5830   32.8870 C.3     2  VAL2        0.2190
     19  C         -6.3780   49.4120   33.8470 C.1     2  VAL2        0.1501
     20  O         -5.2590   49.1870   34.3020 O.2     2  VAL2       -0.2250
     21  CB        -7.2500   51.7540   33.6180 C.3     2  VAL2        0.0393
     22  CG1       -6.4360   52.1480   34.8520 C.3     2  VAL2        0.0032
     23  CG2       -7.4090   52.9520   32.6800 C.3     2  VAL2        0.0032
     24  N         -7.4410   48.6700   34.1350 N.2     3  ASN3       -0.1891
     25  CA        -7.3370   47.5450   35.0740 C.3     3  ASN3        0.2282
     26  C         -6.8430   46.2590   34.4070 C.1     3  ASN3        0.1506
     27  O         -6.6910   45.2360   35.0690 O.2     3  ASN3       -0.2250
     28  CB        -8.6690   47.3400   35.7990 C.3     3  ASN3        0.1307
     29  CG        -9.8090   46.9820   34.8450 C.2     3  ASN3        0.2639
     30  OD1       -9.9020   47.5120   33.7390 O.2     3  ASN3       -0.2715
     31  ND2      -10.6630   46.0730   35.3060 N.am    3  ASN3       -0.0877
     32  N         -6.5880   46.3200   33.1040 N.2     4  VAL4       -0.1897
     33  CA        -6.0890   45.1430   32.3780 C.3     4  VAL4        0.2189
     34  C         -4.6390   45.3860   31.9530 C.1     4  VAL4        0.1491
     35  O         -3.7790   44.5290   32.1460 O.2     4  VAL4       -0.2251
     36  CB        -6.9620   44.8410   31.1590 C.3     4  VAL4        0.0393
     37  CG1       -6.3910   43.6660   30.3640 C.3     4  VAL4        0.0032
     38  CG2       -8.3990   44.5360   31.5870 C.3     4  VAL4        0.0032
     39  C5        -3.7350   47.0990   28.4740 C.3     5  0115        0.0021
     40  C4        -3.3920   48.5720   28.2440 C.3     5  0115        0.0012
     41  O         -6.1790   50.4900   28.4100 O.2     5  0115       -0.2270
     42  C6        -2.7930   46.4530   29.4940 C.3     5  0115        0.0272
     43  C3        -4.0820   49.1240   26.9930 C.3     5  0115        0.0176
     44  C7        -3.0540   46.9450   30.9190 C.3     5  0115        0.1376
     45  C2        -5.5560   48.7220   26.9050 C.3     5  0115        0.1217
     46  N         -4.3980   46.5570   31.3710 N.2     5  0115       -0.2047
     47  C1        -6.3530   49.3220   28.0650 C.1     5  0115        0.1270
@<TRIPOS>BOND
     1    16    13    2
     2    14    13    1
     3    13    15    1
     4    13    12    1
     5    12    11    1
     6    45    43    1
     7    45    47    1
     8    43    40    1
     9    11    10   ar
    10    11     9   ar
    11    10     8   ar
    12    47    41    2
    13    47     1    2
    14     9     7   ar
    15     8     6   ar
    16    40    39    1
    17    39    42    1
    18     1     2    1
    19     7     6   ar
    20     6     5    1
    21    42    44    1
    22     2     5    1
    23     2     3    1
    24    37    36    1
    25    44    46    1
    26     3     4    2
    27     3    17    2
    28    36    38    1
    29    36    33    1
    30    46    34    2
    31    17    18    1
    32    34    35    2
    33    34    33    1
    34    33    32    1
    35    23    21    1
    36    18    21    1
    37    18    19    1
    38    32    26    2
    39    21    22    1
    40    30    29    2
    41    19    24    2
    42    19    20    2
    43    24    25    1
    44    26    27    2
    45    26    25    1
    46    29    31   am
    47    29    28    1
    48    25    28    1
