@<TRIPOS>MOLECULE
3n82_NAD_A_1.pdb
 44 48 0 0 0
SMALL
GASTEIGER

@<TRIPOS>ATOM
      1  PA        75.2420   66.2330   57.3930 P.3   501  NAD501      0.2189
      2  O1A       74.2270   65.2160   57.0410 O.3   501  NAD501     -0.4371
      3  O2A       75.3380   67.3300   56.3170 O.2   501  NAD501     -0.5170
      4  O5B       76.7070   65.5730   57.5290 O.3   501  NAD501     -0.3112
      5  C5B       76.9680   64.3260   58.1430 C.3   501  NAD501      0.1813
      6  C4B       78.2470   63.7120   57.5690 C.3   501  NAD501      0.1821
      7  O4B       78.1460   63.6280   56.1610 O.3   501  NAD501     -0.3135
      8  C3B       79.4950   64.5430   57.8440 C.3   501  NAD501      0.2184
      9  O3B       80.6080   63.6860   57.9990 O.3   501  NAD501     -0.2174
     10  C2B       79.6320   65.3860   56.5840 C.3   501  NAD501      0.2570
     11  O2B       80.9450   65.8050   56.3120 O.3   501  NAD501     -0.2130
     12  C1B       79.1210   64.4280   55.5170 C.3   501  NAD501      0.3186
     13  N9A       78.6000   65.1380   54.3300 N.pl3 501  NAD501     -0.1439
     14  C8A       78.0890   66.4110   54.2610 C.3   501  NAD501      0.3377
     15  N7A       77.7440   66.6730   52.9810 N.2   501  NAD501     -0.2095
     16  C5A       78.0250   65.5860   52.2250 C.2   501  NAD501      0.2526
     17  C6A       77.8770   65.3110   50.8680 C.2   501  NAD501      0.4393
     18  N6A       77.3710   66.2190   50.0350 N.pl3 501  NAD501      0.2180
     19  N1A       78.2620   64.0760   50.3840 N.2   501  NAD501      0.0021
     20  C2A       78.7930   63.1220   51.2280 C.3   501  NAD501      0.5254
     21  N3A       78.9470   63.4040   52.5700 N.2   501  NAD501     -0.0055
     22  C4A       78.5670   64.6120   53.0610 C.2   501  NAD501      0.3518
     23  O3        74.8770   66.8440   58.8420 O.3   501  NAD501     -0.2703
     24  PN        75.1550   68.3730   59.2900 P.3   501  NAD501      0.2189
     25  O1N       75.0530   69.2630   58.1080 O.2   501  NAD501     -0.5170
     26  O2N       76.3800   68.4270   60.1200 O.3   501  NAD501     -0.4371
     27  O5D       73.9140   68.6200   60.2900 O.3   501  NAD501     -0.3112
     28  C5D       72.7340   69.2640   59.8610 C.3   501  NAD501      0.1813
     29  C4D       71.5070   68.5020   60.3460 C.3   501  NAD501      0.1799
     30  O4D       71.5940   67.1230   60.0270 O.3   501  NAD501     -0.3327
     31  C3D       71.3280   68.5800   61.8570 C.3   501  NAD501      0.2158
     32  O3D       70.5470   69.6860   62.2500 O.3   501  NAD501     -0.2175
     33  C2D       70.6320   67.2690   62.1810 C.3   501  NAD501      0.2309
     34  O2D       69.2300   67.4340   62.1780 O.3   501  NAD501     -0.2158
     35  C1D       71.0540   66.3210   61.0630 C.3   501  NAD501      0.2263
     36  N1N       72.0260   65.3580   61.6250 N.pl3 501  NAD501     -0.2787
     37  C2N       71.5860   64.1210   62.0250 C.3   501  NAD501      0.1244
     38  C3N       72.4710   63.1920   62.5760 C.2   501  NAD501      0.0544
     39  C7N       72.0090   61.8260   63.0140 C.2   501  NAD501      0.2818
     40  O7N       72.9220   60.9050   63.5720 O.2   501  NAD501     -0.2670
     41  N7N       70.7290   61.4900   62.8720 N.am  501  NAD501     -0.0839
     42  C4N       73.8100   63.5510   62.7190 C.2   501  NAD501      0.0033
     43  C5N       74.2560   64.8090   62.3220 C.2   501  NAD501      0.0157
     44  C6N       73.3460   65.7050   61.7730 C.2   501  NAD501      0.0633
@<TRIPOS>BOND
     1    18    17    1
     2    19    17    2
     3    19    20    1
     4    17    16    1
     5    20    21    1
     6    16    15    2
     7    16    22    1
     8    21    22    2
     9    15    14    1
    10    22    13    1
    11    14    13    1
    12    13    12    1
    13    12     7    1
    14    12    10    1
    15     7     6    1
    16    11    10    1
    17     3     1    2
    18    10     8    1
    19     2     1    1
    20     1     4    1
    21     1    23    1
    22     4     5    1
    23     6     8    1
    24     6     5    1
    25     8     9    1
    26    25    24    2
    27    23    24    1
    28    24    26    1
    29    24    27    1
    30    28    27    1
    31    28    29    1
    32    30    29    1
    33    30    35    1
    34    29    31    1
    35    35    36    1
    36    35    33    1
    37    36    44    1
    38    36    37    1
    39    44    43    2
    40    31    33    1
    41    31    32    1
    42    37    38    1
    43    34    33    1
    44    43    42    1
    45    38    42    2
    46    38    39    1
    47    41    39   am
    48    39    40    2
