@<TRIPOS>MOLECULE
3n83_ADP_A_1.pdb
 27 29 0 0 0
SMALL
GASTEIGER

@<TRIPOS>ATOM
      1  PB        76.0790   68.1920   59.2260 P.3   501  ADP501      0.5373
      2  O1B       77.2430   68.5250   60.1310 O.3   501  ADP501     -0.1143
      3  O2B       76.1290   68.8770   57.8750 O.2   501  ADP501     -0.2221
      4  O3B       74.7290   68.3290   59.9030 O.3   501  ADP501     -0.1143
      5  PA        76.9170   65.8420   57.6910 P.3   501  ADP501      0.2231
      6  O1A       77.5110   66.8750   56.7630 O.2   501  ADP501     -0.5169
      7  O2A       75.8970   64.8620   57.1600 O.3   501  ADP501     -0.4370
      8  O3A       76.2380   66.5920   58.9650 O.3   501  ADP501     -0.2261
      9  O5'       78.1440   65.0270   58.3730 O.3   501  ADP501     -0.3111
     10  C5'       78.3830   63.6100   58.3650 C.3   501  ADP501      0.1813
     11  C4'       79.7250   63.2720   57.7060 C.3   501  ADP501      0.1821
     12  O4'       79.5600   63.3280   56.2820 O.3   501  ADP501     -0.3135
     13  C3'       80.8790   64.2200   58.0540 C.3   501  ADP501      0.2184
     14  O3'       82.0860   63.4830   58.3210 O.3   501  ADP501     -0.2174
     15  C2'       81.0530   65.0840   56.8100 C.3   501  ADP501      0.2570
     16  O2'       82.4070   65.4820   56.5910 O.3   501  ADP501     -0.2130
     17  C1'       80.5790   64.1560   55.6970 C.3   501  ADP501      0.3186
     18  N9        80.0600   64.8600   54.4950 N.pl3 501  ADP501     -0.1439
     19  C8        79.5600   66.1070   54.4160 C.3   501  ADP501      0.3377
     20  N7        79.1990   66.3490   53.1310 N.2   501  ADP501     -0.2095
     21  C5        79.4760   65.2410   52.4060 C.2   501  ADP501      0.2526
     22  C6        79.3300   64.8950   51.0640 C.2   501  ADP501      0.4393
     23  N6        78.8060   65.7790   50.1800 N.pl3 501  ADP501      0.2180
     24  N1        79.7150   63.6650   50.6460 N.2   501  ADP501      0.0021
     25  C2        80.2290   62.7780   51.5090 C.3   501  ADP501      0.5254
     26  N3        80.3850   63.0820   52.8070 N.2   501  ADP501     -0.0055
     27  C4        80.0140   64.3030   53.2780 C.2   501  ADP501      0.3518
@<TRIPOS>BOND
     1    23    22    1
     2    24    22    2
     3    24    25    1
     4    22    21    1
     5    25    26    1
     6    21    20    2
     7    21    27    1
     8    26    27    2
     9    20    19    1
    10    27    18    1
    11    19    18    1
    12    18    17    1
    13    17    12    1
    14    17    15    1
    15    12    11    1
    16    16    15    1
    17     6     5    2
    18    15    13    1
    19     7     5    1
    20     5     9    1
    21     5     8    1
    22    11    13    1
    23    11    10    1
    24     3     1    2
    25    13    14    1
    26    10     9    1
    27     8     1    1
    28     1     4    1
    29     1     2    1
