@<TRIPOS>MOLECULE
3n86_RJP_A_1.pdb
 23 24 0 0 0
SMALL
GASTEIGER

@<TRIPOS>ATOM
      1  OAA       28.3480   26.8320   -3.6200 O.2   147  RJP147     -0.2730
      2  OAB       31.4300   25.0960    3.0840 O.co2 147  RJP147     -0.2426
      3  OAC       29.5250   24.3920    4.0370 O.co2 147  RJP147     -0.2426
      4  OAD       27.6360   20.9350    0.7890 O.3   147  RJP147     -0.2199
      5  OAE       28.2490   22.4290   -1.7040 O.3   147  RJP147     -0.2159
      6  OAF       31.3880   22.8590    1.5820 O.3   147  RJP147     -0.2095
      7  CAG       29.5260   26.3620   -1.6360 C.3   147  RJP147      0.0916
      8  CAH       28.8800   25.0060   -1.6410 C.3   147  RJP147      0.0340
      9  CAI       29.8980   24.5330    0.6260 C.2   147  RJP147      0.0084
     10  CAJ       27.2460   31.9370   -3.7590 C.ar  147  RJP147      0.0001
     11  CAK       26.9560   30.7130   -4.3700 C.ar  147  RJP147      0.0013
     12  CAL       28.0660   32.0340   -2.6110 C.ar  147  RJP147      0.0013
     13  CAM       27.5010   29.5560   -3.7940 C.ar  147  RJP147      0.0166
     14  CAN       28.6290   30.8830   -2.0450 C.ar  147  RJP147      0.0166
     15  CAO       28.9690   22.6180    2.0450 C.3   147  RJP147      0.0817
     16  NAP       28.8810   28.5370   -2.0980 N.am  147  RJP147     -0.1792
     17  CAQ       28.8010   27.2710   -2.5560 C.2   147  RJP147      0.2459
     18  CAR       30.3500   24.4490    3.0760 C.2   147  RJP147      0.3956
     19  CAS       29.1180   24.1340   -0.4150 C.2   147  RJP147     -0.0129
     20  CAT       28.3330   29.6610   -2.6620 C.ar  147  RJP147      0.0734
     21  CAU       28.6940   21.8970    0.6970 C.3   147  RJP147      0.1894
     22  CAV       28.5910   22.8820   -0.4770 C.3   147  RJP147      0.2004
     23  CAW       30.1300   23.6300    1.8360 C.3   147  RJP147      0.2393
@<TRIPOS>BOND
     1    11    13   ar
     2    11    10   ar
     3    13    20   ar
     4    10    12   ar
     5     1    17    2
     6    20    16    1
     7    20    14   ar
     8    12    14   ar
     9    17    16   am
    10    17     7    1
    11     5    22    1
    12     8     7    1
    13     8    19    1
    14    22    19    1
    15    22    21    1
    16    19     9    2
    17     9    23    1
    18    21     4    1
    19    21    15    1
    20     6    23    1
    21    23    15    1
    22    23    18    1
    23    18     2   ar
    24    18     3   ar
