@<TRIPOS>MOLECULE
3n87_N87_A_1.pdb
 26 28 0 0 0
SMALL
GASTEIGER

@<TRIPOS>ATOM
      1  O1        45.1690    5.6260   29.5030 O.co2 147  N87147     -0.2429
      2  C2        44.9940    6.8280   29.1980 C.2   147  N87147      0.3917
      3  O3        45.7490    7.7450   29.6270 O.co2 147  N87147     -0.2429
      4  C4        43.8210    7.1210   28.2740 C.3   147  N87147      0.2218
      5  O5        42.7180    6.3250   28.7050 O.3   147  N87147     -0.2140
      6  C6        44.1210    6.6030   26.8890 C.3   147  N87147      0.0486
      7  C7        44.0040    7.3090   25.7500 C.3   147  N87147      0.0583
      8  C8        43.1870    8.5700   25.7160 C.3   147  N87147      0.1862
      9  O9        42.2280    8.4040   24.6830 O.3   147  N87147     -0.2201
     10  C10       42.4860    8.8290   27.0530 C.3   147  N87147      0.1855
     11  O11       41.9970   10.1710   27.0990 O.3   147  N87147     -0.2203
     12  C12       43.4370    8.6040   28.2270 C.3   147  N87147      0.0771
     13  C13       44.7660    6.8180   24.5490 C.ar  147  N87147     -0.0198
     14  C14       45.4370    7.7420   23.7620 C.ar  147  N87147     -0.0010
     15  C15       46.1840    7.3490   22.6520 C.ar  147  N87147      0.0386
     16  C16       46.8370    8.4490   21.8440 C.2   147  N87147      0.1955
     17  C17       48.1970    8.4240   21.2040 C.ar  147  N87147      0.0390
     18  C18       48.9760    7.2550   21.1290 C.ar  147  N87147      0.0032
     19  C19       50.2220    7.3150   20.5010 C.ar  147  N87147      0.0001
     20  C20       50.6730    8.5260   19.9490 C.ar  147  N87147      0.0000
     21  C21       49.8930    9.6860   20.0080 C.ar  147  N87147      0.0001
     22  C22       48.6550    9.6280   20.6420 C.ar  147  N87147      0.0032
     23  C23       46.2650    5.9820   22.3290 C.ar  147  N87147      0.0032
     24  C24       45.6120    5.0310   23.1300 C.ar  147  N87147     -0.0002
     25  C25       44.8610    5.4500   24.2380 C.ar  147  N87147     -0.0042
     26  O26       46.2090    9.4700   21.6660 O.2   147  N87147     -0.2866
@<TRIPOS>BOND
     1    20    21   ar
     2    20    19   ar
     3    21    22   ar
     4    19    18   ar
     5    22    17   ar
     6    18    17   ar
     7    17    16    1
     8    26    16    2
     9    16    15    1
    10    23    15   ar
    11    23    24   ar
    12    15    14   ar
    13    24    25   ar
    14    14    13   ar
    15    25    13   ar
    16    13     7    1
    17     9     8    1
    18     8     7    1
    19     8    10    1
    20     7     6    1
    21     6     4    1
    22    10    11    1
    23    10    12    1
    24    12     4    1
    25     4     5    1
    26     4     2    1
    27     2     1   ar
    28     2     3   ar
