@<TRIPOS>MOLECULE
3n8d_ANP_A_1.pdb
 31 33 0 0 0
SMALL
GASTEIGER

@<TRIPOS>ATOM
      1  PG         0.3240   -8.7160   15.9700 P.3   400  ANP400      0.4884
      2  O1G        1.4280   -9.1890   15.0450 O.2   400  ANP400     -0.2331
      3  O2G       -0.6360   -7.7210   15.3390 O.3   400  ANP400     -0.1240
      4  O3G       -0.3700   -9.8490   16.6940 O.3   400  ANP400     -0.1240
      5  PB         2.0750   -6.3780   16.7670 P.3   400  ANP400      0.4669
      6  O1B        3.3780   -6.4090   17.5380 O.3   400  ANP400     -0.1253
      7  O2B        2.1010   -6.3440   15.2460 O.2   400  ANP400     -0.2351
      8  N3B        1.1750   -7.8150   17.2130 N.3   400  ANP400     -0.0163
      9  PA         0.0040   -4.3410   16.6340 P.3   400  ANP400      0.2220
     10  O1A        0.3220   -2.8970   16.3730 O.3   400  ANP400     -0.4370
     11  O2A       -0.5890   -5.1750   15.5210 O.2   400  ANP400     -0.5170
     12  O3A        1.3270   -5.0210   17.2730 O.3   400  ANP400     -0.2360
     13  O5'       -1.0460   -4.5030   17.8460 O.3   400  ANP400     -0.3111
     14  C5'       -1.4290   -5.8010   18.3220 C.3   400  ANP400      0.1813
     15  C4'       -2.9490   -6.0200   18.4010 C.3   400  ANP400      0.1821
     16  O4'       -3.5970   -5.2620   19.4500 O.3   400  ANP400     -0.3135
     17  C3'       -3.7090   -5.6690   17.1310 C.3   400  ANP400      0.2184
     18  O3'       -3.7080   -6.7320   16.1860 O.3   400  ANP400     -0.2174
     19  C2'       -5.0900   -5.4100   17.6760 C.3   400  ANP400      0.2570
     20  O2'       -5.7500   -6.6410   17.9860 O.3   400  ANP400     -0.2130
     21  C1'       -4.8040   -4.6750   18.9590 C.3   400  ANP400      0.3186
     22  N9        -4.5820   -3.2340   18.6970 N.pl3 400  ANP400     -0.1439
     23  C8        -3.3830   -2.6320   18.5250 C.3   400  ANP400      0.3377
     24  N7        -3.5260   -1.3040   18.3260 N.2   400  ANP400     -0.2095
     25  C5        -4.8350   -1.0330   18.3620 C.2   400  ANP400      0.2526
     26  C6        -5.6620    0.1830   18.2360 C.2   400  ANP400      0.4393
     27  N6        -5.0660    1.3750   18.0100 N.pl3 400  ANP400      0.2180
     28  N1        -7.0030    0.0590   18.3410 N.2   400  ANP400      0.0021
     29  C2        -7.5730   -1.1410   18.5670 C.3   400  ANP400      0.5254
     30  N3        -6.8780   -2.2860   18.7090 N.2   400  ANP400     -0.0055
     31  C4        -5.5280   -2.3000   18.6090 C.2   400  ANP400      0.3518
@<TRIPOS>BOND
     1     2     1    2
     2     7     5    2
     3     3     1    1
     4    11     9    2
     5     1     4    1
     6     1     8    1
     7    18    17    1
     8    10     9    1
     9     9    12    1
    10     9    13    1
    11     5     8    1
    12     5    12    1
    13     5     6    1
    14    17    19    1
    15    17    15    1
    16    19    20    1
    17    19    21    1
    18    13    14    1
    19    27    26    1
    20    26    28    2
    21    26    25    1
    22    14    15    1
    23    24    25    2
    24    24    23    1
    25    28    29    1
    26    25    31    1
    27    15    16    1
    28    23    22    1
    29    29    30    1
    30    31    22    1
    31    31    30    2
    32    22    21    1
    33    21    16    1
