@<TRIPOS>MOLECULE
3n8f_HEM_A_1.pdb
 43 50 0 0 0
SMALL
GASTEIGER

@<TRIPOS>ATOM
      1  CHA       -2.9200   -1.5190   -6.0290 C.2   801  HEM801      0.0000
      2  CHB       -0.3300   -5.5990   -5.8830 C.2   801  HEM801      0.0000
      3  CHC        3.0710   -3.3330   -3.2620 C.2   801  HEM801      0.0000
      4  CHD        0.5050    0.7960   -3.3870 C.2   801  HEM801      0.0000
      5  C1A       -2.5080   -2.8030   -6.2750 C.ar  801  HEM801      0.0000
      6  C2A       -3.1720   -3.7740   -7.1320 C.ar  801  HEM801      0.0000
      7  C3A       -2.4540   -4.9110   -7.0830 C.ar  801  HEM801      0.0000
      8  C4A       -1.3130   -4.6900   -6.2070 C.ar  801  HEM801      0.0000
      9  CMA       -2.7820   -6.2280   -7.8320 C.3   801  HEM801      0.0000
     10  CAA       -4.4890   -3.5570   -7.9350 C.3   801  HEM801      0.0000
     11  CBA       -4.4710   -2.3250   -8.8390 C.3   801  HEM801      0.0000
     12  CGA       -5.8920   -1.9240   -9.1580 C.2   801  HEM801      0.0000
     13  O1A       -6.6360   -2.7640   -9.7350 O.co2 801  HEM801      0.0000
     14  O2A       -6.2820   -0.7660   -8.8400 O.co2 801  HEM801      0.0000
     15  C1B        0.8450   -5.3190   -5.2220 C.2   801  HEM801      0.0000
     16  C2B        2.0030   -6.1880   -5.1450 C.2   801  HEM801      0.0000
     17  C3B        2.9460   -5.5670   -4.4180 C.2   801  HEM801      0.0000
     18  C4B        2.4130   -4.2790   -4.0160 C.2   801  HEM801      0.0000
     19  CMB        2.0830   -7.5810   -5.8090 C.3   801  HEM801      0.0000
     20  CAB        4.3670   -6.0700   -4.0530 C.2   801  HEM801      0.0000
     21  CBB        4.8800   -7.2100   -4.5270 C.2   801  HEM801      0.0000
     22  C1C        2.6950   -2.0160   -3.0770 C.ar  801  HEM801      0.0000
     23  C2C        3.4690   -0.9850   -2.3980 C.ar  801  HEM801      0.0000
     24  C3C        2.7590    0.1590   -2.4320 C.ar  801  HEM801      0.0000
     25  C4C        1.5140   -0.1120   -3.1360 C.ar  801  HEM801      0.0000
     26  CMC        4.8610   -1.1960   -1.7530 C.3   801  HEM801      0.0000
     27  CAC        3.1470    1.5460   -1.8440 C.2   801  HEM801      0.0000
     28  CBC        4.3130    1.7810   -1.2250 C.2   801  HEM801      0.0000
     29  C1D       -0.7000    0.5330   -4.0040 C.2   801  HEM801      0.0000
     30  C2D       -1.8690    1.3900   -3.9910 C.2   801  HEM801      0.0000
     31  C3D       -2.9280    0.6650   -4.8210 C.2   801  HEM801      0.0000
     32  C4D       -2.3040   -0.5680   -5.2480 C.2   801  HEM801      0.0000
     33  CMD       -2.0690    2.7670   -3.3360 C.3   801  HEM801      0.0000
     34  CAD       -4.3650    1.1590   -5.1000 C.3   801  HEM801      0.0000
     35  CBD       -5.1920    0.7520   -3.8840 C.3   801  HEM801      0.0000
     36  CGD       -6.3350    1.7140   -3.7110 C.2   801  HEM801      0.0000
     37  O1D       -6.1650    2.7290   -2.9860 O.co2 801  HEM801      0.0000
     38  O2D       -7.4170    1.4590   -4.3000 O.co2 801  HEM801      0.0000
     39  NA        -1.3840   -3.3940   -5.7330 N.ar  801  HEM801      0.0000
     40  NB         1.1290   -4.1590   -4.5200 N.2   801  HEM801      0.0000
     41  NC         1.5110   -1.4430   -3.5160 N.ar  801  HEM801      0.0000
     42  ND        -1.0020   -0.6040   -4.7520 N.2   801  HEM801      0.0000
     43 FE          0.0380   -2.3370   -4.6820 Fe    801  HEM801      0.0000
@<TRIPOS>BOND
     1    13    12   ar
     2    12    14   ar
     3    12    11    1
     4    11    10    1
     5    10     6    1
     6     9     7    1
     7     6     7   ar
     8     6     5   ar
     9     7     8   ar
    10     5     1    2
    11     5    39   ar
    12     8     2    2
    13     8    39   ar
    14     1    32    1
    15     2    15    1
    16    19    16    1
    17    39    43    1
    18    32    31    1
    19    32    42    2
    20    15    16    1
    21    15    40    2
    22    16    17    2
    23    34    31    1
    24    34    35    1
    25    31    30    2
    26    42    43    1
    27    42    29    1
    28    43    40    1
    29    43    41    1
    30    21    20    2
    31    40    18    1
    32    17    20    1
    33    17    18    1
    34    38    36   ar
    35    18     3    2
    36    29    30    1
    37    29     4    2
    38    30    33    1
    39    35    36    1
    40    36    37   ar
    41    41    25   ar
    42    41    22   ar
    43     4    25    1
    44     3    22    1
    45    25    24   ar
    46    22    23   ar
    47    24    23   ar
    48    24    27    1
    49    23    26    1
    50    27    28    2
