@<TRIPOS>MOLECULE
3n8g_ACP_A_1.pdb
 31 33 0 0 0
SMALL
GASTEIGER

@<TRIPOS>ATOM
      1  PG       -15.6290    2.8090   15.4360 P.3   1001  ACP1001     0.1295
      2  O1G      -15.9610    4.3500   15.3200 O.3   1001  ACP1001    -0.3567
      3  O2G      -14.0450    2.7430   15.2990 O.2   1001  ACP1001    -0.4595
      4  O3G      -15.9200    2.2680   16.7650 O.3   1001  ACP1001    -0.3567
      5  PB       -16.1440    2.0850   12.5030 P.3   1001  ACP1001     0.3815
      6  O1B      -15.8880    3.5500   11.9680 O.3   1001  ACP1001    -0.1391
      7  O2B      -17.2670    1.3770   11.8610 O.2   1001  ACP1001    -0.2547
      8  C3B      -16.1420    1.8960   14.1660 C.3   1001  ACP1001     0.1768
      9  PA       -14.1420    0.0970   11.5250 P.3   1001  ACP1001     0.2209
     10  O1A      -15.0740   -0.9580   12.1930 O.3   1001  ACP1001    -0.4371
     11  O2A      -12.6810   -0.0610   11.6980 O.2   1001  ACP1001    -0.5170
     12  O3A      -14.8080    1.3670   12.1090 O.3   1001  ACP1001    -0.2483
     13  O5'      -14.7470    0.2470   10.0550 O.3   1001  ACP1001    -0.3111
     14  C5'      -14.0600    0.9780    9.0710 C.3   1001  ACP1001     0.1813
     15  C4'      -15.0520    1.6190    8.0860 C.3   1001  ACP1001     0.1821
     16  O4'      -15.5850    0.5630    7.3270 O.3   1001  ACP1001    -0.3135
     17  C3'      -16.2780    2.3240    8.7420 C.3   1001  ACP1001     0.2184
     18  O3'      -15.9510    3.6200    9.1260 O.3   1001  ACP1001    -0.2174
     19  C2'      -17.2240    2.3500    7.5110 C.3   1001  ACP1001     0.2570
     20  O2'      -16.8180    3.2540    6.5400 O.3   1001  ACP1001    -0.2130
     21  C1'      -16.8510    0.9560    6.8840 C.3   1001  ACP1001     0.3186
     22  N9       -17.7500   -0.0650    7.3360 N.pl3 1001  ACP1001    -0.1439
     23  C8       -18.1750   -0.4360    8.6350 C.3   1001  ACP1001     0.3377
     24  N7       -18.9840   -1.5030    8.6120 N.2   1001  ACP1001    -0.2095
     25  C5       -19.0910   -1.8340    7.2540 C.2   1001  ACP1001     0.2526
     26  C6       -19.8010   -2.8380    6.5810 C.2   1001  ACP1001     0.4393
     27  N6       -20.5810   -3.6810    7.2910 N.pl3 1001  ACP1001     0.2180
     28  N1       -19.7340   -2.9400    5.2080 N.2   1001  ACP1001     0.0021
     29  C2       -18.9480   -2.0200    4.5730 C.3   1001  ACP1001     0.5254
     30  N3       -18.2270   -0.9980    5.0890 N.2   1001  ACP1001    -0.0055
     31  C4       -18.3370   -0.9520    6.4510 C.2   1001  ACP1001     0.3518
@<TRIPOS>BOND
     1    29    30    1
     2    29    28    1
     3    30    31    2
     4    28    26    2
     5    31    25    1
     6    31    22    1
     7    20    19    1
     8    26    25    1
     9    26    27    1
    10    21    16    1
    11    21    22    1
    12    21    19    1
    13    25    24    2
    14    16    15    1
    15    22    23    1
    16    19    17    1
    17    15    17    1
    18    15    14    1
    19    24    23    1
    20    17    18    1
    21    14    13    1
    22    13     9    1
    23     9    11    2
    24     9    12    1
    25     9    10    1
    26     7     5    2
    27     6     5    1
    28    12     5    1
    29     5     8    1
    30     8     1    1
    31     3     1    2
    32     2     1    1
    33     1     4    1
