@<TRIPOS>MOLECULE
3n8h_AMP_A_1.pdb
 23 25 0 0 0
SMALL
GASTEIGER

@<TRIPOS>ATOM
      1  P         19.1690  -12.2570   41.1320 P.3   270  AMP270      0.5327
      2  O1P       18.1130  -13.3420   40.9440 O.3   270  AMP270     -0.1145
      3  O2P       20.2070  -12.5120   42.1820 O.3   270  AMP270     -0.1145
      4  O3P       19.7470  -11.7760   39.8510 O.2   270  AMP270     -0.2224
      5  O5'       18.3240  -11.0660   41.8380 O.3   270  AMP270     -0.2675
      6  C5'       17.0430  -10.6480   41.3650 C.3   270  AMP270      0.1860
      7  C4'       16.5880   -9.4190   42.1130 C.3   270  AMP270      0.1823
      8  O4'       16.4690   -9.7480   43.5340 O.3   270  AMP270     -0.3135
      9  C3'       17.5540   -8.2250   42.0140 C.3   270  AMP270      0.2184
     10  O3'       16.8080   -6.9960   42.0240 O.3   270  AMP270     -0.2174
     11  C2'       18.3510   -8.3530   43.3060 C.3   270  AMP270      0.2570
     12  O2'       18.9940   -7.1730   43.7610 O.3   270  AMP270     -0.2130
     13  C1'       17.2760   -8.8430   44.2730 C.3   270  AMP270      0.3186
     14  N9        17.8430   -9.4770   45.4690 N.pl3 270  AMP270     -0.1439
     15  C8        18.7740  -10.4590   45.4810 C.3   270  AMP270      0.3377
     16  N7        19.1040  -10.7860   46.7620 N.2   270  AMP270     -0.2095
     17  C5        18.3910   -9.9770   47.5860 C.2   270  AMP270      0.2526
     18  C6        18.2690   -9.8020   49.0490 C.2   270  AMP270      0.4393
     19  N6        19.0110  -10.5630   49.8700 N.pl3 270  AMP270      0.2180
     20  N1        17.4210   -8.8740   49.5280 N.2   270  AMP270      0.0021
     21  C2        16.7070   -8.1020   48.6740 C.3   270  AMP270      0.5254
     22  N3        16.7580   -8.2080   47.3290 N.2   270  AMP270     -0.0055
     23  C4        17.5680   -9.1190   46.7300 C.2   270  AMP270      0.3518
@<TRIPOS>BOND
     1     4     1    2
     2     2     1    1
     3     1     5    1
     4     1     3    1
     5     6     5    1
     6     6     7    1
     7     9    10    1
     8     9     7    1
     9     9    11    1
    10     7     8    1
    11    11    12    1
    12    11    13    1
    13     8    13    1
    14    13    14    1
    15    14    15    1
    16    14    23    1
    17    15    16    1
    18    23    22    2
    19    23    17    1
    20    16    17    2
    21    22    21    1
    22    17    18    1
    23    21    20    1
    24    18    20    2
    25    18    19    1
