@<TRIPOS>MOLECULE
3n8i_NLA_A_1.pdb
 14 15 0 0 0
SMALL
GASTEIGER

@<TRIPOS>ATOM
      1  C1        -9.2740   21.1090  -12.5890 C.ar  158  NLA158     -0.0034
      2  C2        -9.1800   21.8340  -11.2900 C.ar  158  NLA158     -0.0109
      3  C3        -7.9670   21.8110  -10.6030 C.ar  158  NLA158     -0.0037
      4  C4        -6.8560   21.1300  -11.1240 C.ar  158  NLA158     -0.0003
      5  C5        -6.8900   20.4350  -12.3370 C.ar  158  NLA158     -0.0000
      6  C6        -8.0630   20.4010  -13.0920 C.ar  158  NLA158     -0.0003
      7  C7        -8.1400   19.7200  -14.3020 C.ar  158  NLA158     -0.0000
      8  C8        -9.3380   19.7120  -15.0170 C.ar  158  NLA158     -0.0000
      9  C9       -10.4680   20.3820  -14.5500 C.ar  158  NLA158     -0.0000
     10  C10      -10.4460   21.0820  -13.3440 C.ar  158  NLA158     -0.0003
     11  C11      -10.3870   22.5520  -10.7130 C.3   158  NLA158      0.1404
     12  C12      -11.2570   21.5280   -9.9980 C.2   158  NLA158      0.3692
     13  O1       -10.7250   20.7620   -9.1670 O.co2 158  NLA158     -0.2453
     14  O2       -12.4820   21.4680  -10.2550 O.co2 158  NLA158     -0.2453
@<TRIPOS>BOND
     1     8     9   ar
     2     8     7   ar
     3     9    10   ar
     4     7     6   ar
     5    10     1   ar
     6     6     1   ar
     7     6     5   ar
     8     1     2   ar
     9     5     4   ar
    10     2    11    1
    11     2     3   ar
    12     4     3   ar
    13    11    12    1
    14    14    12   ar
    15    12    13   ar
