@<TRIPOS>MOLECULE
3n8k_D1X_A_1.pdb
 11 11 0 0 0
SMALL
GASTEIGER

@<TRIPOS>ATOM
      1  OAA      -41.3890    9.4860  -11.4250 O.co2 147  D1X147     -0.2408
      2  OAB      -37.2970    9.3080   -7.3120 O.2   147  D1X147     -0.2131
      3  OAC      -40.1540    7.6700  -11.1940 O.co2 147  D1X147     -0.2408
      4  OAD      -37.8710   13.0240  -10.0860 O.2   147  D1X147     -0.2086
      5  CAE      -39.0730   11.0060  -10.5050 C.2   147  D1X147      0.1107
      6  CAF      -38.7530    9.0970   -9.0500 C.3   147  D1X147      0.1692
      7  NAG      -37.5390   11.1520   -8.6340 N.2   147  D1X147     -0.2614
      8  CAH      -40.3810    8.8830  -10.9930 C.2   147  D1X147      0.3857
      9  CAI      -38.1600   11.7400   -9.7490 C.1   147  D1X147      0.2153
     10  CAJ      -39.3700    9.6850  -10.1580 C.2   147  D1X147      0.0879
     11  CAK      -37.8410    9.8260   -8.2860 C.1   147  D1X147      0.1959
@<TRIPOS>BOND
     1     1     8   ar
     2     3     8   ar
     3     8    10    1
     4     5    10    2
     5     5     9    1
     6    10     6    1
     7     4     9    2
     8     9     7    2
     9     6    11    1
    10     7    11    2
    11    11     2    2
