@<TRIPOS>MOLECULE
3n8l_AIX_A_1.pdb
 24 25 0 0 0
SMALL
GASTEIGER

@<TRIPOS>ATOM
      1  C8        -8.3320  -10.4820   -1.2020 C.ar    1  AIX1       -0.0003
      2  C5        -8.6840  -12.1090    0.5450 C.ar    1  AIX1        0.0038
      3  C6        -8.4430   -8.5270    3.7110 C.3     1  AIX1        0.0658
      4  N1       -10.3960  -12.0830    3.2440 N.am    1  AIX1       -0.1953
      5  C2       -10.5480   -7.1620    4.1800 C.2     1  AIX1        0.3811
      6  N3       -10.2770   -9.3400    5.1350 N.3     1  AIX1       -0.1957
      7  C4        -9.5700  -13.1580    1.2580 C.3     1  AIX1        0.1915
      8  C1        -8.0970   -8.3140    2.2270 C.3     1  AIX1        0.0129
      9  C3        -9.5250  -12.9610    2.7780 C.2     1  AIX1        0.2635
     10  C7        -9.1500  -11.4070   -0.5570 C.ar    1  AIX1       -0.0024
     11  C9        -7.0400  -10.2360   -0.7520 C.ar    1  AIX1       -0.0000
     12  C10       -6.5560  -10.9340    0.3410 C.ar    1  AIX1       -0.0003
     13  C11       -7.3770  -11.8680    0.9840 C.ar    1  AIX1       -0.0024
     14  C12       -9.9690   -8.5350    3.9300 C.3     1  AIX1        0.1857
     15  C13       -9.5220  -10.6120    5.1420 C.3     1  AIX1        0.1479
     16  C14      -10.4470  -11.7680    4.6710 C.3     1  AIX1        0.1856
     17  C15      -11.8440  -11.2890    4.9810 C.2     1  AIX1        0.2311
     18  C16       -7.7170   -7.4860    4.5790 C.3     1  AIX1        0.0129
     19  N2        -9.0900  -14.5150    0.9240 N.3     1  AIX1       -0.1182
     20  O1       -10.7660   -6.8530    5.3550 O.co2   1  AIX1       -0.2441
     21  O2       -10.8770   -6.4780    3.1900 O.co2   1  AIX1       -0.2441
     22  O3        -8.7330  -13.5710    3.5020 O.2     1  AIX1       -0.2714
     23  O4       -12.6220  -10.7990    4.1660 O.2     1  AIX1       -0.2863
     24  S1        -7.9820  -10.2400    4.2250 S.3     1  AIX1       -0.1212
@<TRIPOS>BOND
     1     1    11   ar
     2     1    10   ar
     3    11    12   ar
     4    10     2   ar
     5    12    13   ar
     6     2    13   ar
     7     2     7    1
     8    19     7    1
     9     7     9    1
    10     8     3    1
    11     9     4   am
    12     9    22    2
    13    21     5   ar
    14     4    16    1
    15     3    14    1
    16     3    24    1
    17     3    18    1
    18    14     5    1
    19    14     6    1
    20    23    17    2
    21     5    20   ar
    22    24    15    1
    23    16    17    1
    24    16    15    1
    25     6    15    1
