@<TRIPOS>MOLECULE
3n8n_N88_A_1.pdb
 19 19 0 0 0
SMALL
GASTEIGER

@<TRIPOS>ATOM
      1  C         -1.4720   33.7410   81.5030 C.2   147  N88147      0.3917
      2  C1        -1.3220   34.8570   80.4840 C.3   147  N88147      0.2219
      3  O1        -1.3670   34.0210   82.7230 O.co2 147  N88147     -0.2429
      4  C2        -0.9230   34.2300   79.1320 C.3   147  N88147      0.0771
      5  O2        -1.6910   32.5740   81.0880 O.co2 147  N88147     -0.2429
      6  C3        -1.2010   35.1400   77.9280 C.3   147  N88147      0.1856
      7  O3        -0.9830   34.4380   76.6930 O.3   147  N88147     -0.2203
      8  C4        -2.6170   35.7420   77.9260 C.3   147  N88147      0.1908
      9  O4        -2.5530   37.1230   77.5500 O.3   147  N88147     -0.2199
     10  C5        -3.3400   35.6550   79.2560 C.3   147  N88147      0.1141
     11  C6        -2.6140   35.6520   80.3940 C.3   147  N88147      0.0535
     12  C13       -4.6920   35.5800   79.2850 C.2   147  N88147      0.2435
     13  N14       -5.3310   35.5000   80.4710 N.am  147  N88147     -0.2088
     14  C15       -6.6520   36.0300   80.8270 C.3   147  N88147      0.0788
     15  C16       -7.6630   34.8770   80.8210 C.3   147  N88147      0.0217
     16  C17       -7.1360   37.1330   79.8850 C.3   147  N88147      0.0217
     17  C18       -6.5480   36.6070   82.2350 C.3   147  N88147      0.0217
     18  O19       -5.3170   35.5580   78.2230 O.2   147  N88147     -0.2733
     19  O30       -0.3080   35.7780   80.9040 O.3   147  N88147     -0.2140
@<TRIPOS>BOND
     1     7     6    1
     2     9     8    1
     3     8     6    1
     4     8    10    1
     5     6     4    1
     6    18    12    2
     7     4     2    1
     8    10    12    1
     9    10    11    1
    10    12    13   am
    11    16    14    1
    12    11     2    1
    13    13    14    1
    14     2    19    1
    15     2     1    1
    16    15    14    1
    17    14    17    1
    18     5     1   ar
    19     1     3   ar
