@<TRIPOS>MOLECULE
3n8r_CB9_A_1.pdb
 23 24 0 0 0
SMALL
GASTEIGER

@<TRIPOS>ATOM
      1  C        -11.7630  -11.2520    5.0890 C.2   308  CB9308      0.2311
      2  N        -10.3430  -12.0790    3.3650 N.am  308  CB9308     -0.1965
      3  O        -12.5510  -10.8170    4.2630 O.2   308  CB9308     -0.2863
      4  CA       -10.3770  -11.7470    4.7890 C.3   308  CB9308      0.1855
      5  CB        -9.4400  -10.5930    5.2510 C.3   308  CB9308      0.1479
      6  CAA       -8.0830   -8.3580    2.2480 C.3   308  CB9308      0.0129
      7  CAB       -7.6160   -7.5320    4.5640 C.3   308  CB9308      0.0129
      8  OAD      -10.7210   -6.4270    3.1640 O.co2 308  CB9308     -0.2441
      9  OAF       -8.6200  -13.5360    3.6350 O.2   308  CB9308     -0.2730
     10  OAG      -10.5930   -6.7420    5.3460 O.co2 308  CB9308     -0.2441
     11  CAJ       -6.8170  -10.6310   -0.8360 C.ar  308  CB9308     -0.0000
     12  CAK       -6.3260  -11.3970    0.2080 C.ar  308  CB9308     -0.0003
     13  CAL       -8.1700  -10.7020   -1.1470 C.ar  308  CB9308     -0.0003
     14  CAM       -7.1940  -12.2240    0.9380 C.ar  308  CB9308     -0.0038
     15  CAN       -9.0310  -11.5150   -0.4120 C.ar  308  CB9308     -0.0038
     16  NAP      -10.2040   -9.3070    5.1730 N.3   308  CB9308     -0.1957
     17  SAQ       -7.9330  -10.3160    4.2570 S.3   308  CB9308     -0.1212
     18  CAR      -10.4700   -7.1260    4.1720 C.2   308  CB9308      0.3811
     19  CAT       -9.4300  -12.9340    2.9200 C.2   308  CB9308      0.2462
     20  CAU       -8.5580  -12.2780    0.6400 C.ar  308  CB9308     -0.0130
     21  CAX       -9.9090   -8.5460    3.9510 C.3   308  CB9308      0.1857
     22  CAY       -9.5130  -13.1910    1.4310 C.3   308  CB9308      0.1131
     23  CAZ       -8.3720   -8.5930    3.7340 C.3   308  CB9308      0.0658
@<TRIPOS>BOND
     1    13    11   ar
     2    13    15   ar
     3    11    12   ar
     4    15    20   ar
     5    12    14   ar
     6    20    14   ar
     7    20    22    1
     8    22    19    1
     9     6    23    1
    10    19     2   am
    11    19     9    2
    12     8    18   ar
    13     2     4    1
    14    23    21    1
    15    23    17    1
    16    23     7    1
    17    21    18    1
    18    21    16    1
    19    18    10   ar
    20    17     5    1
    21     3     1    2
    22     4     1    1
    23     4     5    1
    24    16     5    1
