@<TRIPOS>MOLECULE
3n8s_XD2_A_1.pdb
 31 33 0 0 0
SMALL
GASTEIGER

@<TRIPOS>ATOM
      1  CAA       -5.4990   -4.2520    0.9080 C.3   308  XD2308      0.1578
      2  OAB      -11.2090   -7.0400    5.2650 O.co2 308  XD2308     -0.2380
      3  OAC       -9.0090  -13.6840    3.6640 O.2   308  XD2308     -0.2702
      4  OAD      -12.5210  -10.6810    4.4420 O.3   308  XD2308     -0.2180
      5  OAE      -10.4330   -6.2820    3.6170 O.co2 308  XD2308     -0.2380
      6  OAF       -9.9160  -14.6440    1.2390 O.3   308  XD2308     -0.2083
      7  CAG       -7.4560  -11.1050   -1.2150 C.ar  308  XD2308     -0.0000
      8  CAH       -8.7980  -10.9390   -1.1960 C.ar  308  XD2308     -0.0002
      9  CAI       -6.9260  -12.0020   -0.3300 C.ar  308  XD2308     -0.0002
     10  CAJ       -9.6350  -11.6200   -0.3060 C.ar  308  XD2308     -0.0013
     11  CAK       -7.7580  -12.7020    0.5390 C.ar  308  XD2308     -0.0013
     12  CAL      -11.7040  -11.1010    5.4700 C.3   308  XD2308      0.2113
     13  CAM       -8.7140   -7.2920    2.2730 C.3   308  XD2308      0.0733
     14  CAN       -8.0660   -9.7310    2.9070 C.3   308  XD2308      0.0725
     15  NAO       -5.8850   -4.4660    4.3470 N.ar  308  XD2308     -0.0221
     16  NAP       -6.4030   -5.5550    4.1300 N.ar  308  XD2308     -0.1015
     17  NAQ       -5.5210   -3.8820    3.3460 N.ar  308  XD2308     -0.0425
     18  NAR      -10.4830  -11.9770    3.5010 N.am  308  XD2308     -0.1942
     19  NAS      -10.0040   -9.3250    5.0600 N.2   308  XD2308     -0.3959
     20  SAT       -6.9850   -7.0240    1.7710 S.3   308  XD2308     -0.0738
     21  SAU       -7.7540  -10.6980    4.4070 S.3   308  XD2308     -0.0846
     22  CAV      -10.4970   -7.1150    4.3870 C.2   308  XD2308      0.4127
     23  CAW       -9.7330  -12.9590    2.9990 C.2   308  XD2308      0.2766
     24  CAX       -8.8780   -8.4590    3.1940 C.3   308  XD2308      0.0815
     25  CAY       -9.7960   -8.3800    4.2090 C.2   308  XD2308      0.1897
     26  CAZ       -9.1120  -12.5120    0.5690 C.ar  308  XD2308      0.0166
     27  CBA       -6.3640   -5.6640    2.8170 C.ar  308  XD2308      0.2107
     28  CBB       -9.9920  -13.2800    1.5120 C.3   308  XD2308      0.2513
     29  CBC      -10.4280  -11.6190    4.9140 C.3   308  XD2308      0.1859
     30  CBD       -9.3740  -10.5970    5.1420 C.2   308  XD2308      0.1566
     31  NBE       -5.7620   -4.5710    2.3790 N.ar  308  XD2308     -0.2064
@<TRIPOS>BOND
     1     7     8   ar
     2     7     9   ar
     3     8    10   ar
     4     9    11   ar
     5    10    26   ar
     6    11    26   ar
     7    26    28    1
     8     1    31    1
     9     6    28    1
    10    28    23    1
    11    20    13    1
    12    20    27    1
    13    13    24    1
    14    31    27   ar
    15    31    17   ar
    16    27    16   ar
    17    14    24    1
    18    14    21    1
    19    23    18   am
    20    23     3    2
    21    24    25    1
    22    17    15   ar
    23    18    29    1
    24     5    22   ar
    25    16    15   ar
    26    25    22    1
    27    25    19    2
    28    22     2   ar
    29    21    30    1
    30     4    12    1
    31    29    30    1
    32    29    12    1
    33    19    30    2
