@<TRIPOS>MOLECULE
3n8v_HEM_A_1.pdb
 43 50 0 0 0
SMALL
GASTEIGER

@<TRIPOS>ATOM
      1  CHA       32.5740  -66.9340   28.4200 C.2   801  HEM801      0.0000
      2  CHB       31.3060  -69.8380   32.0900 C.2   801  HEM801      0.0000
      3  CHC       27.1180  -67.4320   32.5900 C.2   801  HEM801      0.0000
      4  CHD       28.5710  -64.2250   29.2500 C.2   801  HEM801      0.0000
      5  C1A       32.6070  -67.9470   29.3570 C.2   801  HEM801      0.0000
      6  C2A       33.6620  -68.9350   29.5170 C.2   801  HEM801      0.0000
      7  C3A       33.3130  -69.7390   30.5370 C.2   801  HEM801      0.0000
      8  C4A       32.0290  -69.2900   31.0500 C.2   801  HEM801      0.0000
      9  CMA       34.1160  -70.9410   31.0890 C.3   801  HEM801      0.0000
     10  CAA       34.9530  -69.0130   28.6530 C.3   801  HEM801      0.0000
     11  CBA       34.8410  -70.1060   27.5870 C.3   801  HEM801      0.0000
     12  CGA       35.0440  -69.5500   26.1950 C.2   801  HEM801      0.0000
     13  O1A       34.0400  -69.1230   25.5660 O.co2 801  HEM801      0.0000
     14  O2A       36.2070  -69.5400   25.7050 O.co2 801  HEM801      0.0000
     15  C1B       29.9840  -69.5610   32.3780 C.ar  801  HEM801      0.0000
     16  C2B       28.9970  -70.4890   32.8970 C.ar  801  HEM801      0.0000
     17  C3B       27.8410  -69.8270   33.0390 C.ar  801  HEM801      0.0000
     18  C4B       28.0500  -68.4540   32.6110 C.ar  801  HEM801      0.0000
     19  CMB       29.2490  -71.9780   33.2280 C.3   801  HEM801      0.0000
     20  CAB       26.5100  -70.4180   33.5600 C.2   801  HEM801      0.0000
     21  CBB       26.3400  -70.6840   34.8580 C.2   801  HEM801      0.0000
     22  C1C       27.0980  -66.3950   31.6780 C.2   801  HEM801      0.0000
     23  C2C       25.9650  -65.5590   31.3110 C.2   801  HEM801      0.0000
     24  C3C       26.3760  -64.6810   30.3880 C.2   801  HEM801      0.0000
     25  C4C       27.7800  -64.9240   30.1340 C.2   801  HEM801      0.0000
     26  CMC       24.5310  -65.6580   31.8800 C.3   801  HEM801      0.0000
     27  CAC       25.5140  -63.5930   29.7060 C.2   801  HEM801      0.0000
     28  CBC       25.8060  -62.2980   29.8680 C.2   801  HEM801      0.0000
     29  C1D       29.7450  -64.6580   28.6730 C.ar  801  HEM801      0.0000
     30  C2D       30.4090  -64.0320   27.5490 C.ar  801  HEM801      0.0000
     31  C3D       31.6620  -64.8830   27.2910 C.ar  801  HEM801      0.0000
     32  C4D       31.6270  -65.9360   28.2860 C.ar  801  HEM801      0.0000
     33  CMD       29.9560  -62.7740   26.7720 C.3   801  HEM801      0.0000
     34  CAD       32.7340  -64.6580   26.2010 C.3   801  HEM801      0.0000
     35  CBD       32.4050  -65.5240   24.9900 C.3   801  HEM801      0.0000
     36  CGD       33.6050  -65.6260   24.0850 C.2   801  HEM801      0.0000
     37  O1D       33.9980  -66.7710   23.7390 O.co2 801  HEM801      0.0000
     38  O2D       34.1660  -64.5640   23.7040 O.co2 801  HEM801      0.0000
     39  NA        31.6340  -68.1960   30.3100 N.2   801  HEM801      0.0000
     40  NB        29.3680  -68.3330   32.2130 N.ar  801  HEM801      0.0000
     41  NC        28.1890  -65.9720   30.9420 N.2   801  HEM801      0.0000
     42  ND        30.4870  -65.7670   29.0730 N.ar  801  HEM801      0.0000
     43 FE         29.8980  -67.0720   30.6580 Fe    801  HEM801      0.0000
@<TRIPOS>BOND
     1    38    36   ar
     2    37    36   ar
     3    36    35    1
     4    35    34    1
     5    13    12   ar
     6    14    12   ar
     7    12    11    1
     8    34    31    1
     9    33    30    1
    10    31    30   ar
    11    31    32   ar
    12    30    29   ar
    13    11    10    1
    14    32     1    2
    15    32    42   ar
    16     1     5    1
    17    10     6    1
    18    29    42   ar
    19    29     4    2
    20    42    43    1
    21     4    25    1
    22     5     6    1
    23     5    39    2
    24     6     7    2
    25    27    28    2
    26    27    24    1
    27    25    24    1
    28    25    41    2
    29    39    43    1
    30    39     8    1
    31    24    23    2
    32     7     8    1
    33     7     9    1
    34    43    41    1
    35    43    40    1
    36    41    22    1
    37     8     2    2
    38    23    22    1
    39    23    26    1
    40    22     3    2
    41     2    15    1
    42    40    15   ar
    43    40    18   ar
    44    15    16   ar
    45     3    18    1
    46    18    17   ar
    47    16    17   ar
    48    16    19    1
    49    17    20    1
    50    20    21    2
