@<TRIPOS>MOLECULE
3n8w_HEM_A_1.pdb
 43 50 0 0 0
SMALL
GASTEIGER

@<TRIPOS>ATOM
      1  CHA       40.0790  -62.5980   -1.7710 C.2   801  HEM801      0.0000
      2  CHB       44.0000  -62.8570   -4.6040 C.2   801  HEM801      0.0000
      3  CHC       44.0160  -58.0070   -4.9390 C.2   801  HEM801      0.0000
      4  CHD       40.2500  -57.7040   -1.8940 C.2   801  HEM801      0.0000
      5  C1A       41.1330  -63.1060   -2.4970 C.ar  801  HEM801      0.0000
      6  C2A       41.4820  -64.5100   -2.6300 C.ar  801  HEM801      0.0000
      7  C3A       42.5680  -64.5860   -3.4180 C.ar  801  HEM801      0.0000
      8  C4A       42.9410  -63.2330   -3.8040 C.ar  801  HEM801      0.0000
      9  CMA       43.3070  -65.8770   -3.8450 C.3   801  HEM801      0.0000
     10  CAA       40.7140  -65.6910   -1.9760 C.3   801  HEM801      0.0000
     11  CBA       39.4230  -65.9470   -2.7610 C.3   801  HEM801      0.0000
     12  CGA       39.2240  -67.4020   -3.1340 C.2   801  HEM801      0.0000
     13  O1A       40.1680  -68.0400   -3.6740 O.co2 801  HEM801      0.0000
     14  O2A       38.1030  -67.9290   -2.8990 O.co2 801  HEM801      0.0000
     15  C1B       44.3830  -61.5590   -4.8900 C.2   801  HEM801      0.0000
     16  C2B       45.6070  -61.1610   -5.5590 C.2   801  HEM801      0.0000
     17  C3B       45.6130  -59.8210   -5.6580 C.2   801  HEM801      0.0000
     18  C4B       44.3930  -59.3260   -5.0450 C.2   801  HEM801      0.0000
     19  CMB       46.6940  -62.1400   -6.0560 C.3   801  HEM801      0.0000
     20  CAB       46.7120  -58.9270   -6.2910 C.2   801  HEM801      0.0000
     21  CBB       47.2130  -59.1700   -7.5080 C.2   801  HEM801      0.0000
     22  C1C       43.0000  -57.4960   -4.1640 C.ar  801  HEM801      0.0000
     23  C2C       42.6450  -56.0980   -4.0190 C.ar  801  HEM801      0.0000
     24  C3C       41.6110  -56.0090   -3.1780 C.ar  801  HEM801      0.0000
     25  C4C       41.2670  -57.3550   -2.7590 C.ar  801  HEM801      0.0000
     26  CMC       43.3380  -54.9020   -4.7070 C.3   801  HEM801      0.0000
     27  CAC       40.9090  -54.6960   -2.7530 C.2   801  HEM801      0.0000
     28  CBC       40.7790  -54.3490   -1.4710 C.2   801  HEM801      0.0000
     29  C1D       39.9320  -58.9810   -1.4810 C.2   801  HEM801      0.0000
     30  C2D       39.1030  -59.3170   -0.3430 C.2   801  HEM801      0.0000
     31  C3D       39.0550  -60.8540   -0.3070 C.2   801  HEM801      0.0000
     32  C4D       39.8570  -61.2840   -1.4280 C.2   801  HEM801      0.0000
     33  CMD       38.4180  -58.3370    0.6280 C.3   801  HEM801      0.0000
     34  CAD       38.3180  -61.7600    0.7070 C.3   801  HEM801      0.0000
     35  CBD       39.1720  -61.8990    1.9670 C.3   801  HEM801      0.0000
     36  CGD       38.6660  -62.9960    2.8760 C.2   801  HEM801      0.0000
     37  O1D       37.5270  -63.4970    2.6900 O.co2 801  HEM801      0.0000
     38  O2D       39.4130  -63.3780    3.8090 O.co2 801  HEM801      0.0000
     39  NA        42.0370  -62.3590   -3.2300 N.ar  801  HEM801      0.0000
     40  NB        43.6690  -60.4090   -4.5920 N.2   801  HEM801      0.0000
     41  NC        42.1330  -58.2330   -3.3880 N.ar  801  HEM801      0.0000
     42  ND        40.3540  -60.1610   -2.0900 N.2   801  HEM801      0.0000
     43 FE         42.0690  -60.2750   -3.3450 Fe    801  HEM801      0.0000
@<TRIPOS>BOND
     1    21    20    2
     2    20    17    1
     3    19    16    1
     4    17    16    2
     5    17    18    1
     6    16    15    1
     7    18     3    2
     8    18    40    1
     9     3    22    1
    10    15     2    1
    11    15    40    2
    12    26    23    1
    13     2     8    2
    14    40    43    1
    15    22    23   ar
    16    22    41   ar
    17    23    24   ar
    18     9     7    1
    19     8     7   ar
    20     8    39   ar
    21    13    12   ar
    22     7     6   ar
    23    41    43    1
    24    41    25   ar
    25    43    39    1
    26    43    42    1
    27    39     5   ar
    28    24    25   ar
    29    24    27    1
    30    12    14   ar
    31    12    11    1
    32    11    10    1
    33    25     4    1
    34    27    28    2
    35     6     5   ar
    36     6    10    1
    37     5     1    2
    38    42    29    1
    39    42    32    2
    40     4    29    2
    41     1    32    1
    42    29    30    1
    43    32    31    1
    44    30    31    2
    45    30    33    1
    46    31    34    1
    47    34    35    1
    48    35    36    1
    49    37    36   ar
    50    36    38   ar
