@<TRIPOS>MOLECULE
3n8w_FLP_A_1.pdb
 18 19 0 0 0
SMALL
GASTEIGER

@<TRIPOS>ATOM
      1  C         33.0150  -48.3590   -0.2730 C.ar  701  FLP701      0.0000
      2  C1        32.5790  -47.0600   -0.0200 C.ar  701  FLP701      0.0001
      3  C2        33.2960  -46.2340    0.8500 C.ar  701  FLP701      0.0022
      4  C3        34.4320  -46.7340    1.4940 C.ar  701  FLP701      0.0001
      5  C4        34.8650  -48.0360    1.2440 C.ar  701  FLP701      0.0000
      6  C5        34.1560  -48.8470    0.3610 C.ar  701  FLP701      0.0000
      7  C6        32.8400  -44.9440    1.1230 C.ar  701  FLP701      0.0275
      8  C7        32.6930  -44.6000    2.4610 C.ar  701  FLP701      0.0019
      9  C8        32.2230  -43.3430    2.8180 C.ar  701  FLP701     -0.0036
     10  C9        31.9010  -42.4120    1.8380 C.ar  701  FLP701     -0.0096
     11  C10       32.0340  -42.7480    0.4890 C.ar  701  FLP701      0.0259
     12  C11       32.5040  -44.0150    0.1320 C.ar  701  FLP701      0.1398
     13  C12       31.3730  -41.0480    2.3060 C.3   701  FLP701      0.1257
     14  C13       32.2150  -39.8810    1.7790 C.3   701  FLP701      0.0166
     15  C14       29.8940  -40.9670    1.8880 C.2   701  FLP701      0.3683
     16  O         29.0710  -41.4370    2.7020 O.co2 701  FLP701     -0.2453
     17  O1        29.6190  -40.5120    0.7540 O.co2 701  FLP701     -0.2453
     18  F         32.6390  -44.3220   -1.1740 F     701  FLP701     -0.2042
@<TRIPOS>BOND
     1    18    12    1
     2     1     2   ar
     3     1     6   ar
     4     2     3   ar
     5    12    11   ar
     6    12     7   ar
     7     6     5   ar
     8    11    10   ar
     9    17    15   ar
    10     3     7    1
    11     3     4   ar
    12     7     8   ar
    13     5     4   ar
    14    14    13    1
    15    10    13    1
    16    10     9   ar
    17    15    13    1
    18    15    16   ar
    19     8     9   ar
