@<TRIPOS>MOLECULE
3n8w_MAN_A_1.pdb
 11 11 0 0 0
SMALL
GASTEIGER

@<TRIPOS>ATOM
      1  C1        28.8900  -86.0190   21.6380 C.3   675  MAN675      0.1777
      2  C2        28.2130  -86.9760   22.6230 C.3   675  MAN675      0.2141
      3  C3        29.2850  -87.6550   23.4750 C.3   675  MAN675      0.2173
      4  C4        30.2970  -86.6750   24.0870 C.3   675  MAN675      0.2142
      5  C5        30.6070  -85.4180   23.2450 C.3   675  MAN675      0.1810
      6  C6        31.9470  -85.4920   22.5000 C.3   675  MAN675      0.2141
      7  O2        27.4630  -87.9550   21.9400 O.3   675  MAN675     -0.2176
      8  O3        29.9820  -88.6080   22.6970 O.3   675  MAN675     -0.2175
      9  O4        29.8530  -86.2790   25.3690 O.3   675  MAN675     -0.2176
     10  O5        29.5580  -85.0000   22.3680 O.3   675  MAN675     -0.3481
     11  O6        32.0750  -86.7050   21.7860 O.3   675  MAN675     -0.2176
@<TRIPOS>BOND
     1     1    10    1
     2     1     2    1
     3    11     6    1
     4     7     2    1
     5    10     5    1
     6     6     5    1
     7     2     3    1
     8     8     3    1
     9     5     4    1
    10     3     4    1
    11     4     9    1
