@<TRIPOS>MOLECULE
3n8x_HEM_A_1.pdb
 43 50 0 0 0
SMALL
GASTEIGER

@<TRIPOS>ATOM
      1  CHA      -32.4050  -66.4490    0.6400 C.2   601  HEM601      0.0000
      2  CHB      -30.8680  -69.4740   -2.6880 C.2   601  HEM601      0.0000
      3  CHC      -26.6560  -67.1410   -2.7150 C.2   601  HEM601      0.0000
      4  CHD      -28.3310  -63.8340    0.4160 C.2   601  HEM601      0.0000
      5  C1A      -32.2970  -67.5260   -0.1800 C.ar  601  HEM601      0.0000
      6  C2A      -33.2210  -68.6360   -0.1530 C.ar  601  HEM601      0.0000
      7  C3A      -32.8100  -69.5040   -1.0840 C.ar  601  HEM601      0.0000
      8  C4A      -31.6220  -68.9240   -1.7010 C.ar  601  HEM601      0.0000
      9  CMA      -33.4460  -70.8730   -1.4720 C.3   601  HEM601      0.0000
     10  CAA      -34.4420  -68.7460    0.8010 C.3   601  HEM601      0.0000
     11  CBA      -35.6720  -67.9860    0.2820 C.3   601  HEM601      0.0000
     12  CGA      -36.9040  -68.5230    0.9960 C.2   601  HEM601      0.0000
     13  O1A      -36.9810  -68.3920    2.2660 O.co2 601  HEM601      0.0000
     14  O2A      -37.8000  -69.1000    0.3010 O.co2 601  HEM601      0.0000
     15  C1B      -29.5570  -69.1820   -2.8550 C.2   601  HEM601      0.0000
     16  C2B      -28.5910  -70.0690   -3.4370 C.2   601  HEM601      0.0000
     17  C3B      -27.4180  -69.4380   -3.4600 C.2   601  HEM601      0.0000
     18  C4B      -27.6180  -68.1210   -2.8740 C.2   601  HEM601      0.0000
     19  CMB      -28.8880  -71.4950   -3.9310 C.3   601  HEM601      0.0000
     20  CAB      -26.0840  -70.0170   -3.9950 C.2   601  HEM601      0.0000
     21  CBB      -26.0000  -70.6630   -5.1670 C.2   601  HEM601      0.0000
     22  C1C      -26.7470  -66.0100   -1.9160 C.ar  601  HEM601      0.0000
     23  C2C      -25.7380  -64.9710   -1.7450 C.ar  601  HEM601      0.0000
     24  C3C      -26.2310  -64.0810   -0.8670 C.ar  601  HEM601      0.0000
     25  C4C      -27.5430  -64.5100   -0.4720 C.ar  601  HEM601      0.0000
     26  CMC      -24.3550  -64.9150   -2.4480 C.3   601  HEM601      0.0000
     27  CAC      -25.5840  -62.7910   -0.3400 C.2   601  HEM601      0.0000
     28  CBC      -25.3250  -62.7180    0.9630 C.2   601  HEM601      0.0000
     29  C1D      -29.5540  -64.2690    0.8360 C.2   601  HEM601      0.0000
     30  C2D      -30.3270  -63.7150    1.9350 C.2   601  HEM601      0.0000
     31  C3D      -31.6190  -64.5530    1.9790 C.2   601  HEM601      0.0000
     32  C4D      -31.4620  -65.5180    0.9210 C.2   601  HEM601      0.0000
     33  CMD      -29.9720  -62.5420    2.8620 C.3   601  HEM601      0.0000
     34  CAD      -32.8110  -64.4280    2.9600 C.3   601  HEM601      0.0000
     35  CBD      -32.5290  -65.2990    4.1820 C.3   601  HEM601      0.0000
     36  CGD      -33.6260  -65.1990    5.2080 C.2   601  HEM601      0.0000
     37  O1D      -33.5890  -65.9580    6.2230 O.co2 601  HEM601      0.0000
     38  O2D      -34.5420  -64.3580    5.0090 O.co2 601  HEM601      0.0000
     39  NA       -31.3260  -67.7270   -1.1350 N.ar  601  HEM601      0.0000
     40  NB       -28.9490  -68.0050   -2.5120 N.2   601  HEM601      0.0000
     41  NC       -27.8380  -65.6890   -1.1300 N.ar  601  HEM601      0.0000
     42  ND       -30.2470  -65.3290    0.2630 N.2   601  HEM601      0.0000
     43 FE        -29.5480  -66.7260   -1.1620 Fe    601  HEM601      0.0000
@<TRIPOS>BOND
     1    21    20    2
     2    20    17    1
     3    19    16    1
     4    17    16    2
     5    17    18    1
     6    16    15    1
     7    18     3    2
     8    18    40    1
     9    15     2    1
    10    15    40    2
    11     3    22    1
    12     2     8    2
    13    40    43    1
    14    26    23    1
    15    22    23   ar
    16    22    41   ar
    17    23    24   ar
    18     8    39   ar
    19     8     7   ar
    20     9     7    1
    21    43    39    1
    22    43    41    1
    23    43    42    1
    24    39     5   ar
    25    41    25   ar
    26     7     6   ar
    27    24    25   ar
    28    24    27    1
    29    25     4    1
    30    27    28    2
    31     5     6   ar
    32     5     1    2
    33     6    10    1
    34    42    29    1
    35    42    32    2
    36    11    10    1
    37    11    12    1
    38    14    12   ar
    39     4    29    2
    40     1    32    1
    41    29    30    1
    42    32    31    1
    43    12    13   ar
    44    30    31    2
    45    30    33    1
    46    31    34    1
    47    34    35    1
    48    35    36    1
    49    38    36   ar
    50    36    37   ar
