@<TRIPOS>MOLECULE
3n8x_NIM_A_1.pdb
 21 22 0 0 0
SMALL
GASTEIGER

@<TRIPOS>ATOM
      1  O4       -19.6820  -50.4130   -2.5820 O.co2 701  NIM701     -0.7770
      2  N2       -19.3270  -49.3020   -1.7690 N.pl3 701  NIM701     -0.1852
      3  O3       -18.7010  -48.1830   -2.4240 O.2   701  NIM701     -0.1725
      4  C5       -19.5230  -49.3110   -0.4360 C.ar  701  NIM701      0.0950
      5  C4       -19.3040  -48.1430    0.2870 C.ar  701  NIM701      0.0215
      6  C3       -19.4860  -48.1350    1.6650 C.ar  701  NIM701      0.0227
      7  C2       -19.8740  -49.2850    2.3490 C.ar  701  NIM701      0.1251
      8  N1       -20.0550  -49.2900    3.6660 N.pl3 701  NIM701     -0.0975
      9  S1       -19.4460  -48.1520    4.6650 S.O2  701  NIM701      0.0751
     10  O1       -20.0980  -46.8380    4.3600 O.2   701  NIM701     -0.1528
     11  O2       -19.7850  -48.4830    6.0820 O.2   701  NIM701     -0.1528
     12  C1       -17.6800  -48.0840    4.4920 C.3   701  NIM701      0.2016
     13  C6       -19.9180  -50.4730    0.2490 C.ar  701  NIM701      0.0588
     14  C7       -20.1130  -50.4570    1.6410 C.ar  701  NIM701      0.1634
     15  O5       -20.4810  -51.5800    2.3460 O.3   701  NIM701     -0.4521
     16  C8       -21.7580  -52.0580    2.4260 C.ar  701  NIM701      0.1454
     17  C13      -21.9900  -53.1480    3.2670 C.ar  701  NIM701      0.0375
     18  C12      -23.2750  -53.6880    3.3920 C.ar  701  NIM701      0.0031
     19  C11      -24.3410  -53.1370    2.6830 C.ar  701  NIM701      0.0002
     20  C10      -24.1180  -52.0520    1.8390 C.ar  701  NIM701      0.0031
     21  C9       -22.8290  -51.5170    1.7100 C.ar  701  NIM701      0.0375
@<TRIPOS>UNITY_ATOM_ATTR
1 1
charge -1
@<TRIPOS>BOND
     1     1     2    2
     2     3     2    2
     3     2     4    1
     4     4    13   ar
     5     4     5   ar
     6    13    14   ar
     7     5     6   ar
     8    14    15    1
     9    14     7   ar
    10     6     7   ar
    11    21    20   ar
    12    21    16   ar
    13    20    19   ar
    14    15    16    1
    15     7     8    1
    16    16    17   ar
    17    19    18   ar
    18    17    18   ar
    19     8     9    1
    20    10     9    2
    21    12     9    1
    22     9    11    2
