@<TRIPOS>MOLECULE
3n8y_DIF_A_1.pdb
 19 20 0 0 0
SMALL
GASTEIGER

@<TRIPOS>ATOM
      1  C1        31.7010  -41.9800   -4.5050 C.ar  701  DIF701      0.0128
      2  C2        32.5740  -43.0660   -4.5590 C.ar  701  DIF701      0.0737
      3 CL2        33.2510  -43.5720   -6.1420 Cl    701  DIF701     -0.0809
      4  C3        32.9070  -43.7580   -3.3990 C.ar  701  DIF701      0.0915
      5  C4        32.3770  -43.3500   -2.1810 C.ar  701  DIF701      0.0737
      6 CL4        32.8070  -44.2260   -0.6770 Cl    701  DIF701     -0.0809
      7  C5        31.5070  -42.2620   -2.1200 C.ar  701  DIF701      0.0128
      8  C6        31.1670  -41.5760   -3.2840 C.ar  701  DIF701      0.0018
      9  N1        33.7590  -44.8130   -3.4380 N.pl3 701  DIF701     -0.2111
     10  C7        34.3650  -47.0740   -3.9210 C.ar  701  DIF701      0.0043
     11  C8        33.4190  -46.0470   -3.8940 C.ar  701  DIF701      0.0671
     12  C9        32.1210  -46.3030   -4.3440 C.ar  701  DIF701      0.0162
     13  C10       31.7740  -47.5660   -4.8180 C.ar  701  DIF701      0.0013
     14  C11       32.7200  -48.5870   -4.8390 C.ar  701  DIF701     -0.0002
     15  C12       34.0150  -48.3390   -4.3920 C.ar  701  DIF701     -0.0024
     16  C13       35.7850  -46.8540   -3.4490 C.3   701  DIF701      0.1416
     17  C14       35.8690  -47.0790   -1.9580 C.2   701  DIF701      0.3693
     18  O1        36.2540  -48.1920   -1.5330 O.co2 701  DIF701     -0.2453
     19  O2        35.5510  -46.1360   -1.2050 O.co2 701  DIF701     -0.2453
@<TRIPOS>BOND
     1     3     2    1
     2    14    13   ar
     3    14    15   ar
     4    13    12   ar
     5     2     1   ar
     6     2     4   ar
     7     1     8   ar
     8    15    10   ar
     9    12    11   ar
    10    10    11   ar
    11    10    16    1
    12    11     9    1
    13    16    17    1
    14     9     4    1
    15     4     5   ar
    16     8     7   ar
    17     5     7   ar
    18     5     6    1
    19    17    18   ar
    20    17    19   ar
