@<TRIPOS>MOLECULE
3n8y_HEM_A_1.pdb
 43 50 0 0 0
SMALL
GASTEIGER

@<TRIPOS>ATOM
      1  CHA       39.7280  -62.6840   -6.3220 C.2   601  HEM601      0.0000
      2  CHB       43.8480  -62.8780   -8.8630 C.2   601  HEM601      0.0000
      3  CHC       43.6650  -58.0760   -9.6000 C.2   601  HEM601      0.0000
      4  CHD       39.8130  -57.7940   -6.6380 C.2   601  HEM601      0.0000
      5  C1A       40.8390  -63.1790   -6.9690 C.ar  601  HEM601      0.0000
      6  C2A       41.2310  -64.5730   -7.0810 C.ar  601  HEM601      0.0000
      7  C3A       42.3700  -64.6230   -7.7870 C.ar  601  HEM601      0.0000
      8  C4A       42.7370  -63.2630   -8.1410 C.ar  601  HEM601      0.0000
      9  CMA       43.1700  -65.8950   -8.1660 C.3   601  HEM601      0.0000
     10  CAA       40.4540  -65.7780   -6.4950 C.3   601  HEM601      0.0000
     11  CBA       39.4010  -66.2120   -7.5140 C.3   601  HEM601      0.0000
     12  CGA       38.7010  -67.4750   -7.0770 C.2   601  HEM601      0.0000
     13  O1A       37.5070  -67.3950   -6.6860 O.co2 601  HEM601      0.0000
     14  O2A       39.3290  -68.5640   -7.1270 O.co2 601  HEM601      0.0000
     15  C1B       44.1590  -61.6060   -9.2960 C.2   601  HEM601      0.0000
     16  C2B       45.2950  -61.2450  -10.1210 C.2   601  HEM601      0.0000
     17  C3B       45.2510  -59.9220  -10.3320 C.2   601  HEM601      0.0000
     18  C4B       44.0860  -59.3940   -9.6400 C.2   601  HEM601      0.0000
     19  CMB       46.3580  -62.2380  -10.6520 C.3   601  HEM601      0.0000
     20  CAB       46.2630  -59.0910  -11.1570 C.2   601  HEM601      0.0000
     21  CBB       46.5180  -59.3880  -12.4370 C.2   601  HEM601      0.0000
     22  C1C       42.6390  -57.5630   -8.8250 C.ar  601  HEM601      0.0000
     23  C2C       42.3240  -56.1580   -8.6220 C.ar  601  HEM601      0.0000
     24  C3C       41.2660  -56.0770   -7.8040 C.ar  601  HEM601      0.0000
     25  C4C       40.8630  -57.4300   -7.4580 C.ar  601  HEM601      0.0000
     26  CMC       43.0820  -54.9590   -9.2380 C.3   601  HEM601      0.0000
     27  CAC       40.5950  -54.7640   -7.3280 C.2   601  HEM601      0.0000
     28  CBC       40.4230  -54.4960   -6.0300 C.2   601  HEM601      0.0000
     29  C1D       39.5280  -59.0570   -6.1530 C.2   601  HEM601      0.0000
     30  C2D       38.7470  -59.3600   -4.9700 C.2   601  HEM601      0.0000
     31  C3D       38.7220  -60.8960   -4.8710 C.2   601  HEM601      0.0000
     32  C4D       39.4890  -61.3620   -6.0060 C.2   601  HEM601      0.0000
     33  CMD       38.0770  -58.3550   -4.0080 C.3   601  HEM601      0.0000
     34  CAD       38.0290  -61.7610   -3.7920 C.3   601  HEM601      0.0000
     35  CBD       38.9430  -61.8930   -2.5740 C.3   601  HEM601      0.0000
     36  CGD       38.4360  -62.9670   -1.6420 C.2   601  HEM601      0.0000
     37  O1D       37.2850  -62.8500   -1.1480 O.co2 601  HEM601      0.0000
     38  O2D       39.1840  -63.9460   -1.3860 O.co2 601  HEM601      0.0000
     39  NA        41.7750  -62.4120   -7.6320 N.ar  601  HEM601      0.0000
     40  NB        43.4470  -60.4530   -9.0230 N.2   601  HEM601      0.0000
     41  NC        41.7180  -58.3050   -8.1050 N.ar  601  HEM601      0.0000
     42  ND        39.9440  -60.2580   -6.7240 N.2   601  HEM601      0.0000
     43 FE         41.7170  -60.3430   -7.8930 Fe    601  HEM601      0.0000
@<TRIPOS>BOND
     1    21    20    2
     2    20    17    1
     3    19    16    1
     4    17    16    2
     5    17    18    1
     6    16    15    1
     7    18     3    2
     8    18    40    1
     9     3    22    1
    10    15    40    2
    11    15     2    1
    12    26    23    1
    13    40    43    1
    14     2     8    2
    15    22    23   ar
    16    22    41   ar
    17    23    24   ar
    18     9     7    1
    19     8     7   ar
    20     8    39   ar
    21    41    43    1
    22    41    25   ar
    23    43    39    1
    24    43    42    1
    25    24    25   ar
    26    24    27    1
    27     7     6   ar
    28    39     5   ar
    29    11    12    1
    30    11    10    1
    31    25     4    1
    32    27    28    2
    33    14    12   ar
    34     6     5   ar
    35     6    10    1
    36    12    13   ar
    37     5     1    2
    38    42    29    1
    39    42    32    2
    40     4    29    2
    41     1    32    1
    42    29    30    1
    43    32    31    1
    44    30    31    2
    45    30    33    1
    46    31    34    1
    47    34    35    1
    48    35    36    1
    49    36    38   ar
    50    36    37   ar
