@<TRIPOS>MOLECULE
3n8z_HEM_A_1.pdb
 43 50 0 0 0
SMALL
GASTEIGER

@<TRIPOS>ATOM
      1  CHA      -32.5020   66.3660   12.6680 C.2   601  HEM601      0.0000
      2  CHB      -30.9940   69.9220   15.5880 C.2   601  HEM601      0.0000
      3  CHC      -26.9310   67.4330   16.5300 C.2   601  HEM601      0.0000
      4  CHD      -28.2940   63.9770   13.3970 C.2   601  HEM601      0.0000
      5  C1A      -32.5260   67.4370   13.5370 C.2   601  HEM601      0.0000
      6  C2A      -33.7030   68.1270   14.0430 C.2   601  HEM601      0.0000
      7  C3A      -33.2850   69.1110   14.8600 C.2   601  HEM601      0.0000
      8  C4A      -31.8320   69.0800   14.8840 C.2   601  HEM601      0.0000
      9  CMA      -34.1660   70.1200   15.6400 C.3   601  HEM601      0.0000
     10  CAA      -35.1660   67.7400   13.6980 C.3   601  HEM601      0.0000
     11  CBA      -35.9120   68.8370   12.9450 C.3   601  HEM601      0.0000
     12  CGA      -37.3100   68.9320   13.5030 C.2   601  HEM601      0.0000
     13  O1A      -38.2170   68.2410   12.9710 O.co2 601  HEM601      0.0000
     14  O2A      -37.5210   69.6970   14.4800 O.co2 601  HEM601      0.0000
     15  C1B      -29.7440   69.5970   16.0750 C.ar  601  HEM601      0.0000
     16  C2B      -28.8840   70.4340   16.8900 C.ar  601  HEM601      0.0000
     17  C3B      -27.7640   69.7470   17.1510 C.ar  601  HEM601      0.0000
     18  C4B      -27.8690   68.4490   16.5080 C.ar  601  HEM601      0.0000
     19  CMB      -29.2170   71.8670   17.3670 C.3   601  HEM601      0.0000
     20  CAB      -26.5580   70.2390   17.9850 C.2   601  HEM601      0.0000
     21  CBB      -26.6150   70.2400   19.3200 C.2   601  HEM601      0.0000
     22  C1C      -26.9010   66.3230   15.7040 C.2   601  HEM601      0.0000
     23  C2C      -25.7610   65.4510   15.4670 C.2   601  HEM601      0.0000
     24  C3C      -26.1340   64.4980   14.6010 C.2   601  HEM601      0.0000
     25  C4C      -27.5270   64.7300   14.2590 C.2   601  HEM601      0.0000
     26  CMC      -24.3590   65.6030   16.1060 C.3   601  HEM601      0.0000
     27  CAC      -25.2380   63.3520   14.0680 C.2   601  HEM601      0.0000
     28  CBC      -25.3930   62.8500   12.8380 C.2   601  HEM601      0.0000
     29  C1D      -29.4770   64.3590   12.8000 C.ar  601  HEM601      0.0000
     30  C2D      -30.0200   63.8080   11.5770 C.ar  601  HEM601      0.0000
     31  C3D      -31.3420   64.5550   11.3430 C.ar  601  HEM601      0.0000
     32  C4D      -31.4600   65.4840   12.4530 C.ar  601  HEM601      0.0000
     33  CMD      -29.4000   62.7020   10.6980 C.3   601  HEM601      0.0000
     34  CAD      -32.3290   64.3540   10.1690 C.3   601  HEM601      0.0000
     35  CBD      -32.1210   65.4670    9.1470 C.3   601  HEM601      0.0000
     36  CGD      -33.4540   65.9450    8.6360 C.2   601  HEM601      0.0000
     37  O1D      -33.8630   65.5060    7.5310 O.co2 601  HEM601      0.0000
     38  O2D      -34.1090   66.7640    9.3300 O.co2 601  HEM601      0.0000
     39  NA       -31.4090   68.0420   14.0750 N.2   601  HEM601      0.0000
     40  NB       -29.0860   68.4020   15.8540 N.ar  601  HEM601      0.0000
     41  NC       -27.9630   65.8450   14.9540 N.2   601  HEM601      0.0000
     42  ND       -30.3430   65.3410   13.2720 N.ar  601  HEM601      0.0000
     43 FE        -29.6900   66.9040   14.5370 Fe    601  HEM601      0.0000
@<TRIPOS>BOND
     1    37    36   ar
     2    36    35    1
     3    36    38   ar
     4    35    34    1
     5    34    31    1
     6    33    30    1
     7    31    30   ar
     8    31    32   ar
     9    30    29   ar
    10    32     1    2
    11    32    42   ar
    12     1     5    1
    13    29    42   ar
    14    29     4    2
    15    28    27    2
    16    11    12    1
    17    11    10    1
    18    13    12   ar
    19    42    43    1
    20     4    25    1
    21    12    14   ar
    22     5     6    1
    23     5    39    2
    24    10     6    1
    25     6     7    2
    26    27    24    1
    27    39    43    1
    28    39     8    1
    29    25    24    1
    30    25    41    2
    31    43    41    1
    32    43    40    1
    33    24    23    2
    34     7     8    1
    35     7     9    1
    36     8     2    2
    37    41    22    1
    38    23    22    1
    39    23    26    1
    40     2    15    1
    41    22     3    2
    42    40    15   ar
    43    40    18   ar
    44    15    16   ar
    45    18     3    1
    46    18    17   ar
    47    16    17   ar
    48    16    19    1
    49    17    20    1
    50    20    21    2
