@<TRIPOS>MOLECULE
3n8z_FLP_A_1.pdb
 18 19 0 0 0
SMALL
GASTEIGER

@<TRIPOS>ATOM
      1  C        -24.3950   53.0990   11.2210 C.ar  701  FLP701      0.0000
      2  C1       -23.5700   52.0760   11.1020 C.ar  701  FLP701      0.0001
      3  C2       -22.2420   52.2410   10.3550 C.ar  701  FLP701      0.0022
      4  C3       -21.9260   53.4060    9.8160 C.ar  701  FLP701      0.0001
      5  C4       -22.8830   54.5930    9.9520 C.ar  701  FLP701      0.0000
      6  C5       -24.0250   54.4470   10.6000 C.ar  701  FLP701      0.0000
      7  C6       -21.2910   51.0530   10.2110 C.ar  701  FLP701      0.0275
      8  C7       -20.8070   50.6720    8.8070 C.ar  701  FLP701      0.0019
      9  C8       -19.9960   49.6460    8.6440 C.ar  701  FLP701     -0.0036
     10  C9       -19.5270   48.8420    9.8600 C.ar  701  FLP701     -0.0096
     11  C10      -19.9460   49.1650   11.0720 C.ar  701  FLP701      0.0259
     12  C11      -20.8930   50.3530   11.2640 C.ar  701  FLP701      0.1398
     13  C12      -18.5900   47.6460    9.6870 C.3   701  FLP701      0.1257
     14  C13      -17.5550   47.8630    8.5810 C.3   701  FLP701      0.0166
     15  C14      -19.4360   46.3990    9.4250 C.2   701  FLP701      0.3683
     16  O        -20.1000   46.3420    8.4450 O.co2 701  FLP701     -0.2453
     17  O1       -19.7410   45.7170   10.3460 O.co2 701  FLP701     -0.2453
     18  F        -21.3140   50.6780   12.5230 F     701  FLP701     -0.2042
@<TRIPOS>BOND
     1    16    15   ar
     2    14    13    1
     3     9     8   ar
     4     9    10   ar
     5     8     7   ar
     6    15    13    1
     7    15    17   ar
     8    13    10    1
     9     4     5   ar
    10     4     3   ar
    11    10    11   ar
    12     5     6   ar
    13     7     3    1
    14     7    12   ar
    15     3     2   ar
    16     6     1   ar
    17    11    12   ar
    18     2     1   ar
    19    12    18    1
