@<TRIPOS>MOLECULE
3n93_MAL_A_1.pdb
 23 24 0 0 0
SMALL
GASTEIGER

@<TRIPOS>ATOM
      1  C1        29.2450   31.9780   24.0300 C.3   111  MAL111      0.2695
      2  C2        28.2770   33.1480   24.1880 C.3   111  MAL111      0.2406
      3  C3        28.7930   34.0440   25.3010 C.3   111  MAL111      0.2198
      4  C4        28.9320   33.2300   26.5920 C.3   111  MAL111      0.2144
      5  C5        29.8310   32.0150   26.3500 C.3   111  MAL111      0.1835
      6  C6        29.9050   31.1230   27.5770 C.3   111  MAL111      0.2142
      7  O1        30.5240   32.4660   23.6590 O.3   111  MAL111     -0.3257
      8  O2        28.1600   33.8780   22.9990 O.3   111  MAL111     -0.2149
      9  O3        27.9390   35.1360   25.4770 O.3   111  MAL111     -0.2174
     10  O4        29.5380   34.0250   27.5890 O.3   111  MAL111     -0.2176
     11  O5        29.3590   31.2590   25.2420 O.3   111  MAL111     -0.3256
     12  O6        31.0760   30.3330   27.5130 O.3   111  MAL111     -0.2176
     13  C1'       33.2050   31.6770   20.5420 C.3   111  MAL111      0.3023
     14  C2'       31.7620   32.0090   20.1680 C.3   111  MAL111      0.2433
     15  C3'       30.9590   32.6010   21.3220 C.3   111  MAL111      0.2168
     16  C4'       31.1790   31.8050   22.5940 C.3   111  MAL111      0.1804
     17  C5'       32.6670   31.6420   22.8830 C.3   111  MAL111      0.1804
     18  C6'       32.9060   30.7240   24.0750 C.3   111  MAL111      0.2141
     19  O1'       33.9390   32.8620   20.6520 O.3   111  MAL111     -0.1869
     20  O2'       31.7400   32.9550   19.1510 O.3   111  MAL111     -0.2148
     21  O3'       29.5840   32.5490   20.9980 O.3   111  MAL111     -0.2175
     22  O5'       33.2990   31.0170   21.7940 O.3   111  MAL111     -0.3237
     23  O6'       34.0200   31.2280   24.7760 O.3   111  MAL111     -0.2176
@<TRIPOS>BOND
     1    20    14    1
     2    14    13    1
     3    14    15    1
     4    13    19    1
     5    13    22    1
     6    21    15    1
     7    15    16    1
     8    22    17    1
     9    16    17    1
    10    16     7    1
    11    17    18    1
    12     8     2    1
    13     7     1    1
    14     1     2    1
    15     1    11    1
    16    18    23    1
    17     2     3    1
    18    11     5    1
    19     3     9    1
    20     3     4    1
    21     5     4    1
    22     5     6    1
    23     4    10    1
    24    12     6    1
