@<TRIPOS>MOLECULE
3n94_MAL_A_1.pdb
 23 24 0 0 0
SMALL
GASTEIGER

@<TRIPOS>ATOM
      1  C1         6.3750    3.1130  -12.0180 C.3   5044  MAL5044     0.2695
      2  C2         7.6380    3.1700  -11.1630 C.3   5044  MAL5044     0.2406
      3  C3         7.3140    3.7440   -9.7760 C.3   5044  MAL5044     0.2198
      4  C4         6.6680    5.1390   -9.9690 C.3   5044  MAL5044     0.2144
      5  C5         5.4320    5.0280  -10.9070 C.3   5044  MAL5044     0.1835
      6  C6         4.9590    6.4250  -11.2810 C.3   5044  MAL5044     0.2142
      7  O1         5.4640    2.2370  -11.3510 O.3   5044  MAL5044    -0.3257
      8  O2         8.1410    1.8290  -10.9640 O.3   5044  MAL5044    -0.2149
      9  O3         8.4860    3.6990   -8.8830 O.3   5044  MAL5044    -0.2174
     10  O4         6.2570    5.6490   -8.7010 O.3   5044  MAL5044    -0.2176
     11  O5         5.8100    4.4220  -12.1710 O.3   5044  MAL5044    -0.3256
     12  O6         3.7090    6.5090  -11.9560 O.3   5044  MAL5044    -0.2176
     13  C1'        3.0520   -0.9960  -12.5980 C.3   5044  MAL5044     0.3023
     14  C2'        4.5370   -1.0360  -12.9050 C.3   5044  MAL5044     0.2433
     15  C3'        5.3270   -0.0360  -12.0620 C.3   5044  MAL5044     0.2168
     16  C4'        4.7410    1.3620  -12.2500 C.3   5044  MAL5044     0.1804
     17  C5'        3.2740    1.3420  -11.7790 C.3   5044  MAL5044     0.1804
     18  C6'        2.5580    2.6450  -12.1130 C.3   5044  MAL5044     0.2141
     19  O1'        2.9190   -1.4890  -11.3150 O.3   5044  MAL5044    -0.1869
     20  O2'        4.9740   -2.3530  -12.5940 O.3   5044  MAL5044    -0.2148
     21  O3'        6.6610    0.0330  -12.5940 O.3   5044  MAL5044    -0.2175
     22  O5'        2.5270    0.3150  -12.5160 O.3   5044  MAL5044    -0.3237
     23  O6'        1.3790    2.7740  -11.3010 O.3   5044  MAL5044    -0.2176
@<TRIPOS>BOND
     1    14    13    1
     2    14    20    1
     3    14    15    1
     4    13    22    1
     5    13    19    1
     6    21    15    1
     7    22    17    1
     8    16    15    1
     9    16    17    1
    10    16     7    1
    11    11     1    1
    12    11     5    1
    13    18    17    1
    14    18    23    1
    15     1     7    1
    16     1     2    1
    17    12     6    1
    18     6     5    1
    19     2     8    1
    20     2     3    1
    21     5     4    1
    22     4     3    1
    23     4    10    1
    24     3     9    1
