@<TRIPOS>MOLECULE
3n95_MAL_A_1.pdb
 23 24 0 0 0
SMALL
GASTEIGER

@<TRIPOS>ATOM
      1  C1        -2.1610  -28.4030   31.9110 C.3   111  MAL111      0.2695
      2  C2        -1.1420  -28.2310   33.0320 C.3   111  MAL111      0.2406
      3  C3        -1.6290  -27.1610   33.9950 C.3   111  MAL111      0.2198
      4  C4        -1.7570  -25.8560   33.1990 C.3   111  MAL111      0.2144
      5  C5        -2.6680  -26.0500   31.9880 C.3   111  MAL111      0.1835
      6  C6        -2.6250  -24.8140   31.1060 C.3   111  MAL111      0.2142
      7  O1        -3.3680  -28.7870   32.4930 O.3   111  MAL111     -0.3257
      8  O2        -0.9250  -29.4550   33.6850 O.3   111  MAL111     -0.2149
      9  O3        -0.7220  -27.0390   35.0660 O.3   111  MAL111     -0.2174
     10  O4        -2.3050  -24.8150   33.9850 O.3   111  MAL111     -0.2176
     11  O5        -2.3650  -27.2000   31.2040 O.3   111  MAL111     -0.3256
     12  O6        -3.7410  -24.8970   30.2540 O.3   111  MAL111     -0.2176
     13  C1'       -6.0850  -31.8010   31.4720 C.3   111  MAL111      0.3023
     14  C2'       -4.6580  -32.2180   31.8110 C.3   111  MAL111      0.2433
     15  C3'       -3.8790  -31.1260   32.5340 C.3   111  MAL111      0.2168
     16  C4'       -4.0720  -29.8010   31.8080 C.3   111  MAL111      0.1804
     17  C5'       -5.5660  -29.4820   31.6720 C.3   111  MAL111      0.1804
     18  C6'       -5.8570  -28.2750   30.8110 C.3   111  MAL111      0.2141
     19  O1'       -6.8870  -31.8230   32.6180 O.3   111  MAL111     -0.1869
     20  O2'       -4.7140  -33.3540   32.6220 O.3   111  MAL111     -0.2148
     21  O3'       -2.5080  -31.4300   32.5210 O.3   111  MAL111     -0.2175
     22  O5'       -6.1560  -30.4990   30.9290 O.3   111  MAL111     -0.3237
     23  O6'       -7.0410  -27.7110   31.3090 O.3   111  MAL111     -0.2176
@<TRIPOS>BOND
     1    12     6    1
     2    18    23    1
     3    18    17    1
     4    22    13    1
     5    22    17    1
     6     6     5    1
     7    11     1    1
     8    11     5    1
     9    13    14    1
    10    13    19    1
    11    17    16    1
    12    16     7    1
    13    16    15    1
    14    14    15    1
    15    14    20    1
    16     1     7    1
    17     1     2    1
    18     5     4    1
    19    21    15    1
    20     2     8    1
    21     2     3    1
    22     4    10    1
    23     4     3    1
    24     3     9    1
