@<TRIPOS>MOLECULE
3n96_MAL_A_1.pdb
 23 24 0 0 0
SMALL
GASTEIGER

@<TRIPOS>ATOM
      1  C1         2.0920   27.9430   32.2760 C.3   111  MAL111      0.2695
      2  C2         1.2070   27.7970   33.4900 C.3   111  MAL111      0.2406
      3  C3         1.8230   26.7560   34.3890 C.3   111  MAL111      0.2198
      4  C4         1.9830   25.4260   33.6180 C.3   111  MAL111      0.2144
      5  C5         2.8040   25.6520   32.3520 C.3   111  MAL111      0.1835
      6  C6         2.8280   24.4420   31.4420 C.3   111  MAL111      0.2142
      7  O1         3.3250   28.3640   32.7370 O.3   111  MAL111     -0.3257
      8  O2         1.1610   29.0260   34.1410 O.3   111  MAL111     -0.2149
      9  O3         0.9910   26.6590   35.5030 O.3   111  MAL111     -0.2174
     10  O4         2.6890   24.4570   34.3680 O.3   111  MAL111     -0.2176
     11  O5         2.2780   26.7160   31.6090 O.3   111  MAL111     -0.3256
     12  O6         3.8380   24.6040   30.4860 O.3   111  MAL111     -0.2176
     13  C1'        6.1190   31.3290   32.0590 C.3   111  MAL111      0.3023
     14  C2'        4.6890   31.7940   32.2120 C.3   111  MAL111      0.2433
     15  C3'        3.8530   30.7000   32.8470 C.3   111  MAL111      0.2168
     16  C4'        4.0010   29.4040   32.0650 C.3   111  MAL111      0.1804
     17  C5'        5.4950   29.0510   31.9910 C.3   111  MAL111      0.1804
     18  C6'        5.7640   27.8020   31.1610 C.3   111  MAL111      0.2141
     19  O1'        6.6660   31.0800   33.3210 O.3   111  MAL111     -0.1869
     20  O2'        4.6920   32.9000   33.0610 O.3   111  MAL111     -0.2148
     21  O3'        2.4930   31.0420   32.9550 O.3   111  MAL111     -0.2175
     22  O5'        6.1970   30.1090   31.3820 O.3   111  MAL111     -0.3237
     23  O6'        7.1350   27.5700   31.2010 O.3   111  MAL111     -0.2176
@<TRIPOS>BOND
     1    12     6    1
     2    18    23    1
     3    18    17    1
     4    22    17    1
     5    22    13    1
     6     6     5    1
     7    11     1    1
     8    11     5    1
     9    17    16    1
    10    13    14    1
    11    13    19    1
    12    16     7    1
    13    16    15    1
    14    14    15    1
    15    14    20    1
    16     1     7    1
    17     1     2    1
    18     5     4    1
    19    15    21    1
    20     2     8    1
    21     2     3    1
    22     4    10    1
    23     4     3    1
    24     3     9    1
