@<TRIPOS>MOLECULE
3n9j_EAA_A_1.pdb
 19 19 0 0 0
SMALL
GASTEIGER

@<TRIPOS>ATOM
      1  C1         7.4150    3.5420   25.5640 C.ar  210  EAA210      0.1506
      2  O2         8.3980    3.9970   24.7090 O.3   210  EAA210     -0.4628
      3  C2         7.7830    2.4540   26.5000 C.ar  210  EAA210      0.1021
      4 CL1         9.4190    1.7860   26.5140 Cl    210  EAA210     -0.0782
      5  C3         6.8120    1.9030   27.4590 C.ar  210  EAA210      0.0742
      6 CL2         7.3360    0.5710   28.5600 Cl    210  EAA210     -0.0812
      7  C4         5.4420    2.4930   27.4160 C.ar  210  EAA210      0.0502
      8  C5         5.1530    3.5300   26.5050 C.ar  210  EAA210      0.0072
      9  C6         6.1030    4.0480   25.6050 C.ar  210  EAA210      0.0380
     10  C7         4.4040    1.9950   28.3780 C.2   210  EAA210      0.1925
     11  O1         3.6900    1.0350   28.1070 O.2   210  EAA210     -0.2869
     12  C8         4.3220    2.7110   29.6620 C.2   210  EAA210      0.0168
     13  C9         3.6350    4.0530   29.7380 C.3   210  EAA210      0.0296
     14  C10        4.6770    5.1530   29.8130 C.3   210  EAA210      0.0051
     15  C11        4.8730    2.2160   30.7580 C.2   210  EAA210     -0.0013
     16  C12        8.1850    4.8900   23.6100 C.3   210  EAA210      0.3186
     17  C13        9.5350    5.3410   23.0890 C.2   210  EAA210      0.4084
     18  O          9.6460    6.4550   22.5480 O.co2 210  EAA210     -0.2415
     19  OXT       10.5100    4.5770   23.2380 O.co2 210  EAA210     -0.2415
@<TRIPOS>BOND
     1    18    17   ar
     2    17    19   ar
     3    17    16    1
     4    16     2    1
     5     2     1    1
     6     1     9   ar
     7     1     3   ar
     8     9     8   ar
     9     3     4    1
    10     3     5   ar
    11     8     7   ar
    12     7     5   ar
    13     7    10    1
    14     5     6    1
    15    11    10    2
    16    10    12    1
    17    12    13    1
    18    12    15    2
    19    13    14    1
