@<TRIPOS>MOLECULE
3n9k_BGC_A_1.pdb
 12 12 0 0 0
SMALL
GASTEIGER

@<TRIPOS>ATOM
      1  C2        -3.7820  -11.2300   13.9270 C.3   1003  BGC1003     0.2434
      2  C3        -3.0320  -11.5810   12.6220 C.3   1003  BGC1003     0.2199
      3  C4        -2.1020  -12.8310   12.7510 C.3   1003  BGC1003     0.2144
      4  C5        -2.6260  -13.9730   13.6810 C.3   1003  BGC1003     0.1836
      5  C6        -1.5250  -15.0180   14.0190 C.3   1003  BGC1003     0.2142
      6  C1        -4.2380  -12.4640   14.7490 C.3   1003  BGC1003     0.3024
      7  O1        -4.6860  -12.0720   16.0570 O.3   1003  BGC1003    -0.1869
      8  O2        -4.8720  -10.3350   13.6770 O.3   1003  BGC1003    -0.2148
      9  O3        -2.3580  -10.4030   12.1020 O.3   1003  BGC1003    -0.2174
     10  O4        -1.8120  -13.3750   11.4640 O.3   1003  BGC1003    -0.2176
     11  O5        -3.1830  -13.4240   14.8830 O.3   1003  BGC1003    -0.3236
     12  O6        -1.9780  -16.3430   14.3420 O.3   1003  BGC1003    -0.2176
@<TRIPOS>BOND
     1    10     3    1
     2     9     2    1
     3     2     3    1
     4     2     1    1
     5     3     4    1
     6     8     1    1
     7     4     5    1
     8     4    11    1
     9     1     6    1
    10     5    12    1
    11     6    11    1
    12     6     7    1
