@<TRIPOS>MOLECULE
3n9r_TD3_A_1.pdb
 15 14 0 0 0
SMALL
GASTEIGER

@<TRIPOS>ATOM
      1  O01       -9.5240   -9.0850  -42.2390 O.3   311  TD3311     -0.4194
      2  N02      -10.2210   -7.8690  -42.2900 N.am  311  TD3311     -0.2779
      3  C03       -9.4450   -6.6370  -42.2840 C.3   311  TD3311      0.1235
      4  C04       -8.4630   -6.4400  -43.4440 C.2   311  TD3311     -0.0062
      5  C05       -8.2020   -5.0360  -43.9880 C.2   311  TD3311      0.0062
      6  C06       -7.6040   -4.9690  -45.3960 C.3   311  TD3311      0.2081
      7  O07       -6.3470   -4.3750  -45.5680 O.3   311  TD3311     -0.2152
      8  C12      -11.6610   -7.8410  -42.5150 C.2   311  TD3311      0.0987
      9  O13      -12.2240   -8.8590  -42.8040 O.2   311  TD3311     -0.5387
     10  C14      -12.2600   -6.4980  -42.9470 C.3   311  TD3311      0.2026
     11  O15      -11.9740   -6.1530  -44.2650 O.3   311  TD3311     -0.2633
     12  P16      -12.2690   -4.6480  -44.8810 P.3   311  TD3311      0.5330
     13  O17      -13.6490   -4.7520  -45.7370 O.3   311  TD3311     -0.1145
     14  O18      -10.9950   -4.2320  -45.8140 O.2   311  TD3311     -0.2224
     15  O19      -12.3940   -3.6650  -43.8060 O.3   311  TD3311     -0.1145
@<TRIPOS>BOND
     1    14    12    2
     2    13    12    1
     3     7     6    1
     4     6     5    1
     5    12    11    1
     6    12    15    1
     7    11    10    1
     8     5     4    2
     9     4     3    1
    10    10     8    1
    11     9     8    2
    12     8     2   am
    13     2     3    1
    14     2     1    1
