@<TRIPOS>MOLECULE
3n9s_TD4_A_1.pdb
 19 18 0 0 0
SMALL
GASTEIGER

@<TRIPOS>ATOM
      1  O01       -7.6710   24.0270  -22.0060 O.3   308  TD4308     -0.4194
      2  N02       -7.1370   24.6770  -23.1250 N.am  308  TD4308     -0.2779
      3  C03       -7.9720   24.7640  -24.2950 C.3   308  TD4308      0.1235
      4  C04       -9.0510   25.8260  -24.1720 C.2   308  TD4308     -0.0063
      5  C05      -10.4790   25.3260  -24.1790 C.2   308  TD4308      0.0034
      6  C06      -11.5430   26.3810  -24.4240 C.3   308  TD4308      0.1797
      7  O07      -12.3390   26.1670  -25.5430 O.3   308  TD4308     -0.2654
      8  P08      -13.9470   26.4420  -25.4200 P.3   308  TD4308      0.5329
      9  O09      -14.7120   25.4520  -26.4710 O.2   308  TD4308     -0.2224
     10  O10      -14.4280   26.1190  -23.8890 O.3   308  TD4308     -0.1145
     11  O11      -14.2180   27.8400  -25.7220 O.3   308  TD4308     -0.1145
     12  C12       -6.0840   25.6510  -22.9610 C.2   308  TD4308      0.0987
     13  O13       -5.4490   25.6780  -21.9480 O.2   308  TD4308     -0.5387
     14  C14       -5.6390   26.4360  -24.1980 C.3   308  TD4308      0.2026
     15  O15       -4.7740   27.5020  -23.9520 O.3   308  TD4308     -0.2633
     16  P16       -4.5660   28.7170  -25.0510 P.3   308  TD4308      0.5330
     17  O17       -3.1920   29.4910  -24.6150 O.3   308  TD4308     -0.1145
     18  O18       -5.8480   29.7340  -25.0370 O.3   308  TD4308     -0.1145
     19  O19       -4.3660   28.1500  -26.3760 O.2   308  TD4308     -0.2224
@<TRIPOS>BOND
     1     9     8    2
     2    19    16    2
     3    11     8    1
     4     7     8    1
     5     7     6    1
     6     8    10    1
     7    16    18    1
     8    16    17    1
     9    16    15    1
    10     6     5    1
    11     3     4    1
    12     3     2    1
    13    14    15    1
    14    14    12    1
    15     5     4    2
    16     2    12   am
    17     2     1    1
    18    12    13    2
