@<TRIPOS>MOLECULE
3n9y_HEM_A_1.pdb
 43 50 0 0 0
SMALL
GASTEIGER

@<TRIPOS>ATOM
      1  CHA       12.2650    0.4380   17.9820 C.2   601  HEM601      0.0000
      2  CHB       12.6340    0.6690   13.0960 C.2   601  HEM601      0.0000
      3  CHC       16.4550    3.5970   13.6100 C.2   601  HEM601      0.0000
      4  CHD       16.4950    2.7900   18.3950 C.2   601  HEM601      0.0000
      5  C1A       12.0430    0.2830   16.6270 C.ar  601  HEM601      0.0000
      6  C2A       10.9190   -0.4350   16.0510 C.ar  601  HEM601      0.0000
      7  C3A       11.0310   -0.3710   14.7230 C.ar  601  HEM601      0.0000
      8  C4A       12.2110    0.3990   14.3880 C.ar  601  HEM601      0.0000
      9  CMA       10.0680   -0.9880   13.6880 C.3   601  HEM601      0.0000
     10  CAA        9.7780   -1.1450   16.8390 C.3   601  HEM601      0.0000
     11  CBA        8.6650   -0.0900   17.0200 C.3   601  HEM601      0.0000
     12  CGA        7.3530   -0.6480   17.5720 C.2   601  HEM601      0.0000
     13  O1A        7.3460   -1.7210   18.2300 O.co2 601  HEM601      0.0000
     14  O2A        6.2840   -0.0170   17.3480 O.co2 601  HEM601      0.0000
     15  C1B       13.6830    1.5180   12.7810 C.2   601  HEM601      0.0000
     16  C2B       14.0470    2.0230   11.4720 C.2   601  HEM601      0.0000
     17  C3B       15.1190    2.8250   11.6420 C.2   601  HEM601      0.0000
     18  C4B       15.4430    2.8630   13.0490 C.2   601  HEM601      0.0000
     19  CMB       13.3140    1.6690   10.1430 C.3   601  HEM601      0.0000
     20  CAB       15.9280    3.6400   10.6090 C.2   601  HEM601      0.0000
     21  CBB       15.9160    3.3760    9.3020 C.2   601  HEM601      0.0000
     22  C1C       16.7900    3.6530   14.9380 C.ar  601  HEM601      0.0000
     23  C2C       17.8450    4.4510   15.5070 C.ar  601  HEM601      0.0000
     24  C3C       17.8500    4.2130   16.8180 C.ar  601  HEM601      0.0000
     25  C4C       16.8000    3.2800   17.1430 C.ar  601  HEM601      0.0000
     26  CMC       18.8040    5.4140   14.7440 C.3   601  HEM601      0.0000
     27  CAC       18.8160    4.8620   17.8160 C.2   601  HEM601      0.0000
     28  CBC       18.3500    5.8360   18.5930 C.2   601  HEM601      0.0000
     29  C1D       15.3800    2.0720   18.7540 C.2   601  HEM601      0.0000
     30  C2D       15.0650    1.6510   20.1030 C.2   601  HEM601      0.0000
     31  C3D       13.7450    0.9020   19.9770 C.2   601  HEM601      0.0000
     32  C4D       13.3940    0.9680   18.5700 C.2   601  HEM601      0.0000
     33  CMD       15.9180    1.8810   21.3790 C.3   601  HEM601      0.0000
     34  CAD       12.9260    0.2650   21.1230 C.3   601  HEM601      0.0000
     35  CBD       12.0930    1.4250   21.6780 C.3   601  HEM601      0.0000
     36  CGD       11.2460    1.0220   22.8790 C.2   601  HEM601      0.0000
     37  O1D       10.7730    1.9100   23.6240 O.co2 601  HEM601      0.0000
     38  O2D       11.0130   -0.1810   23.1180 O.co2 601  HEM601      0.0000
     39  NA        12.7910    0.8170   15.5830 N.ar  601  HEM601      0.0000
     40  NB        14.5310    2.0850   13.7180 N.2   601  HEM601      0.0000
     41  NC        16.1460    2.9830   15.9750 N.ar  601  HEM601      0.0000
     42  ND        14.3600    1.6850   17.8930 N.2   601  HEM601      0.0000
     43 FE         14.4010    1.9580   15.7800 Fe    601  HEM601      0.0000
@<TRIPOS>BOND
     1    21    20    2
     2    19    16    1
     3    20    17    1
     4    16    17    2
     5    16    15    1
     6    17    18    1
     7    15     2    1
     8    15    40    2
     9    18     3    2
    10    18    40    1
    11     2     8    2
    12     3    22    1
    13     9     7    1
    14    40    43    1
    15     8     7   ar
    16     8    39   ar
    17     7     6   ar
    18    26    23    1
    19    22    23   ar
    20    22    41   ar
    21    23    24   ar
    22    39    43    1
    23    39     5   ar
    24    43    41    1
    25    43    42    1
    26    41    25   ar
    27     6     5   ar
    28     6    10    1
    29     5     1    2
    30    24    25   ar
    31    24    27    1
    32    10    11    1
    33    11    12    1
    34    25     4    1
    35    14    12   ar
    36    12    13   ar
    37    27    28    2
    38    42    32    2
    39    42    29    1
    40     1    32    1
    41     4    29    2
    42    32    31    1
    43    29    30    1
    44    31    30    2
    45    31    34    1
    46    30    33    1
    47    34    35    1
    48    35    36    1
    49    36    38   ar
    50    36    37   ar
