@<TRIPOS>MOLECULE
3n9y_CLR_A_1.pdb
 28 31 0 0 0
SMALL
GASTEIGER

@<TRIPOS>ATOM
      1  C1        12.9680   -9.4990   14.3130 C.3   602  CLR602      0.0063
      2  C2        12.0640  -10.6930   13.9290 C.3   602  CLR602      0.0335
      3  C3        11.3470  -11.2470   15.1660 C.3   602  CLR602      0.1560
      4  C4        10.4300  -10.1580   15.7210 C.3   602  CLR602      0.0545
      5  C5        11.2390   -8.9060   15.9780 C.2   602  CLR602     -0.0466
      6  C6        11.0940   -8.3390   17.1910 C.2   602  CLR602     -0.0345
      7  C7        11.9150   -7.1610   17.6640 C.3   602  CLR602      0.0254
      8  C8        12.4320   -6.3320   16.4770 C.3   602  CLR602      0.0046
      9  C9        13.1120   -7.2760   15.4780 C.3   602  CLR602      0.0038
     10  C10       12.1490   -8.3410   14.8970 C.3   602  CLR602      0.0150
     11  C11       13.8950   -6.5100   14.3810 C.3   602  CLR602      0.0003
     12  C12       14.8730   -5.4860   14.9430 C.3   602  CLR602      0.0000
     13  C13       14.1380   -4.4660   15.8310 C.3   602  CLR602      0.0000
     14  C14       13.4570   -5.2680   16.9330 C.3   602  CLR602      0.0003
     15  C15       13.0520   -4.2450   17.9890 C.3   602  CLR602      0.0000
     16  C16       14.2330   -3.2820   17.9710 C.3   602  CLR602      0.0000
     17  C17       15.0620   -3.6070   16.7050 C.3   602  CLR602      0.0000
     18  C18       13.1680   -3.5590   15.0330 C.3   602  CLR602      0.0000
     19  C19       11.2950   -7.7340   13.7850 C.3   602  CLR602      0.0040
     20  C20       15.6950   -2.3250   16.1080 C.3   602  CLR602      0.0000
     21  C21       16.5760   -2.5710   14.8670 C.3   602  CLR602      0.0000
     22  C22       16.4970   -1.5460   17.1610 C.3   602  CLR602      0.0000
     23  C23       17.6570   -2.3600   17.7500 C.3   602  CLR602      0.0000
     24  C24       18.3240   -1.7110   18.9680 C.3   602  CLR602      0.0000
     25  C25       19.2200   -2.6730   19.7520 C.3   602  CLR602      0.0000
     26  C26       19.7100   -2.0240   21.0510 C.3   602  CLR602      0.0000
     27  C27       20.4270   -3.1100   18.9160 C.3   602  CLR602      0.0000
     28  O1        10.5640  -12.4210   14.8650 O.3   602  CLR602     -0.2228
@<TRIPOS>BOND
     1    19    10    1
     2     2     1    1
     3     2     3    1
     4     1    10    1
     5    11    12    1
     6    11     9    1
     7    28     3    1
     8    21    20    1
     9    10     9    1
    10    10     5    1
    11    12    13    1
    12    18    13    1
    13     3     4    1
    14     9     8    1
    15     4     5    1
    16    13    17    1
    17    13    14    1
    18     5     6    2
    19    20    17    1
    20    20    22    1
    21     8    14    1
    22     8     7    1
    23    17    16    1
    24    14    15    1
    25    22    23    1
    26     6     7    1
    27    23    24    1
    28    16    15    1
    29    27    25    1
    30    24    25    1
    31    25    26    1
