@<TRIPOS>MOLECULE
3n9z_HC9_A_1.pdb
 29 32 0 0 0
SMALL
GASTEIGER

@<TRIPOS>ATOM
      1  C1        13.0220   -9.8640   14.5000 C.3   602  HC9602      0.0063
      2  O1        10.6500  -12.7480   15.0560 O.3   602  HC9602     -0.2228
      3  C2        12.1000  -11.0360   14.1290 C.3   602  HC9602      0.0335
      4  O2        16.3750   -0.3120   16.3580 O.3   602  HC9602     -0.2232
      5  C3        11.4190  -11.5850   15.3860 C.3   602  HC9602      0.1560
      6  C4        10.5290  -10.4980   15.9960 C.3   602  HC9602      0.0545
      7  C5        11.3580   -9.2410   16.2090 C.2   602  HC9602     -0.0466
      8  C6        11.2890   -8.6560   17.4150 C.2   602  HC9602     -0.0345
      9  C7        12.1880   -7.5180   17.8330 C.3   602  HC9602      0.0254
     10  C8        12.5690   -6.6750   16.6170 C.3   602  HC9602      0.0046
     11  C9        13.2220   -7.6230   15.5980 C.3   602  HC9602      0.0038
     12  C10       12.2290   -8.6850   15.0890 C.3   602  HC9602      0.0150
     13  C11       13.9480   -6.8810   14.4530 C.3   602  HC9602      0.0003
     14  C12       14.9130   -5.8060   14.9690 C.3   602  HC9602      0.0000
     15  C13       14.1840   -4.7850   15.8430 C.3   602  HC9602      0.0001
     16  C14       13.5510   -5.5600   16.9980 C.3   602  HC9602      0.0003
     17  C15       13.1220   -4.5150   18.0190 C.3   602  HC9602      0.0000
     18  C16       14.2300   -3.4720   17.8960 C.3   602  HC9602      0.0001
     19  C17       15.0800   -3.8480   16.6680 C.3   602  HC9602      0.0024
     20  C18       13.1810   -3.9780   14.9970 C.3   602  HC9602      0.0000
     21  C19       11.3190   -8.0620   14.0240 C.3   602  HC9602      0.0040
     22  C20       15.6560   -2.5970   15.9640 C.3   602  HC9602      0.0304
     23  C21       16.5770   -2.9300   14.7790 C.3   602  HC9602      0.0026
     24  C22       16.3320   -1.6270   16.9480 C.3   602  HC9602      0.1519
     25  C23       17.7340   -2.0610   17.3610 C.3   602  HC9602      0.0329
     26  C24       18.0760   -1.6350   18.7880 C.3   602  HC9602      0.0026
     27  C25       19.0050   -2.5920   19.5380 C.3   602  HC9602      0.0001
     28  C26       19.5410   -1.9150   20.8010 C.3   602  HC9602      0.0000
     29  C27       20.1850   -3.0790   18.7060 C.3   602  HC9602      0.0000
@<TRIPOS>BOND
     1    21    12    1
     2     3     1    1
     3     3     5    1
     4    13    14    1
     5    13    11    1
     6     1    12    1
     7    23    22    1
     8    14    15    1
     9    20    15    1
    10     2     5    1
    11    12    11    1
    12    12     7    1
    13     5     6    1
    14    11    10    1
    15    15    19    1
    16    15    16    1
    17    22    19    1
    18    22    24    1
    19     6     7    1
    20     7     8    2
    21     4    24    1
    22    10    16    1
    23    10     9    1
    24    19    18    1
    25    24    25    1
    26    16    17    1
    27    25    26    1
    28     8     9    1
    29    18    17    1
    30    29    27    1
    31    26    27    1
    32    27    28    1
