@<TRIPOS>MOLECULE
3n9z_HEM_A_1.pdb
 43 50 0 0 0
SMALL
GASTEIGER

@<TRIPOS>ATOM
      1  CHA       12.5340    0.1280   18.2560 C.2   601  HEM601      0.0000
      2  CHB       12.9330    0.3850   13.4000 C.2   601  HEM601      0.0000
      3  CHC       16.7570    3.2760   13.8870 C.2   601  HEM601      0.0000
      4  CHD       16.7530    2.5460   18.6780 C.2   601  HEM601      0.0000
      5  C1A       12.2930   -0.0350   16.9050 C.ar  601  HEM601      0.0000
      6  C2A       11.1770   -0.7520   16.3190 C.ar  601  HEM601      0.0000
      7  C3A       11.2910   -0.6730   14.9900 C.ar  601  HEM601      0.0000
      8  C4A       12.4760    0.0930   14.6750 C.ar  601  HEM601      0.0000
      9  CMA       10.3340   -1.2980   13.9540 C.3   601  HEM601      0.0000
     10  CAA       10.0390   -1.4640   17.0970 C.3   601  HEM601      0.0000
     11  CBA        8.9010   -0.4440   17.2470 C.3   601  HEM601      0.0000
     12  CGA        7.6260   -1.0460   17.8290 C.2   601  HEM601      0.0000
     13  O1A        7.6690   -2.1050   18.5140 O.co2 601  HEM601      0.0000
     14  O2A        6.5420   -0.4540   17.6130 O.co2 601  HEM601      0.0000
     15  C1B       13.9730    1.2240   13.0740 C.2   601  HEM601      0.0000
     16  C2B       14.3640    1.7050   11.7560 C.2   601  HEM601      0.0000
     17  C3B       15.4370    2.5070   11.9130 C.2   601  HEM601      0.0000
     18  C4B       15.7360    2.5540   13.3230 C.2   601  HEM601      0.0000
     19  CMB       13.6280    1.3420   10.4420 C.3   601  HEM601      0.0000
     20  CAB       16.2770    3.3030   10.8770 C.2   601  HEM601      0.0000
     21  CBB       16.1520    3.1900    9.5490 C.2   601  HEM601      0.0000
     22  C1C       17.0690    3.3780   15.2210 C.ar  601  HEM601      0.0000
     23  C2C       18.0650    4.2530   15.7860 C.ar  601  HEM601      0.0000
     24  C3C       18.0640    4.0500   17.1040 C.ar  601  HEM601      0.0000
     25  C4C       17.0660    3.0460   17.4280 C.ar  601  HEM601      0.0000
     26  CMC       18.9620    5.2490   15.0000 C.3   601  HEM601      0.0000
     27  CAC       18.9790    4.7780   18.1010 C.2   601  HEM601      0.0000
     28  CBC       18.4590    5.6420   18.9730 C.2   601  HEM601      0.0000
     29  C1D       15.6330    1.8270   19.0390 C.2   601  HEM601      0.0000
     30  C2D       15.2900    1.4290   20.3920 C.2   601  HEM601      0.0000
     31  C3D       13.9710    0.6740   20.2580 C.2   601  HEM601      0.0000
     32  C4D       13.6440    0.6920   18.8460 C.2   601  HEM601      0.0000
     33  CMD       16.0770    1.6920   21.7020 C.3   601  HEM601      0.0000
     34  CAD       13.1610    0.0510   21.4160 C.3   601  HEM601      0.0000
     35  CBD       12.3470    1.1930   22.0230 C.3   601  HEM601      0.0000
     36  CGD       11.4530    0.7100   23.1570 C.2   601  HEM601      0.0000
     37  O1D       11.0220    1.5710   23.9530 O.co2 601  HEM601      0.0000
     38  O2D       11.1650   -0.5140   23.2690 O.co2 601  HEM601      0.0000
     39  NA        13.0440    0.4840   15.8690 N.ar  601  HEM601      0.0000
     40  NB        14.8240    1.7760   13.9970 N.2   601  HEM601      0.0000
     41  NC        16.4690    2.6780   16.2500 N.ar  601  HEM601      0.0000
     42  ND        14.6400    1.3770   18.1710 N.2   601  HEM601      0.0000
     43 FE         14.6940    1.6090   16.0620 Fe    601  HEM601      0.0000
@<TRIPOS>BOND
     1    21    20    2
     2    19    16    1
     3    20    17    1
     4    16    17    2
     5    16    15    1
     6    17    18    1
     7    15     2    1
     8    15    40    2
     9    18     3    2
    10    18    40    1
    11     2     8    2
    12     3    22    1
    13     9     7    1
    14    40    43    1
    15     8     7   ar
    16     8    39   ar
    17     7     6   ar
    18    26    23    1
    19    22    23   ar
    20    22    41   ar
    21    23    24   ar
    22    39    43    1
    23    39     5   ar
    24    43    41    1
    25    43    42    1
    26    41    25   ar
    27     6     5   ar
    28     6    10    1
    29     5     1    2
    30    10    11    1
    31    24    25   ar
    32    24    27    1
    33    11    12    1
    34    25     4    1
    35    14    12   ar
    36    12    13   ar
    37    27    28    2
    38    42    32    2
    39    42    29    1
    40     1    32    1
    41     4    29    2
    42    32    31    1
    43    29    30    1
    44    31    30    2
    45    31    34    1
    46    30    33    1
    47    34    35    1
    48    35    36    1
    49    36    38   ar
    50    36    37   ar
