@<TRIPOS>MOLECULE
3na0_2DC_A_1.pdb
 30 33 0 0 0
SMALL
GASTEIGER

@<TRIPOS>ATOM
      1  C1       -36.9620   -9.1840   56.3260 C.3   602  2DC602      0.0063
      2  O1       -39.2690  -12.1190   56.8370 O.3   602  2DC602     -0.2228
      3  C2       -37.8000  -10.4080   55.9690 C.3   602  2DC602      0.0335
      4  O2       -34.8960   -1.1490   57.4470 O.3   602  2DC602     -0.2231
      5  C3       -38.5280  -10.9440   57.1930 C.3   602  2DC602      0.1560
      6  O3       -32.9170   -0.1740   58.6460 O.3   602  2DC602     -0.2205
      7  C4       -39.4760   -9.8710   57.7220 C.3   602  2DC602      0.0545
      8  C5       -38.7370   -8.5640   57.9400 C.2   602  2DC602     -0.0466
      9  C6       -38.9570   -7.9100   59.0990 C.2   602  2DC602     -0.0345
     10  C7       -38.2620   -6.6350   59.5160 C.3   602  2DC602      0.0254
     11  C8       -37.5480   -5.9550   58.3470 C.3   602  2DC602      0.0046
     12  C9       -36.8690   -6.9700   57.4120 C.3   602  2DC602      0.0038
     13  C10      -37.8230   -8.0340   56.8560 C.3   602  2DC602      0.0150
     14  C11      -36.0760   -6.2650   56.2960 C.3   602  2DC602      0.0003
     15  C12      -35.0930   -5.2360   56.8630 C.3   602  2DC602      0.0001
     16  C13      -35.8080   -4.1980   57.7310 C.3   602  2DC602      0.0024
     17  C14      -36.4970   -4.9650   58.8390 C.3   602  2DC602      0.0004
     18  C15      -36.9290   -3.9060   59.8440 C.3   602  2DC602      0.0001
     19  C16      -35.7820   -2.9020   59.7940 C.3   602  2DC602      0.0025
     20  C17      -34.8920   -3.3450   58.6260 C.3   602  2DC602      0.0305
     21  C18      -36.7900   -3.3600   56.8930 C.3   602  2DC602      0.0001
     22  C19      -38.7270   -7.4590   55.7480 C.3   602  2DC602      0.0040
     23  C20      -34.0690   -2.1830   58.0200 C.3   602  2DC602      0.1544
     24  C21      -33.0900   -2.6630   56.9480 C.3   602  2DC602      0.0356
     25  C22      -33.3200   -1.4680   59.1440 C.3   602  2DC602      0.1796
     26  C23      -32.1380   -2.2710   59.6810 C.3   602  2DC602      0.0355
     27  C24      -31.5840   -1.6680   60.9650 C.3   602  2DC602      0.0027
     28  C25      -30.6620   -2.6350   61.7080 C.3   602  2DC602      0.0001
     29  C26      -30.2950   -2.0530   63.0670 C.3   602  2DC602      0.0000
     30  C27      -29.4070   -2.9310   60.8930 C.3   602  2DC602      0.0000
@<TRIPOS>BOND
     1    22    13    1
     2     3     1    1
     3     3     5    1
     4    14    15    1
     5    14    12    1
     6     1    13    1
     7     2     5    1
     8    13    12    1
     9    13     8    1
    10    15    16    1
    11    21    16    1
    12    24    23    1
    13     5     7    1
    14    12    11    1
    15     4    23    1
    16     7     8    1
    17    16    20    1
    18    16    17    1
    19     8     9    2
    20    23    20    1
    21    23    25    1
    22    11    17    1
    23    11    10    1
    24    20    19    1
    25     6    25    1
    26    17    18    1
    27     9    10    1
    28    25    26    1
    29    26    27    1
    30    19    18    1
    31    30    28    1
    32    27    28    1
    33    28    29    1
