@<TRIPOS>MOLECULE
3na0_HEM_A_1.pdb
 43 50 0 0 0
SMALL
GASTEIGER

@<TRIPOS>ATOM
      1  CHA      -37.8060    0.5930   60.0360 C.2   601  HEM601      0.0000
      2  CHB      -37.4870    0.8510   55.1530 C.2   601  HEM601      0.0000
      3  CHC      -33.6640    3.7160   55.6560 C.2   601  HEM601      0.0000
      4  CHD      -33.5050    2.8800   60.4430 C.2   601  HEM601      0.0000
      5  C1A      -38.0420    0.4500   58.6760 C.ar  601  HEM601      0.0000
      6  C2A      -39.1660   -0.2720   58.0900 C.ar  601  HEM601      0.0000
      7  C3A      -39.0800   -0.1970   56.7660 C.ar  601  HEM601      0.0000
      8  C4A      -37.9010    0.5730   56.4430 C.ar  601  HEM601      0.0000
      9  CMA      -40.0440   -0.8200   55.7400 C.3   601  HEM601      0.0000
     10  CAA      -40.2800   -0.9890   58.8820 C.3   601  HEM601      0.0000
     11  CBA      -41.4060    0.0100   59.0760 C.3   601  HEM601      0.0000
     12  CGA      -42.6370   -0.6360   59.6580 C.2   601  HEM601      0.0000
     13  O1A      -42.5180   -1.7170   60.2990 O.co2 601  HEM601      0.0000
     14  O2A      -43.7380   -0.0520   59.4840 O.co2 601  HEM601      0.0000
     15  C1B      -36.4490    1.6830   54.8290 C.2   601  HEM601      0.0000
     16  C2B      -36.0740    2.1640   53.5130 C.2   601  HEM601      0.0000
     17  C3B      -35.0020    2.9680   53.6670 C.2   601  HEM601      0.0000
     18  C4B      -34.6860    3.0070   55.0790 C.2   601  HEM601      0.0000
     19  CMB      -36.8330    1.8000   52.2120 C.3   601  HEM601      0.0000
     20  CAB      -34.1950    3.7600   52.6080 C.2   601  HEM601      0.0000
     21  CBB      -34.5150    3.7280   51.3120 C.2   601  HEM601      0.0000
     22  C1C      -33.3060    3.7760   56.9830 C.ar  601  HEM601      0.0000
     23  C2C      -32.2480    4.5980   57.5240 C.ar  601  HEM601      0.0000
     24  C3C      -32.1960    4.3680   58.8350 C.ar  601  HEM601      0.0000
     25  C4C      -33.2160    3.4010   59.1880 C.ar  601  HEM601      0.0000
     26  CMC      -31.3610    5.5760   56.7060 C.3   601  HEM601      0.0000
     27  CAC      -31.2230    5.0630   59.8010 C.2   601  HEM601      0.0000
     28  CBC      -31.7000    6.0240   60.6060 C.2   601  HEM601      0.0000
     29  C1D      -34.6500    2.1840   60.8280 C.2   601  HEM601      0.0000
     30  C2D      -35.0100    1.7670   62.1740 C.2   601  HEM601      0.0000
     31  C3D      -36.3510    1.0640   62.0430 C.2   601  HEM601      0.0000
     32  C4D      -36.6780    1.1040   60.6340 C.2   601  HEM601      0.0000
     33  CMD      -34.2570    1.9680   63.5060 C.3   601  HEM601      0.0000
     34  CAD      -37.1480    0.4640   63.2180 C.3   601  HEM601      0.0000
     35  CBD      -37.9650    1.6220   63.7930 C.3   601  HEM601      0.0000
     36  CGD      -38.8880    1.2120   64.9180 C.2   601  HEM601      0.0000
     37  O1D      -39.4160    2.1220   65.6080 O.co2 601  HEM601      0.0000
     38  O2D      -39.1240   -0.0040   65.1340 O.co2 601  HEM601      0.0000
     39  NA       -37.3030    0.9710   57.6350 N.ar  601  HEM601      0.0000
     40  NB       -35.5870    2.2220   55.7520 N.2   601  HEM601      0.0000
     41  NC       -33.8800    3.0750   58.0220 N.ar  601  HEM601      0.0000
     42  ND       -35.6700    1.7780   59.9690 N.2   601  HEM601      0.0000
     43 FE        -35.6640    2.0460   57.8330 Fe    601  HEM601      0.0000
@<TRIPOS>BOND
     1    21    20    2
     2    19    16    1
     3    20    17    1
     4    16    17    2
     5    16    15    1
     6    17    18    1
     7    15     2    1
     8    15    40    2
     9    18     3    2
    10    18    40    1
    11     2     8    2
    12     3    22    1
    13     9     7    1
    14    40    43    1
    15     8     7   ar
    16     8    39   ar
    17    26    23    1
    18     7     6   ar
    19    22    23   ar
    20    22    41   ar
    21    23    24   ar
    22    39    43    1
    23    39     5   ar
    24    43    41    1
    25    43    42    1
    26    41    25   ar
    27     6     5   ar
    28     6    10    1
    29     5     1    2
    30    24    25   ar
    31    24    27    1
    32    10    11    1
    33    11    12    1
    34    25     4    1
    35    14    12   ar
    36    12    13   ar
    37    27    28    2
    38    42    32    2
    39    42    29    1
    40     1    32    1
    41     4    29    2
    42    32    31    1
    43    29    30    1
    44    31    30    2
    45    31    34    1
    46    30    33    1
    47    34    35    1
    48    35    36    1
    49    36    38   ar
    50    36    37   ar
