@<TRIPOS>MOLECULE
3na1_HCD_A_1.pdb
 29 32 0 0 0
SMALL
GASTEIGER

@<TRIPOS>ATOM
      1  C1       -36.6090   -9.6770   56.3910 C.3   602  HCD602      0.0063
      2  O1       -39.0230  -12.5670   56.8650 O.3   602  HCD602     -0.2228
      3  C2       -37.4760  -10.8890   56.0130 C.3   602  HCD602      0.0335
      4  O2       -34.6270   -1.5740   57.8570 O.3   602  HCD602     -0.2257
      5  C3       -38.2630  -11.4030   57.2240 C.3   602  HCD602      0.1560
      6  C4       -39.1820  -10.2810   57.7290 C.3   602  HCD602      0.0545
      7  C5       -38.3350   -9.0520   58.0150 C.2   602  HCD602     -0.0466
      8  C6       -38.4130   -8.5160   59.2520 C.2   602  HCD602     -0.0345
      9  C7       -37.6930   -7.2570   59.6890 C.3   602  HCD602      0.0254
     10  C8       -37.1190   -6.4730   58.5100 C.3   602  HCD602      0.0046
     11  C9       -36.4530   -7.4230   57.5000 C.3   602  HCD602      0.0038
     12  C10      -37.4240   -8.4880   56.9320 C.3   602  HCD602      0.0150
     13  C11      -35.6790   -6.6490   56.4130 C.3   602  HCD602      0.0003
     14  C12      -34.7130   -5.5970   56.9850 C.3   602  HCD602      0.0001
     15  C13      -35.4250   -4.6070   57.9140 C.3   602  HCD602      0.0023
     16  C14      -36.1080   -5.4240   59.0040 C.3   602  HCD602      0.0004
     17  C15      -36.5790   -4.3940   60.0300 C.3   602  HCD602      0.0001
     18  C16      -35.4530   -3.3620   60.0150 C.3   602  HCD602      0.0024
     19  C17      -34.5210   -3.7770   58.8580 C.3   602  HCD602      0.0281
     20  C18      -36.4220   -3.7390   57.1150 C.3   602  HCD602      0.0001
     21  C19      -38.2890   -7.8700   55.8190 C.3   602  HCD602      0.0040
     22  C20      -33.7160   -2.5780   58.3090 C.3   602  HCD602      0.1266
     23  C21      -32.8080   -2.9540   57.1350 C.3   602  HCD602      0.0329
     24  C22      -32.8730   -1.8940   59.4040 C.3   602  HCD602      0.0304
     25  C23      -31.8260   -2.7890   60.0860 C.3   602  HCD602      0.0025
     26  C24      -31.1830   -2.0880   61.2780 C.3   602  HCD602      0.0001
     27  C25      -30.2560   -2.9960   62.0820 C.3   602  HCD602      0.0000
     28  C26      -29.6260   -2.2050   63.2260 C.3   602  HCD602      0.0000
     29  C27      -29.1670   -3.6380   61.2330 C.3   602  HCD602      0.0000
@<TRIPOS>BOND
     1    21    12    1
     2     3     1    1
     3     3     5    1
     4     1    12    1
     5    13    14    1
     6    13    11    1
     7     2     5    1
     8    12    11    1
     9    12     7    1
    10    14    15    1
    11    20    15    1
    12    23    22    1
    13     5     6    1
    14    11    10    1
    15     6     7    1
    16     4    22    1
    17    15    19    1
    18    15    16    1
    19     7     8    2
    20    22    19    1
    21    22    24    1
    22    10    16    1
    23    10     9    1
    24    19    18    1
    25    16    17    1
    26     8     9    1
    27    24    25    1
    28    18    17    1
    29    25    26    1
    30    29    27    1
    31    26    27    1
    32    27    28    1
