@<TRIPOS>MOLECULE
3na1_HEM_A_1.pdb
 43 50 0 0 0
SMALL
GASTEIGER

@<TRIPOS>ATOM
      1  CHA      -37.1110    0.4520   60.1470 C.2   601  HEM601      0.0000
      2  CHB      -36.7740    0.9300   55.3020 C.2   601  HEM601      0.0000
      3  CHC      -33.0450    4.0070   55.7820 C.2   601  HEM601      0.0000
      4  CHD      -33.0100    3.1140   60.5440 C.2   601  HEM601      0.0000
      5  C1A      -37.3680    0.3490   58.7910 C.ar  601  HEM601      0.0000
      6  C2A      -38.4810   -0.3610   58.1770 C.ar  601  HEM601      0.0000
      7  C3A      -38.3820   -0.2190   56.8480 C.ar  601  HEM601      0.0000
      8  C4A      -37.2040    0.5730   56.5690 C.ar  601  HEM601      0.0000
      9  CMA      -39.3390   -0.7990   55.7790 C.3   601  HEM601      0.0000
     10  CAA      -39.6030   -1.1130   58.9320 C.3   601  HEM601      0.0000
     11  CBA      -40.7680   -0.1230   59.0680 C.3   601  HEM601      0.0000
     12  CGA      -42.0110   -0.7480   59.6580 C.2   601  HEM601      0.0000
     13  O1A      -41.9170   -1.8080   60.3370 O.co2 601  HEM601      0.0000
     14  O2A      -43.1180   -0.1710   59.4800 O.co2 601  HEM601      0.0000
     15  C1B      -35.7570    1.8070   54.9960 C.2   601  HEM601      0.0000
     16  C2B      -35.3640    2.2530   53.6680 C.2   601  HEM601      0.0000
     17  C3B      -34.3330    3.1040   53.8150 C.2   601  HEM601      0.0000
     18  C4B      -34.0420    3.2190   55.2310 C.2   601  HEM601      0.0000
     19  CMB      -36.0600    1.8100   52.3530 C.3   601  HEM601      0.0000
     20  CAB      -33.5270    3.8710   52.7380 C.2   601  HEM601      0.0000
     21  CBB      -33.9090    3.9430   51.4590 C.2   601  HEM601      0.0000
     22  C1C      -32.7070    4.0740   57.1150 C.ar  601  HEM601      0.0000
     23  C2C      -31.6870    4.9100   57.7140 C.ar  601  HEM601      0.0000
     24  C3C      -31.6830    4.6520   59.0290 C.ar  601  HEM601      0.0000
     25  C4C      -32.6980    3.6580   59.3130 C.ar  601  HEM601      0.0000
     26  CMC      -30.7640    5.9190   56.9730 C.3   601  HEM601      0.0000
     27  CAC      -30.7610    5.3230   60.0640 C.2   601  HEM601      0.0000
     28  CBC      -31.2720    6.2380   60.8960 C.2   601  HEM601      0.0000
     29  C1D      -34.0870    2.3120   60.8850 C.2   601  HEM601      0.0000
     30  C2D      -34.3810    1.8550   62.2300 C.2   601  HEM601      0.0000
     31  C3D      -35.6530    1.0280   62.1170 C.2   601  HEM601      0.0000
     32  C4D      -36.0110    1.0620   60.7150 C.2   601  HEM601      0.0000
     33  CMD      -33.5860    2.1230   63.5260 C.3   601  HEM601      0.0000
     34  CAD      -36.3860    0.3360   63.2870 C.3   601  HEM601      0.0000
     35  CBD      -37.2680    1.4370   63.8760 C.3   601  HEM601      0.0000
     36  CGD      -38.1190    0.9770   65.0400 C.2   601  HEM601      0.0000
     37  O1D      -38.6310    1.8580   65.7810 O.co2 601  HEM601      0.0000
     38  O2D      -38.3090   -0.2550   65.2340 O.co2 601  HEM601      0.0000
     39  NA       -36.6250    0.9250   57.7800 N.ar  601  HEM601      0.0000
     40  NB       -34.9320    2.4150   55.9240 N.2   601  HEM601      0.0000
     41  NC       -33.3120    3.3480   58.1250 N.ar  601  HEM601      0.0000
     42  ND       -35.0760    1.8310   60.0310 N.2   601  HEM601      0.0000
     43 FE        -35.0480    2.1620   57.9590 Fe    601  HEM601      0.0000
@<TRIPOS>BOND
     1    21    20    2
     2    19    16    1
     3    20    17    1
     4    16    17    2
     5    16    15    1
     6    17    18    1
     7    15     2    1
     8    15    40    2
     9    18     3    2
    10    18    40    1
    11     2     8    2
    12     9     7    1
    13     3    22    1
    14    40    43    1
    15     8     7   ar
    16     8    39   ar
    17     7     6   ar
    18    26    23    1
    19    22    23   ar
    20    22    41   ar
    21    23    24   ar
    22    39    43    1
    23    39     5   ar
    24    43    41    1
    25    43    42    1
    26    41    25   ar
    27     6     5   ar
    28     6    10    1
    29     5     1    2
    30    10    11    1
    31    24    25   ar
    32    24    27    1
    33    11    12    1
    34    25     4    1
    35    14    12   ar
    36    12    13   ar
    37    42    32    2
    38    42    29    1
    39    27    28    2
    40     1    32    1
    41     4    29    2
    42    32    31    1
    43    29    30    1
    44    31    30    2
    45    31    34    1
    46    30    33    1
    47    34    35    1
    48    35    36    1
    49    36    38   ar
    50    36    37   ar
