@<TRIPOS>MOLECULE
3na3_ATP_A_1.pdb
 31 33 0 0 0
SMALL
GASTEIGER

@<TRIPOS>ATOM
      1  PG        18.3260  -25.7430    8.2040 P.3   500  ATP500      0.5373
      2  O1G       19.6770  -25.0680    7.8570 O.3   500  ATP500     -0.1143
      3  O2G       17.3030  -25.2080    7.1240 O.2   500  ATP500     -0.2221
      4  O3G       18.6220  -27.2630    8.1370 O.3   500  ATP500     -0.1143
      5  PB        16.9740  -26.9930   10.6890 P.3   500  ATP500      0.2277
      6  O1B       16.6490  -28.2710    9.9590 O.2   500  ATP500     -0.5168
      7  O2B       16.0360  -26.6290   11.7970 O.3   500  ATP500     -0.4368
      8  O3B       17.5000  -25.6990    9.7090 O.3   500  ATP500     -0.2258
      9  PA        19.6180  -26.4600   11.5120 P.3   500  ATP500      0.2189
     10  O1A       19.8070  -25.8470   10.1470 O.2   500  ATP500     -0.5170
     11  O2A       20.6970  -27.2410   12.1770 O.3   500  ATP500     -0.4371
     12  O3A       18.2910  -27.3930   11.5070 O.3   500  ATP500     -0.2700
     13  O5'       19.1730  -25.2340   12.4720 O.3   500  ATP500     -0.3112
     14  C5'       19.0120  -25.4850   13.8500 C.3   500  ATP500      0.1813
     15  C4'       17.9490  -24.5950   14.4460 C.3   500  ATP500      0.1821
     16  O4'       18.6930  -23.4360   14.7750 O.3   500  ATP500     -0.3135
     17  C3'       16.8360  -24.1360   13.5020 C.3   500  ATP500      0.2184
     18  O3'       15.6180  -24.9080   13.5810 O.3   500  ATP500     -0.2174
     19  C2'       16.6010  -22.7250   13.9880 C.3   500  ATP500      0.2570
     20  O2'       15.7030  -22.6930   15.1150 O.3   500  ATP500     -0.2130
     21  C1'       17.9070  -22.2850   14.5580 C.3   500  ATP500      0.3186
     22  N9        18.5750  -21.3780   13.6180 N.pl3 500  ATP500     -0.1439
     23  C8        19.6570  -21.6750   12.8770 C.3   500  ATP500      0.3377
     24  N7        20.0300  -20.5950   12.1630 N.2   500  ATP500     -0.2095
     25  C5        19.2040  -19.5870   12.4350 C.2   500  ATP500      0.2526
     26  C6        19.0830  -18.1890   12.0020 C.2   500  ATP500      0.4393
     27  N6        19.9240  -17.6580   11.0720 N.pl3 500  ATP500      0.2180
     28  N1        18.0960  -17.4650   12.5570 N.2   500  ATP500      0.0021
     29  C2        17.2400  -17.9870   13.4720 C.3   500  ATP500      0.5254
     30  N3        17.2870  -19.2630   13.9090 N.2   500  ATP500     -0.0055
     31  C4        18.2380  -20.0990   13.4120 C.2   500  ATP500      0.3518
@<TRIPOS>BOND
     1     3     1    2
     2     2     1    1
     3     4     1    1
     4     1     8    1
     5     8     5    1
     6     6     5    2
     7    10     9    2
     8     5    12    1
     9     5     7    1
    10    27    26    1
    11    12     9    1
    12     9    11    1
    13     9    13    1
    14    26    25    1
    15    26    28    2
    16    24    25    2
    17    24    23    1
    18    25    31    1
    19    13    14    1
    20    28    29    1
    21    23    22    1
    22    31    22    1
    23    31    30    2
    24    29    30    1
    25    17    18    1
    26    17    19    1
    27    17    15    1
    28    22    21    1
    29    14    15    1
    30    19    21    1
    31    19    20    1
    32    15    16    1
    33    21    16    1
