@<TRIPOS>MOLECULE
3nae_DTP_A_1.pdb
 30 32 0 0 0
SMALL
GASTEIGER

@<TRIPOS>ATOM
      1  PG         3.2650  -12.5880  -50.9690 P.3   904  DTP904      0.5373
      2  O1G        1.9260  -12.4210  -51.6390 O.3   904  DTP904     -0.1143
      3  O2G        4.4330  -12.6210  -51.9160 O.2   904  DTP904     -0.2221
      4  O3G        3.3090  -13.6860  -49.9420 O.3   904  DTP904     -0.1143
      5  PB         2.6680   -9.8970  -50.0390 P.3   904  DTP904      0.2277
      6  O1B        2.1210   -9.5490  -51.4010 O.2   904  DTP904     -0.5168
      7  O2B        3.5200   -8.8820  -49.3200 O.3   904  DTP904     -0.4368
      8  O3B        3.5700  -11.2380  -50.1300 O.3   904  DTP904     -0.2258
      9  PA        -0.0560  -10.2100  -49.0460 P.3   904  DTP904      0.2189
     10  O1A       -0.5860  -11.0110  -47.8920 O.3   904  DTP904     -0.4371
     11  O2A       -0.5200  -10.5070  -50.4520 O.2   904  DTP904     -0.5170
     12  O3A        1.5410  -10.3530  -48.9820 O.3   904  DTP904     -0.2700
     13  O5'       -0.3090   -8.6640  -48.6910 O.3   904  DTP904     -0.3112
     14  C5'       -0.3020   -7.6510  -49.6970 C.3   904  DTP904      0.1813
     15  C4'        0.2060   -6.3520  -49.0900 C.3   904  DTP904      0.1795
     16  O4'       -0.5850   -5.9710  -47.9540 O.3   904  DTP904     -0.3155
     17  C3'        1.6180   -6.4690  -48.5430 C.3   904  DTP904      0.1883
     18  O3'        2.6400   -6.3510  -49.5350 O.3   904  DTP904     -0.2202
     19  C2'        1.6600   -5.3460  -47.5280 C.3   904  DTP904      0.1151
     20  C1'        0.2460   -5.3750  -46.9500 C.3   904  DTP904      0.2873
     21  N9         0.2990   -6.2420  -45.7440 N.pl3 904  DTP904     -0.1460
     22  C8        -0.1100   -7.5310  -45.6650 C.3   904  DTP904      0.3377
     23  N7         0.0940   -8.0350  -44.4250 N.2   904  DTP904     -0.2095
     24  C5         0.6510   -7.0640  -43.6920 C.2   904  DTP904      0.2526
     25  C6         1.1210   -6.9380  -42.2980 C.2   904  DTP904      0.4393
     26  N6         1.0260   -7.9920  -41.4440 N.pl3 904  DTP904      0.2180
     27  N1         1.6390   -5.7430  -41.9270 N.2   904  DTP904      0.0021
     28  C2         1.7400   -4.6930  -42.7770 C.3   904  DTP904      0.5254
     29  N3         1.3280   -4.7390  -44.0600 N.2   904  DTP904     -0.0055
     30  C4         0.7860   -5.8790  -44.5630 C.2   904  DTP904      0.3518
@<TRIPOS>BOND
     1     3     1    2
     2     2     1    1
     3     6     5    2
     4     1     8    1
     5     1     4    1
     6    11     9    2
     7     8     5    1
     8     5     7    1
     9     5    12    1
    10    14    15    1
    11    14    13    1
    12    18    17    1
    13    15    17    1
    14    15    16    1
    15     9    12    1
    16     9    13    1
    17     9    10    1
    18    17    19    1
    19    16    20    1
    20    19    20    1
    21    20    21    1
    22    21    22    1
    23    21    30    1
    24    22    23    1
    25    30    29    2
    26    30    24    1
    27    23    24    2
    28    29    28    1
    29    24    25    1
    30    28    27    1
    31    25    27    2
    32    25    26    1
