@<TRIPOS>MOLECULE
3nag_ADP_B_1.pdb
 27 29 0 0 0
SMALL
GASTEIGER

@<TRIPOS>ATOM
      1  PB        12.8980   10.0090   36.0140 P.3   300  ADP300      0.5373
      2  O1B       12.4050   10.4360   34.6460 O.2   300  ADP300     -0.2221
      3  O2B       14.1730    9.1930   35.9870 O.3   300  ADP300     -0.1143
      4  O3B       12.9210   11.1330   37.0270 O.3   300  ADP300     -0.1143
      5  PA        10.2020    9.0690   36.1820 P.3   300  ADP300      0.2231
      6  O1A        9.8140   10.5160   35.9540 O.2   300  ADP300     -0.5169
      7  O2A        9.4350    8.2290   37.1790 O.3   300  ADP300     -0.4370
      8  O3A       11.7630    9.0180   36.6170 O.3   300  ADP300     -0.2261
      9  O5'       10.0830    8.2510   34.8750 O.3   300  ADP300     -0.3111
     10  C5'       10.7050    6.9900   34.6570 C.3   300  ADP300      0.1813
     11  C4'        9.6550    5.9460   34.3030 C.3   300  ADP300      0.1821
     12  O4'        9.0090    6.2420   33.0600 O.3   300  ADP300     -0.3135
     13  C3'       10.3090    4.5820   34.1560 C.3   300  ADP300      0.2184
     14  O3'        9.5200    3.6330   34.8680 O.3   300  ADP300     -0.2174
     15  C2'       10.2190    4.2710   32.6800 C.3   300  ADP300      0.2570
     16  O2'       10.1200    2.8580   32.4660 O.3   300  ADP300     -0.2130
     17  C1'        8.9700    5.0430   32.2810 C.3   300  ADP300      0.3186
     18  N9         8.9070    5.3090   30.8220 N.pl3 300  ADP300     -0.1439
     19  C8         9.9000    5.1400   29.9210 C.3   300  ADP300      0.3377
     20  N7         9.4810    5.4530   28.6660 N.2   300  ADP300     -0.2095
     21  C5         8.1880    5.8130   28.7640 C.2   300  ADP300      0.2526
     22  C6         7.1380    6.2550   27.8230 C.2   300  ADP300      0.4393
     23  N6         7.4050    6.3770   26.5000 N.pl3 300  ADP300      0.2180
     24  N1         5.9120    6.5340   28.3330 N.2   300  ADP300      0.0021
     25  C2         5.6380    6.4100   29.6460 C.3   300  ADP300      0.5254
     26  N3         6.5410    6.0140   30.5600 N.2   300  ADP300     -0.0055
     27  C4         7.8080    5.7000   30.1790 C.2   300  ADP300      0.3518
@<TRIPOS>BOND
     1    23    22    1
     2    22    24    2
     3    22    21    1
     4    24    25    1
     5    20    21    2
     6    20    19    1
     7    21    27    1
     8    25    26    1
     9    19    18    1
    10    27    26    2
    11    27    18    1
    12    18    17    1
    13    17    15    1
    14    17    12    1
    15    16    15    1
    16    15    13    1
    17    12    11    1
    18    13    11    1
    19    13    14    1
    20    11    10    1
    21     2     1    2
    22    10     9    1
    23     9     5    1
    24     6     5    2
    25     3     1    1
    26     1     8    1
    27     1     4    1
    28     5     8    1
    29     5     7    1
