@<TRIPOS>MOLECULE
3nak_HEM_A_1.pdb
 43 50 0 0 0
SMALL
GASTEIGER

@<TRIPOS>ATOM
      1  CHA       -3.1400   -1.8520   -5.6500 C.2   3003  HEM3003     0.0000
      2  CHB       -0.2990   -5.7640   -6.0740 C.2   3003  HEM3003     0.0000
      3  CHC        2.9600   -3.5930   -3.2040 C.2   3003  HEM3003     0.0000
      4  CHD        0.4230    0.5480   -3.3210 C.2   3003  HEM3003     0.0000
      5  C1A       -2.6420   -3.0650   -6.0650 C.ar  3003  HEM3003     0.0000
      6  C2A       -3.2580   -3.9490   -7.0360 C.ar  3003  HEM3003     0.0000
      7  C3A       -2.4800   -5.0340   -7.1580 C.ar  3003  HEM3003     0.0000
      8  C4A       -1.3420   -4.8750   -6.2620 C.ar  3003  HEM3003     0.0000
      9  CMA       -2.7400   -6.2440   -8.0860 C.3   3003  HEM3003     0.0000
     10  CAA       -4.5820   -3.6670   -7.7870 C.3   3003  HEM3003     0.0000
     11  CBA       -4.3480   -2.5570   -8.8060 C.3   3003  HEM3003     0.0000
     12  CGA       -5.6360   -2.1430   -9.4760 C.2   3003  HEM3003     0.0000
     13  O1A       -6.4120   -3.0260   -9.9410 O.co2 3003  HEM3003     0.0000
     14  O2A       -5.8790   -0.9080   -9.5600 O.co2 3003  HEM3003     0.0000
     15  C1B        0.8110   -5.5500   -5.2830 C.2   3003  HEM3003     0.0000
     16  C2B        1.8600   -6.5060   -4.9730 C.2   3003  HEM3003     0.0000
     17  C3B        2.7580   -5.9000   -4.1800 C.2   3003  HEM3003     0.0000
     18  C4B        2.3080   -4.5400   -3.9610 C.2   3003  HEM3003     0.0000
     19  CMB        1.9250   -7.9650   -5.4800 C.3   3003  HEM3003     0.0000
     20  CAB        4.0520   -6.5070   -3.5770 C.2   3003  HEM3003     0.0000
     21  CBB        4.6700   -7.5510   -4.1420 C.2   3003  HEM3003     0.0000
     22  C1C        2.5670   -2.2880   -2.9840 C.ar  3003  HEM3003     0.0000
     23  C2C        3.2720   -1.3100   -2.1730 C.ar  3003  HEM3003     0.0000
     24  C3C        2.5730   -0.1590   -2.2020 C.ar  3003  HEM3003     0.0000
     25  C4C        1.4010   -0.3830   -3.0330 C.ar  3003  HEM3003     0.0000
     26  CMC        4.6000   -1.5900   -1.4280 C.3   3003  HEM3003     0.0000
     27  CAC        2.8800    1.1910   -1.4970 C.2   3003  HEM3003     0.0000
     28  CBC        4.1160    1.6750   -1.3180 C.2   3003  HEM3003     0.0000
     29  C1D       -0.8070    0.2840   -3.8760 C.2   3003  HEM3003     0.0000
     30  C2D       -1.9390    1.1810   -3.8890 C.2   3003  HEM3003     0.0000
     31  C3D       -3.0440    0.4250   -4.6220 C.2   3003  HEM3003     0.0000
     32  C4D       -2.4750   -0.8560   -4.9720 C.2   3003  HEM3003     0.0000
     33  CMD       -2.0460    2.6140   -3.3270 C.3   3003  HEM3003     0.0000
     34  CAD       -4.4710    0.9420   -4.8950 C.3   3003  HEM3003     0.0000
     35  CBD       -5.1730    0.9770   -3.5410 C.3   3003  HEM3003     0.0000
     36  CGD       -6.6470    1.1100   -3.7630 C.2   3003  HEM3003     0.0000
     37  O1D       -7.1500    2.2600   -3.8280 O.co2 3003  HEM3003     0.0000
     38  O2D       -7.3150    0.0550   -3.8850 O.co2 3003  HEM3003     0.0000
     39  NA        -1.4810   -3.6580   -5.6140 N.ar  3003  HEM3003     0.0000
     40  NB         1.1200   -4.3590   -4.6470 N.2   3003  HEM3003     0.0000
     41  NC         1.4310   -1.6880   -3.4950 N.ar  3003  HEM3003     0.0000
     42  ND        -1.1630   -0.8980   -4.5180 N.2   3003  HEM3003     0.0000
     43 FE         -0.0210   -2.5850   -4.6480 Fe    3003  HEM3003     0.0000
@<TRIPOS>BOND
     1    13    12   ar
     2    14    12   ar
     3    12    11    1
     4    11    10    1
     5     9     7    1
     6    10     6    1
     7     7     6   ar
     8     7     8   ar
     9     6     5   ar
    10     8     2    2
    11     8    39   ar
    12     2    15    1
    13     5     1    2
    14     5    39   ar
    15     1    32    1
    16    39    43    1
    17    19    16    1
    18    15    16    1
    19    15    40    2
    20    16    17    2
    21    32    31    1
    22    32    42    2
    23    34    31    1
    24    34    35    1
    25    43    40    1
    26    43    42    1
    27    43    41    1
    28    40    18    1
    29    31    30    2
    30    42    29    1
    31    17    18    1
    32    17    20    1
    33    21    20    2
    34    18     3    2
    35    30    29    1
    36    30    33    1
    37    38    36   ar
    38    29     4    2
    39    37    36   ar
    40    36    35    1
    41    41    25   ar
    42    41    22   ar
    43     4    25    1
    44     3    22    1
    45    25    24   ar
    46    22    23   ar
    47    24    23   ar
    48    24    27    1
    49    23    26    1
    50    27    28    2
