@<TRIPOS>MOLECULE
3nal_DBK_A_1.pdb
 44 46 0 0 0
SMALL
GASTEIGER

@<TRIPOS>ATOM
      1  C1        -4.2690    9.1920   84.8900 C.3   997  DBK997      0.0620
      2  C2        -4.0240    8.9180   83.4040 C.3   997  DBK997      0.0556
      3  C3        -2.5670    9.2780   83.0960 C.3   997  DBK997      0.1875
      4  O3        -2.4670   10.4410   82.2580 O.3   997  DBK997     -0.4452
      5  C4        -1.9510    9.6050   84.4540 C.2   997  DBK997     -0.0089
      6  O4        -2.0830    8.8640   80.7240 O.2   997  DBK997     -0.2453
      7  C5        -2.9180    9.6230   85.4480 C.2   997  DBK997     -0.0036
      8  O5        -1.5650    9.1120   87.4160 O.3   997  DBK997     -0.4435
      9  C6        -2.5700    9.9890   86.8870 C.3   997  DBK997      0.2209
     10  O6        -4.1640    8.3670   87.7400 O.3   997  DBK997     -0.2147
     11  C7        -3.7420    9.7290   87.8250 C.3   997  DBK997      0.2380
     12  O7        -4.5210   12.0540   87.5350 O.3   997  DBK997     -0.4493
     13  C8        -4.9230   10.6800   87.6300 C.3   997  DBK997      0.2067
     14  O8        -5.4160   11.9770   89.5700 O.2   997  DBK997     -0.2501
     15  C9        -5.8950   10.2770   86.5170 C.3   997  DBK997      0.0868
     16  O9        -6.3700    9.8700   84.2030 O.3   997  DBK997     -0.4553
     17  C10       -5.3310   10.2750   85.0930 C.3   997  DBK997      0.1431
     18  O10       -7.4070   11.7730   84.7990 O.2   997  DBK997     -0.2501
     19  C11       -2.9910    9.9320   89.1370 C.3   997  DBK997      0.2470
     20  O11       -2.8010   11.3300   89.3670 O.3   997  DBK997     -0.2114
     21  C12       -1.6580    9.2850   88.7630 C.2   997  DBK997      0.3477
     22  O12       -0.8010    8.9140   89.5650 O.2   997  DBK997     -0.2473
     23  C21       -2.2410   10.0580   80.9720 C.2   997  DBK997      0.3371
     24  C22       -2.1060   11.0880   79.8460 C.2   997  DBK997      0.0495
     25  C23       -2.1730   10.6140   78.3930 C.3   997  DBK997      0.0375
     26  C24       -1.8560   12.4270   80.1110 C.2   997  DBK997     -0.0236
     27  C25       -1.6940   12.9230   81.5500 C.3   997  DBK997      0.0306
     28  C26       -0.4680    9.8930   84.6990 C.3   997  DBK997      0.0294
     29  C27       -4.8570   12.6570   88.7030 C.2   997  DBK997      0.3169
     30  C28       -4.5560   14.1360   88.9510 C.3   997  DBK997      0.1096
     31  C31       -4.8080   11.6580   84.7020 C.3   997  DBK997      0.0441
     32  C32       -7.4270   10.7330   84.1550 C.2   997  DBK997      0.3173
     33  C33       -8.6490   10.3320   83.3330 C.3   997  DBK997      0.1212
     34  C34       -3.6600    9.2270   90.3190 C.3   997  DBK997      0.0474
     35  C35       -3.0490   14.3980   88.9970 C.3   997  DBK997      0.0116
     36  C36       -2.7090   15.8610   89.2960 C.3   997  DBK997      0.0006
     37  C37       -1.1910   16.0530   89.2330 C.3   997  DBK997      0.0000
     38  C38       -0.7750   17.5010   89.4970 C.3   997  DBK997      0.0000
     39  C39       -1.2270   17.9350   90.8930 C.3   997  DBK997      0.0000
     40  C40       -0.8880   19.3960   91.1970 C.3   997  DBK997      0.0000
     41  C41        0.6170   19.6750   91.2450 C.3   997  DBK997      0.0000
     42  C42        0.8710   21.0370   91.8970 C.3   997  DBK997      0.0000
     43  C43        2.3600   21.3120   92.1150 C.3   997  DBK997      0.0000
     44  C44        2.5710   22.6210   92.8810 C.3   997  DBK997      0.0000
@<TRIPOS>BOND
     1    25    24    1
     2    24    26    2
     3    24    23    1
     4    26    27    1
     5     6    23    2
     6    23     4    1
     7     4     3    1
     8     3     2    1
     9     3     5    1
    10    33    32    1
    11     2     1    1
    12    32    16    1
    13    32    18    2
    14    16    17    1
    15     5    28    1
    16     5     7    2
    17    31    17    1
    18     1    17    1
    19     1     7    1
    20    17    15    1
    21     7     9    1
    22    15    13    1
    23     9     8    1
    24     9    11    1
    25     8    21    1
    26    12    13    1
    27    12    29    1
    28    13    11    1
    29    10    11    1
    30    11    19    1
    31    29    30    1
    32    29    14    2
    33    21    19    1
    34    21    22    2
    35    30    35    1
    36    35    36    1
    37    19    20    1
    38    19    34    1
    39    37    36    1
    40    37    38    1
    41    38    39    1
    42    39    40    1
    43    40    41    1
    44    41    42    1
    45    42    43    1
    46    43    44    1
