@<TRIPOS>MOLECULE
3nam_OTK_A_1.pdb
 36 38 0 0 0
SMALL
GASTEIGER

@<TRIPOS>ATOM
      1  C1        -4.5780    9.4530   84.8220 C.3   997  OTK997      0.0441
      2  C2        -4.1430    9.0760   83.4020 C.3   997  OTK997      0.0472
      3  C3        -2.8500    9.8570   83.1430 C.3   997  OTK997      0.1693
      4  O3        -3.0390   10.9830   82.2760 O.3   997  OTK997     -0.4494
      5  C4        -2.3950   10.3950   84.5020 C.3   997  OTK997      0.0438
      6  O4        -2.0190    9.6670   80.7820 O.2   997  OTK997     -0.2453
      7  C5        -3.2040    9.5670   85.5000 C.3   997  OTK997      0.0498
      8  O5        -2.0730    9.5990   87.6930 O.3   997  OTK997     -0.4477
      9  C6        -3.1580   10.1380   86.9180 C.3   997  OTK997      0.2031
     10  O6        -5.0250    8.6430   87.3520 O.3   997  OTK997     -0.2150
     11  C7        -4.4210    9.8790   87.7440 C.3   997  OTK997      0.2344
     12  O7        -4.6710   12.2830   87.2490 O.3   997  OTK997     -0.4493
     13  C8        -5.3770   11.0460   87.4570 C.3   997  OTK997      0.2063
     14  O8        -5.0230   12.7220   89.4300 O.2   997  OTK997     -0.2501
     15  C9        -6.2700   10.7460   86.2460 C.3   997  OTK997      0.0865
     16  O9        -6.5840   10.2470   83.9340 O.3   997  OTK997     -0.4556
     17  C10       -5.5740   10.6160   84.8820 C.3   997  OTK997      0.1397
     18  O10       -7.6710   12.1800   84.3300 O.2   997  OTK997     -0.2501
     19  C11       -3.9200    9.7520   89.1910 C.3   997  OTK997      0.2467
     20  O11       -4.4230   10.8050   90.0150 O.3   997  OTK997     -0.2114
     21  C12       -2.4040    9.8720   88.9870 C.2   997  OTK997      0.3474
     22  O12       -1.6060   10.2410   89.8430 O.2   997  OTK997     -0.2473
     23  C21       -2.5220   10.7540   81.0280 C.2   997  OTK997      0.3368
     24  C22       -2.5750   11.8260   79.9540 C.2   997  OTK997      0.0495
     25  C23       -2.5580   11.4050   78.4970 C.3   997  OTK997      0.0375
     26  C24       -2.6400   13.2090   80.2620 C.2   997  OTK997     -0.0236
     27  C25       -2.6640   13.7310   81.6840 C.3   997  OTK997      0.0306
     28  C26       -0.8910   10.1780   84.6920 C.3   997  OTK997      0.0038
     29  C27       -4.5000   13.0460   88.3650 C.2   997  OTK997      0.3169
     30  C28       -3.6860   14.3380   88.2540 C.3   997  OTK997      0.1096
     31  C29       -3.6740   15.1330   89.5630 C.3   997  OTK997      0.0116
     32  C30       -2.8360   16.4080   89.4350 C.3   997  OTK997      0.0006
     33  C31       -4.9440   11.9460   84.4530 C.3   997  OTK997      0.0438
     34  C32       -7.6210   11.1070   83.7310 C.2   997  OTK997      0.3173
     35  C33       -8.7370   10.7080   82.7660 C.3   997  OTK997      0.1212
     36  C34       -4.2760    8.3980   89.8100 C.3   997  OTK997      0.0474
@<TRIPOS>BOND
     1    25    24    1
     2    24    26    2
     3    24    23    1
     4    26    27    1
     5     6    23    2
     6    23     4    1
     7     4     3    1
     8    35    34    1
     9     3     2    1
    10     3     5    1
    11     2     1    1
    12    34    16    1
    13    34    18    2
    14    16    17    1
    15    33    17    1
    16     5    28    1
    17     5     7    1
    18     1    17    1
    19     1     7    1
    20    17    15    1
    21     7     9    1
    22    15    13    1
    23     9     8    1
    24     9    11    1
    25    12    13    1
    26    12    29    1
    27    10    11    1
    28    13    11    1
    29     8    21    1
    30    11    19    1
    31    30    29    1
    32    30    31    1
    33    29    14    2
    34    21    19    1
    35    21    22    2
    36    19    36    1
    37    19    20    1
    38    32    31    1
