@<TRIPOS>MOLECULE
3nax_MP7_A_1.pdb
 38 42 0 0 0
SMALL
GASTEIGER

@<TRIPOS>ATOM
      1  C          9.9290   -5.9150    5.9490 C.ar  363  MP7363      0.1111
      2  F          5.4670   -3.5500    0.0470 F     363  MP7363     -0.2018
      3  N          9.8840   -4.6340    3.8610 N.ar  363  MP7363     -0.2898
      4  O          8.0010   -4.7010    5.2310 O.2   363  MP7363     -0.2668
      5  C1        11.2040   -6.3060    5.6470 C.ar  363  MP7363      0.0109
      6  C2        11.8900   -5.8480    4.4660 C.ar  363  MP7363      0.0190
      7  C3        11.1880   -5.0580    3.5600 C.ar  363  MP7363      0.0786
      8  C4         9.1550   -5.0360    4.9810 C.ar  363  MP7363      0.2656
      9  C5         9.2360   -3.7440    2.9000 C.3   363  MP7363      0.1359
     10  C6         8.3610   -4.4400    1.9490 C.ar  363  MP7363      0.0029
     11  C7         8.6220   -5.7980    1.4870 C.ar  363  MP7363      0.0001
     12  C8         7.7750   -6.3810    0.4930 C.ar  363  MP7363      0.0317
     13  C9         6.6940   -5.5700    0.0380 C.ar  363  MP7363      0.1674
     14  C10        6.4720   -4.2820    0.5040 C.ar  363  MP7363      0.1671
     15  C11        7.2810   -3.6980    1.4700 C.ar  363  MP7363      0.0296
     16  F12        5.8880   -6.0840   -0.8960 F     363  MP7363     -0.2018
     17  C13        5.8270   -0.5620   11.0670 C.ar  363  MP7363      0.1773
     18  C14        7.1050   -0.5660   10.5370 C.ar  363  MP7363      0.1801
     19  C15        7.6150   -1.6930    9.9160 C.ar  363  MP7363      0.0726
     20  C16        6.7500   -2.8400    9.8570 C.ar  363  MP7363      0.1414
     21  C17        5.3970   -2.7930   10.3930 C.ar  363  MP7363      0.0397
     22  C18        4.9650   -1.6030   11.0150 C.ar  363  MP7363      0.0389
     23  N19        5.5530    0.6990   11.6280 N.2   363  MP7363     -0.3058
     24  N20        7.6540    0.6710   10.7570 N.2   363  MP7363     -0.3057
     25  O21        7.3180   -3.8940    9.2120 O.3   363  MP7363     -0.4731
     26  C22        6.5410   -5.1090    9.1400 C.3   363  MP7363      0.2313
     27  C23        7.5130   -6.2360    8.8500 C.3   363  MP7363      0.1613
     28  C24        6.8970   -7.6270    9.0650 C.ar  363  MP7363      0.0011
     29  C25        7.1770   -8.6540    8.1360 C.ar  363  MP7363     -0.0025
     30  C26        6.6460   -9.9760    8.3400 C.ar  363  MP7363     -0.0003
     31  C27        5.8420  -10.2240    9.4740 C.ar  363  MP7363     -0.0000
     32  C28        5.5550   -9.2000   10.3850 C.ar  363  MP7363     -0.0003
     33  C29        6.0950   -7.9010   10.2340 C.ar  363  MP7363     -0.0025
     34  C30        6.7030    1.4630   11.4520 C.1   363  MP7363      0.3554
     35  O31        6.7910    2.6390   11.8200 O.2   363  MP7363     -0.1752
     36  N32        8.1230   -5.9280    7.5400 N.am  363  MP7363     -0.1949
     37  C33        9.3990   -6.3600    7.2440 C.2   363  MP7363      0.2698
     38  O34       10.1070   -7.0430    7.9940 O.2   363  MP7363     -0.2682
@<TRIPOS>BOND
     1    16    13    1
     2    13    12   ar
     3    13    14   ar
     4     2    14    1
     5    12    11   ar
     6    14    15   ar
     7    15    10   ar
     8    11    10   ar
     9    10     9    1
    10     9     3    1
    11     7     3   ar
    12     7     6   ar
    13     3     8   ar
    14     6     5   ar
    15     8     4    2
    16     8     1   ar
    17     5     1   ar
    18     1    37    1
    19    37    36   am
    20    37    38    2
    21    36    27    1
    22    29    30   ar
    23    29    28   ar
    24    30    31   ar
    25    27    28    1
    26    27    26    1
    27    28    33   ar
    28    26    25    1
    29    25    20    1
    30    31    32   ar
    31    20    19   ar
    32    20    21   ar
    33    19    18   ar
    34    33    32   ar
    35    21    22   ar
    36    18    24    2
    37    18    17   ar
    38    24    34    2
    39    22    17   ar
    40    17    23    2
    41    34    23    2
    42    34    35    2
