@<TRIPOS>MOLECULE
3nay_MP6_A_1.pdb
 32 36 0 0 0
SMALL
GASTEIGER

@<TRIPOS>ATOM
      1  C         11.4320  -39.4360   21.2040 C.2     1  MP61        0.1983
      2  N         12.3580  -39.0950   20.2320 N.2     1  MP61       -0.3878
      3  O         16.3080  -39.5780   22.9540 O.2     1  MP61       -0.2260
      4  C1        11.8950  -39.8830   22.4950 C.ar    1  MP61        0.0428
      5  C2        13.3470  -39.9140   22.7800 C.ar    1  MP61        0.0034
      6  C3        13.7800  -40.4260   24.0560 C.ar    1  MP61       -0.0029
      7  C4        12.8360  -40.9060   24.9690 C.ar    1  MP61       -0.0007
      8  C5        11.4530  -40.8590   24.6900 C.ar    1  MP61       -0.0001
      9  C6        10.9840  -40.3380   23.4680 C.ar    1  MP61        0.0036
     10  C7        14.2640  -39.4600   21.7590 C.3     1  MP61        0.1814
     11  C8        13.7170  -39.0690   20.4980 C.2     1  MP61        0.1391
     12  C9        14.5620  -38.6020   19.4000 C.2     1  MP61        0.0883
     13  C10       15.9180  -38.5290   19.6330 C.2     1  MP61        0.1212
     14  N11       16.4790  -38.8230   20.8750 N.2     1  MP61       -0.1771
     15  C12       15.7520  -39.3370   21.9240 C.1     1  MP61        0.1405
     16  N13       10.0490  -39.3670   20.8560 N.pl3   1  MP61       -0.2116
     17  C14        9.6360  -38.8740   19.5160 C.3     1  MP61        0.0950
     18  C15        9.0810  -37.4180   19.5730 C.3     1  MP61        0.0234
     19  C16        8.8810  -39.9670   18.6360 C.3     1  MP61        0.0185
     20  C17        8.2770  -39.3740   17.3540 C.3     1  MP61        0.0017
     21  C18        9.9030  -41.0340   18.1880 C.3     1  MP61        0.0017
     22  C19        7.7710  -40.7000   19.4700 C.3     1  MP61        0.0017
     23  C20       13.9820  -38.3280   18.1210 C.1     1  MP61       -0.0605
     24  C21       13.4850  -38.0940   17.0220 C.1     1  MP61       -0.0873
     25  C22       12.8700  -37.7280   15.7430 C.3     1  MP61        0.0645
     26  C23       12.1280  -38.7030   14.9040 C.3     1  MP61        0.0140
     27  C24       11.3440  -37.7900   15.7630 C.3     1  MP61        0.0140
     28  C25       13.2990  -41.5050   26.1620 C.2     1  MP61        0.0249
     29  C26       12.5640  -42.5540   26.7430 C.2     1  MP61        0.1194
     30  N27       13.2770  -42.9230   27.8180 N.2     1  MP61       -0.1510
     31  N28       14.4500  -42.2270   27.9990 N.2     1  MP61       -0.1695
     32  C29       14.4670  -41.3560   26.9590 C.3     1  MP61        0.1771
@<TRIPOS>BOND
     1    26    25    1
     2    26    27    1
     3    25    27    1
     4    25    24    1
     5    24    23    3
     6    20    19    1
     7    23    12    1
     8    21    19    1
     9    19    22    1
    10    19    17    1
    11    12    13    2
    12    12    11    1
    13    17    18    1
    14    17    16    1
    15    13    14    1
    16     2    11    2
    17     2     1    2
    18    11    10    1
    19    16     1    1
    20    14    15    2
    21     1     4    1
    22    10    15    1
    23    10     5    1
    24    15     3    2
    25     4     5   ar
    26     4     9   ar
    27     5     6   ar
    28     9     8   ar
    29     6     7   ar
    30     8     7   ar
    31     7    28    1
    32    28    29    2
    33    28    32    1
    34    29    30    1
    35    32    31    1
    36    30    31    2
