@<TRIPOS>MOLECULE
3naz_III_E_1.pdb
 25 24 0 0 0
SMALL
GASTEIGER

@<TRIPOS>ATOM
      1  N         63.0020   59.0380   54.6040 N.3     1  UNK1       -0.1231
      2  CA        62.8640   60.4380   54.2290 C.3     1  UNK1        0.1694
      3  C         62.3220   61.3060   55.3770 C.2     1  UNK1        0.2592
      4  O         62.9710   62.2830   55.7490 O.2     1  UNK1       -0.2718
      5  CB        61.9880   60.5820   52.9760 C.3     1  UNK1        0.0304
      6  N         61.1720   60.9290   55.9510 N.am    2  UNK2       -0.1966
      7  CA        60.4280   61.7640   56.9100 C.3     2  UNK2        0.1728
      8  C         61.1830   61.9800   58.2360 C.2     2  UNK2        0.2616
      9  O         60.6000   62.4010   59.2390 O.2     2  UNK2       -0.2715
     10  CB        59.0400   61.1570   57.1640 C.3     2  UNK2        0.0334
     11  N         62.4800   61.6650   58.2120 N.am    3  UNK3       -0.1963
     12  CA        63.4100   61.9090   59.3120 C.3     3  UNK3        0.1728
     13  C         64.2530   63.1650   59.0050 C.2     3  UNK3        0.2616
     14  O         65.1350   63.5610   59.7750 O.2     3  UNK3       -0.2715
     15  CB        64.2990   60.6620   59.5540 C.3     3  UNK3        0.0334
     16  N         63.9710   63.7910   57.8630 N.am    4  UNK4       -0.1963
     17  CA        64.7110   64.9740   57.4260 C.3     4  UNK4        0.1728
     18  C         64.0740   66.1580   58.1000 C.2     4  UNK4        0.2616
     19  O         64.4350   66.4980   59.2200 O.2     4  UNK4       -0.2715
     20  CB        64.6870   65.1160   55.8880 C.3     4  UNK4        0.0334
     21  N         63.1040   66.7780   57.4520 N.am    5  UNK5       -0.1977
     22  CA        62.4890   67.9370   58.0810 C.3     5  UNK5        0.1597
     23  C         61.8920   67.6970   59.4750 C.2     5  UNK5        0.2287
     24  O         61.8160   68.6300   60.2840 O.2     5  UNK5       -0.2864
     25  CB        61.4420   68.5190   57.1780 C.3     5  UNK5        0.0319
@<TRIPOS>BOND
     1     5     2    1
     2     2     1    1
     3     2     3    1
     4     3     4    2
     5     3     6   am
     6    20    17    1
     7     6     7    1
     8     7    10    1
     9     7     8    1
    10    25    22    1
    11    17    16    1
    12    17    18    1
    13    21    22    1
    14    21    18   am
    15    16    13   am
    16    22    23    1
    17    18    19    2
    18    11     8   am
    19    11    12    1
    20     8     9    2
    21    13    12    1
    22    13    14    2
    23    12    15    1
    24    23    24    2
