@<TRIPOS>MOLECULE
3nb0_G6P_A_1.pdb
 16 16 0 0 0
SMALL
GASTEIGER

@<TRIPOS>ATOM
      1  C1        38.4680  -25.6230   41.8510 C.3   901  G6P901      0.3024
      2  C2        39.3670  -24.7860   42.7240 C.3   901  G6P901      0.2434
      3  C3        39.4330  -25.4220   44.1170 C.3   901  G6P901      0.2199
      4  C4        37.9980  -25.4440   44.5890 C.3   901  G6P901      0.2143
      5  C5        37.1340  -26.2710   43.6770 C.3   901  G6P901      0.1808
      6  C6        35.6940  -26.1420   44.1120 C.3   901  G6P901      0.1859
      7  O1        38.9340  -26.8920   41.7840 O.3   901  G6P901     -0.1869
      8  O2        40.6100  -24.7950   42.0480 O.3   901  G6P901     -0.2148
      9  O3        40.1750  -24.5630   45.0120 O.3   901  G6P901     -0.2174
     10  O4        37.8840  -25.9650   45.8810 O.3   901  G6P901     -0.2176
     11  O5        37.1550  -25.6510   42.3830 O.3   901  G6P901     -0.3237
     12  O6        34.8010  -27.0250   43.4440 O.3   901  G6P901     -0.2675
     13  P         33.1950  -27.0650   43.7030 P.3   901  G6P901      0.5327
     14  O1P       33.0090  -27.4330   45.1310 O.3   901  G6P901     -0.1145
     15  O2P       32.7670  -28.1700   42.8360 O.2   901  G6P901     -0.2224
     16  O3P       32.7730  -25.6800   43.2590 O.3   901  G6P901     -0.1145
@<TRIPOS>BOND
     1     7     1    1
     2     1    11    1
     3     1     2    1
     4     8     2    1
     5    11     5    1
     6     2     3    1
     7    15    13    2
     8    16    13    1
     9    12    13    1
    10    12     6    1
    11     5     6    1
    12     5     4    1
    13    13    14    1
    14     3     4    1
    15     3     9    1
    16     4    10    1
