@<TRIPOS>MOLECULE
3nb5_R21_A_1.pdb
 24 25 0 0 0
SMALL
GASTEIGER

@<TRIPOS>ATOM
      1 CL         16.0750   14.0200   10.5570 Cl    300  R21300     -0.0789
      2  OAA       13.9200    2.7940   16.7340 O.2   300  R21300     -0.1503
      3  OAB       17.6320   16.2050   11.7850 O.3   300  R21300     -0.2857
      4  CAC       18.2210   14.9840   11.8950 C.ar  300  R21300      0.2061
      5  CAD       19.4460   14.8610   12.5400 C.ar  300  R21300      0.0426
      6  CAE       20.0590   13.6170   12.6370 C.ar  300  R21300     -0.0004
      7  OAF       19.9430   10.6690   14.4990 O.2   300  R21300     -0.2730
      8  CAG       15.6480    6.2280   14.7040 C.ar  300  R21300     -0.0028
      9  CAH       15.1720    5.1820   15.4860 C.ar  300  R21300      0.0197
     10  CAI       16.0280    4.1560   15.8710 C.ar  300  R21300      0.1250
     11  SAJ       15.4180    2.8090   16.8070 S.O2  300  R21300      0.0935
     12  NAK       16.0170    1.4180   16.2050 N.3   300  R21300      0.0392
     13  CAL       17.6050   13.8620   11.3500 C.ar  300  R21300      0.0962
     14  CAM       18.2190   12.6180   11.4470 C.ar  300  R21300      0.0108
     15  CAN       19.4470   12.4960   12.0880 C.ar  300  R21300     -0.0120
     16  CAO       20.1550   11.1400   12.1450 C.3   300  R21300      0.1131
     17  CAP       19.6700   10.3290   13.3480 C.2   300  R21300      0.2458
     18  NAQ       18.9540    9.2520   13.0370 N.am  300  R21300     -0.2048
     19  CAR       18.4060    8.3380   14.0510 C.3   300  R21300      0.1198
     20  CAS       17.4780    7.3400   13.3550 C.3   300  R21300      0.0498
     21  CAT       16.9790    6.2480   14.3040 C.ar  300  R21300     -0.0203
     22  CAU       17.8380    5.2280   14.6980 C.ar  300  R21300     -0.0028
     23  CAV       17.3620    4.1830   15.4810 C.ar  300  R21300      0.0197
     24  OAW       15.8550    2.9550   18.2350 O.2   300  R21300     -0.1503
@<TRIPOS>BOND
     1     1    13    1
     2    13    14   ar
     3    13     4   ar
     4    14    15   ar
     5     3     4    1
     6     4     5   ar
     7    15    16    1
     8    15     6   ar
     9    16    17    1
    10     5     6   ar
    11    18    17   am
    12    18    19    1
    13    17     7    2
    14    20    19    1
    15    20    21    1
    16    21    22   ar
    17    21     8   ar
    18    22    23   ar
    19     8     9   ar
    20    23    10   ar
    21     9    10   ar
    22    10    11    1
    23    12    11    1
    24     2    11    2
    25    11    24    2
