@<TRIPOS>MOLECULE
3nb8_BLA_A_1.pdb
 43 46 0 0 0
SMALL
GASTEIGER

@<TRIPOS>ATOM
      1  CHA        1.7650  -26.1260   20.8700 C.3   249  BLA249      0.1170
      2  NA         0.9490  -28.4250   21.3740 N.2   249  BLA249     -0.4104
      3  C1A        1.7980  -27.3920   21.5610 C.2   249  BLA249      0.1114
      4  C2A        2.8940  -27.7390   22.4220 C.2   249  BLA249      0.0024
      5  C3A        2.6510  -29.1050   22.7510 C.2   249  BLA249      0.0021
      6  C4A        1.4490  -29.4550   22.0960 C.2   249  BLA249      0.1114
      7  CMA        3.4680  -29.9570   23.6680 C.3   249  BLA249      0.0331
      8  CAA        3.9440  -26.8120   22.8720 C.3   249  BLA249      0.0402
      9  CBA        3.4610  -25.9440   24.1040 C.3   249  BLA249      0.1188
     10  CGA        4.3700  -24.7620   24.3770 C.2   249  BLA249      0.3652
     11  O1A        4.1900  -24.1720   25.4750 O.co2 249  BLA249     -0.2456
     12  O2A        5.2000  -24.4330   23.5020 O.co2 249  BLA249     -0.2456
     13  CHB        0.9290  -30.7830   22.1140 C.3   249  BLA249      0.1181
     14  NB        -1.3260  -30.4840   21.3460 N.2   249  BLA249     -0.3372
     15  C1B       -0.3070  -31.2460   21.6740 C.2   249  BLA249      0.1257
     16  C2B       -0.7260  -32.6220   21.6390 C.2   249  BLA249      0.0168
     17  C3B       -2.0650  -32.6530   21.1810 C.2   249  BLA249      0.0929
     18  C4B       -2.3600  -31.2360   21.0650 C.1   249  BLA249      0.2041
     19  CMB        0.1750  -33.7880   21.9260 C.3   249  BLA249      0.0342
     20  OB        -3.5480  -30.7500   20.6450 O.2   249  BLA249     -0.2093
     21  CAB       -3.0280  -33.7590   20.9380 C.2   249  BLA249      0.0124
     22  CBB       -2.7970  -35.0050   21.2670 C.2   249  BLA249      0.0008
     23  NC        -2.7810  -27.3800   18.0810 N.2   249  BLA249     -0.3371
     24  C1C       -3.9370  -28.0080   17.7550 C.1   249  BLA249      0.2003
     25  C2C       -5.0480  -27.1550   17.3960 C.2   249  BLA249      0.0749
     26  C3C       -4.4230  -25.8500   17.4310 C.2   249  BLA249      0.0347
     27  C4C       -3.0800  -26.0690   17.8850 C.2   249  BLA249      0.1293
     28  CMC       -6.4130  -27.5830   16.9790 C.3   249  BLA249      0.0448
     29  OC        -4.0240  -29.3240   17.8200 O.2   249  BLA249     -0.2096
     30  CAC       -4.9940  -24.5310   17.1990 C.2   249  BLA249      0.0027
     31  CBC       -6.2930  -24.2800   17.1170 C.2   249  BLA249      0.0001
     32  CHD       -2.1590  -24.9950   18.0570 C.3   249  BLA249      0.1184
     33  ND        -0.3650  -25.9070   19.5330 N.2   249  BLA249     -0.4104
     34  C1D       -0.8360  -25.0320   18.5890 C.2   249  BLA249      0.1115
     35  C2D        0.1470  -24.0200   18.3750 C.2   249  BLA249      0.0021
     36  C3D        1.2600  -24.3460   19.2040 C.2   249  BLA249      0.0024
     37  C4D        0.8930  -25.5540   19.8830 C.2   249  BLA249      0.1114
     38  CMD        0.0610  -22.8480   17.4620 C.3   249  BLA249      0.0331
     39  CAD        2.5930  -23.6320   19.2550 C.3   249  BLA249      0.0402
     40  CBD        3.5440  -24.3150   18.2570 C.3   249  BLA249      0.1188
     41  CGD        4.9970  -23.8780   18.4210 C.2   249  BLA249      0.3652
     42  O1D        5.3220  -23.2030   19.4180 O.co2 249  BLA249     -0.2456
     43  O2D        5.7630  -24.3110   17.5430 O.co2 249  BLA249     -0.2456
@<TRIPOS>BOND
     1    28    25    1
     2    31    30    2
     3    30    26    1
     4    25    26    2
     5    25    24    1
     6    26    27    1
     7    38    35    1
     8    43    41   ar
     9    24    29    2
    10    24    23    2
    11    27    32    1
    12    27    23    2
    13    32    34    1
    14    40    41    1
    15    40    39    1
    16    35    34    1
    17    35    36    2
    18    41    42   ar
    19    34    33    2
    20    36    39    1
    21    36    37    1
    22    33    37    2
    23    37     1    1
    24    20    18    2
    25     1     3    1
    26    21    17    1
    27    21    22    2
    28    18    17    1
    29    18    14    2
    30    17    16    2
    31    14    15    2
    32     2     3    2
    33     2     6    2
    34     3     4    1
    35    16    15    1
    36    16    19    1
    37    15    13    1
    38     6    13    1
    39     6     5    1
    40     4     5    2
    41     4     8    1
    42     5     7    1
    43     8     9    1
    44    12    10   ar
    45     9    10    1
    46    10    11   ar
