@<TRIPOS>MOLECULE
3nb9_BLA_A_1.pdb
 43 46 0 0 0
SMALL
GASTEIGER

@<TRIPOS>ATOM
      1  CHA        1.8320  -26.2030   20.6040 C.3   249  BLA249      0.1170
      2  NA         1.0390  -28.5210   21.0540 N.2   249  BLA249     -0.4104
      3  C1A        1.8610  -27.4470   21.3340 C.2   249  BLA249      0.1114
      4  C2A        2.9110  -27.6910   22.2800 C.2   249  BLA249      0.0024
      5  C3A        2.6880  -29.0540   22.6700 C.2   249  BLA249      0.0021
      6  C4A        1.5240  -29.4580   21.9230 C.2   249  BLA249      0.1114
      7  CMA        3.4340  -29.8500   23.7190 C.3   249  BLA249      0.0331
      8  CAA        3.9540  -26.7140   22.7740 C.3   249  BLA249      0.0402
      9  CBA        3.4220  -25.8700   23.9540 C.3   249  BLA249      0.1188
     10  CGA        4.3350  -24.6910   24.2300 C.2   249  BLA249      0.3652
     11  O1A        4.1170  -24.0950   25.3230 O.co2 249  BLA249     -0.2456
     12  O2A        5.2120  -24.3450   23.4040 O.co2 249  BLA249     -0.2456
     13  CHB        1.0000  -30.8150   21.9580 C.3   249  BLA249      0.1181
     14  NB        -1.2700  -30.3790   21.2230 N.2   249  BLA249     -0.3372
     15  C1B       -0.2790  -31.2550   21.5650 C.2   249  BLA249      0.1257
     16  C2B       -0.7050  -32.6280   21.5530 C.2   249  BLA249      0.0168
     17  C3B       -2.0550  -32.5590   21.1310 C.2   249  BLA249      0.0929
     18  C4B       -2.3640  -31.1140   20.9490 C.1   249  BLA249      0.2041
     19  CMB        0.1850  -33.7830   21.8850 C.3   249  BLA249      0.0342
     20  OB        -3.4910  -30.7660   20.5470 O.2   249  BLA249     -0.2093
     21  CAB       -3.0310  -33.6760   20.9220 C.2   249  BLA249      0.0124
     22  CBB       -2.7850  -34.9420   21.1540 C.2   249  BLA249      0.0008
     23  NC        -2.8700  -27.2750   17.9430 N.2   249  BLA249     -0.3371
     24  C1C       -4.0860  -27.7860   17.6380 C.1   249  BLA249      0.2003
     25  C2C       -5.1320  -26.8670   17.2560 C.2   249  BLA249      0.0749
     26  C3C       -4.4240  -25.6420   17.2850 C.2   249  BLA249      0.0347
     27  C4C       -3.0990  -25.9510   17.7750 C.2   249  BLA249      0.1293
     28  CMC       -6.5230  -27.1680   16.8770 C.3   249  BLA249      0.0448
     29  OC        -4.3120  -29.1330   17.6670 O.2   249  BLA249     -0.2096
     30  CAC       -4.9470  -24.2680   17.0760 C.2   249  BLA249      0.0027
     31  CBC       -6.2580  -24.0250   17.1850 C.2   249  BLA249      0.0001
     32  CHD       -2.1260  -24.9170   17.8940 C.3   249  BLA249      0.1184
     33  ND        -0.3420  -25.9920   19.3230 N.2   249  BLA249     -0.4104
     34  C1D       -0.7840  -25.0220   18.4220 C.2   249  BLA249      0.1115
     35  C2D        0.1890  -24.0190   18.1310 C.2   249  BLA249      0.0021
     36  C3D        1.3330  -24.3710   18.8980 C.2   249  BLA249      0.0024
     37  C4D        0.9440  -25.5780   19.6210 C.2   249  BLA249      0.1114
     38  CMD        0.0870  -22.8640   17.1890 C.3   249  BLA249      0.0331
     39  CAD        2.6600  -23.6540   18.9360 C.3   249  BLA249      0.0402
     40  CBD        3.6410  -24.4840   18.1410 C.3   249  BLA249      0.1188
     41  CGD        5.0480  -23.8760   18.0900 C.2   249  BLA249      0.3652
     42  O1D        5.3740  -23.1940   19.0560 O.co2 249  BLA249     -0.2456
     43  O2D        5.8010  -24.1770   17.1360 O.co2 249  BLA249     -0.2456
@<TRIPOS>BOND
     1    28    25    1
     2    30    31    2
     3    30    26    1
     4    43    41   ar
     5    38    35    1
     6    25    26    2
     7    25    24    1
     8    26    27    1
     9    24    29    2
    10    24    23    2
    11    27    32    1
    12    27    23    2
    13    32    34    1
    14    41    40    1
    15    41    42   ar
    16    35    34    1
    17    35    36    2
    18    40    39    1
    19    34    33    2
    20    36    39    1
    21    36    37    1
    22    33    37    2
    23    37     1    1
    24    20    18    2
    25     1     3    1
    26    21    17    1
    27    21    22    2
    28    18    17    1
    29    18    14    2
    30     2     3    2
    31     2     6    2
    32    17    16    2
    33    14    15    2
    34     3     4    1
    35    16    15    1
    36    16    19    1
    37    15    13    1
    38     6    13    1
    39     6     5    1
    40     4     5    2
    41     4     8    1
    42     5     7    1
    43     8     9    1
    44    12    10   ar
    45     9    10    1
    46    10    11   ar
