@<TRIPOS>MOLECULE
3nba_APC_A_1.pdb
 31 33 0 0 0
SMALL
GASTEIGER

@<TRIPOS>ATOM
      1  PG        45.7530  -32.9600   -2.2630 P.3   200  APC200      0.5389
      2  O1G       46.3160  -34.3680   -2.1490 O.3   200  APC200     -0.1143
      3  O2G       46.7880  -31.9650   -2.7510 O.2   200  APC200     -0.2220
      4  O3G       44.9450  -32.4860   -1.0660 O.3   200  APC200     -0.1143
      5  PB        43.3500  -33.9390   -3.6140 P.3   200  APC200      0.3895
      6  O1B       42.1700  -33.0200   -3.8430 O.3   200  APC200     -0.1388
      7  O2B       43.7330  -34.9060   -4.7030 O.2   200  APC200     -0.2544
      8  O3B       44.6750  -33.0040   -3.4870 O.3   200  APC200     -0.2026
      9  PA        42.4360  -36.5620   -2.2650 P.3   200  APC200      0.3820
     10  O1A       41.3150  -36.7100   -1.2800 O.3   200  APC200     -0.1392
     11  O2A       43.6350  -37.4740   -2.0980 O.2   200  APC200     -0.2548
     12  C3A       43.0210  -34.8510   -2.0770 C.3   200  APC200      0.2357
     13  O5'       41.8040  -36.8140   -3.7370 O.3   200  APC200     -0.2896
     14  C5'       41.5190  -38.1040   -4.2900 C.3   200  APC200      0.1836
     15  C4'       42.0740  -38.2620   -5.7210 C.3   200  APC200      0.1822
     16  O4'       41.1650  -37.7430   -6.7000 O.3   200  APC200     -0.3135
     17  C3'       43.4230  -37.5740   -5.9920 C.3   200  APC200      0.2184
     18  O3'       44.5520  -38.4420   -5.8040 O.3   200  APC200     -0.2174
     19  C2'       43.3740  -37.2110   -7.4440 C.3   200  APC200      0.2570
     20  O2'       43.8670  -38.3510   -8.1590 O.3   200  APC200     -0.2130
     21  C1'       41.8900  -37.0380   -7.7170 C.3   200  APC200      0.3186
     22  N9        41.5940  -35.5660   -7.7720 N.pl3 200  APC200     -0.1439
     23  C8        41.6890  -34.6700   -6.7710 C.3   200  APC200      0.3377
     24  N7        41.3540  -33.4340   -7.1990 N.2   200  APC200     -0.2095
     25  C5        41.0350  -33.5570   -8.4840 C.2   200  APC200      0.2526
     26  C6        40.6320  -32.6390   -9.4340 C.2   200  APC200      0.4393
     27  N6        40.5040  -31.3460   -9.0770 N.pl3 200  APC200      0.2180
     28  N1        40.3900  -33.0580  -10.7090 N.2   200  APC200      0.0021
     29  C2        40.5370  -34.3590  -11.0550 C.3   200  APC200      0.5254
     30  N3        40.9330  -35.2760  -10.1420 N.2   200  APC200     -0.0055
     31  C4        41.1960  -34.8920   -8.8550 C.2   200  APC200      0.3518
@<TRIPOS>BOND
     1    29    28    1
     2    29    30    1
     3    28    26    2
     4    30    31    2
     5    26    27    1
     6    26    25    1
     7    31    25    1
     8    31    22    1
     9    25    24    2
    10    20    19    1
    11    22    21    1
    12    22    23    1
    13    21    19    1
    14    21    16    1
    15    19    17    1
    16    24    23    1
    17    16    15    1
    18    17    18    1
    19    17    15    1
    20    15    14    1
    21     7     5    2
    22    14    13    1
    23     6     5    1
    24    13     9    1
    25     5     8    1
    26     5    12    1
    27     8     1    1
    28     3     1    2
    29     9    11    2
    30     9    12    1
    31     9    10    1
    32     1     2    1
    33     1     4    1
