@<TRIPOS>MOLECULE
3nbc_LAT_A_1.pdb
 23 24 0 0 0
SMALL
GASTEIGER

@<TRIPOS>ATOM
      1  C1        11.9360   13.4160    7.6280 C.3   149  LAT149      0.2696
      2  C2        12.1330   14.8500    7.1490 C.3   149  LAT149      0.2406
      3  C3        13.2370   14.9310    6.0270 C.3   149  LAT149      0.2198
      4  C4        14.5800   14.2450    6.5250 C.3   149  LAT149      0.2144
      5  C5        14.2740   12.7910    7.0390 C.3   149  LAT149      0.1835
      6  C6        15.5450   12.0940    7.5860 C.3   149  LAT149      0.2142
      7  O1        11.0930   13.3840    8.7600 O.3   149  LAT149     -0.3245
      8  O2        10.9010   15.4380    6.7110 O.3   149  LAT149     -0.2149
      9  O3        13.4770   16.3120    5.6280 O.3   149  LAT149     -0.2174
     10  O4        15.0860   15.0410    7.6400 O.3   149  LAT149     -0.2176
     11  O5        13.2590   12.8470    8.0870 O.3   149  LAT149     -0.3256
     12  O6        15.2260   10.8630    8.2840 O.3   149  LAT149     -0.2176
     13  C1'        8.7540   10.4380   10.7970 C.2   149  LAT149      0.3505
     14  C2'       10.2290   10.1630   10.7240 C.3   149  LAT149      0.2821
     15  C3'       11.0590   11.4200   10.3180 C.3   149  LAT149      0.2238
     16  C4'       10.4210   12.1360    9.0410 C.3   149  LAT149      0.1936
     17  C5'        8.9000   12.4280    9.3860 C.3   149  LAT149      0.2312
     18  C6'        8.1690   13.0320    8.2070 C.3   149  LAT149      0.2280
     19  O1'        7.9810    9.5750   11.6430 O.2   149  LAT149     -0.2472
     20  O2'       10.7500    9.5750   11.9100 O.3   149  LAT149     -0.2082
     21  O3'       12.4270   10.9510   10.0660 O.3   149  LAT149     -0.2170
     22  O5'        8.1810   11.2350    9.7590 O.3   149  LAT149     -0.4451
     23  O6'        8.2670   12.1210    7.0870 O.3   149  LAT149     -0.2163
@<TRIPOS>BOND
     1     9     3    1
     2     3     4    1
     3     3     2    1
     4     4     5    1
     5     4    10    1
     6     8     2    1
     7     5     6    1
     8     5    11    1
     9    23    18    1
    10     2     1    1
    11     6    12    1
    12     1    11    1
    13     1     7    1
    14    18    17    1
    15     7    16    1
    16    16    17    1
    17    16    15    1
    18    17    22    1
    19    22    13    1
    20    21    15    1
    21    15    14    1
    22    14    13    1
    23    14    20    1
    24    13    19    2
