@<TRIPOS>MOLECULE
3nbd_LBT_A_1.pdb
 23 24 0 0 0
SMALL
GASTEIGER

@<TRIPOS>ATOM
      1  C1        15.9710   26.3290    1.2540 C.3   675  LBT675      0.2695
      2  C2        16.4650   25.4010    2.4350 C.3   675  LBT675      0.2406
      3  C3        16.2700   23.9000    2.0450 C.3   675  LBT675      0.2198
      4  C4        14.7940   23.6550    1.6040 C.3   675  LBT675      0.2144
      5  C5        14.4100   24.5850    0.4440 C.3   675  LBT675      0.1835
      6  C6        12.9260   24.4450   -0.0180 C.3   675  LBT675      0.2142
      7  O1        16.0020   27.6940    1.6810 O.3   675  LBT675     -0.3257
      8  O2        17.8460   25.6870    2.7670 O.3   675  LBT675     -0.2149
      9  O3        16.6680   23.0510    3.1590 O.3   675  LBT675     -0.2174
     10  O4        13.8690   23.8660    2.7390 O.3   675  LBT675     -0.2176
     11  O5        14.5700   25.9970    0.9100 O.3   675  LBT675     -0.3256
     12  O6        12.5720   25.3260   -1.0990 O.3   675  LBT675     -0.2176
     13  C1'       15.7600   31.5840    0.2350 C.3   675  LBT675      0.3023
     14  C2'       14.5220   30.7350   -0.1610 C.3   675  LBT675      0.2433
     15  C3'       14.5710   29.3460    0.5420 C.3   675  LBT675      0.2168
     16  C4'       15.9490   28.7290    0.6460 C.3   675  LBT675      0.1804
     17  C5'       17.1190   29.7220    0.8520 C.3   675  LBT675      0.1804
     18  C6'       18.5400   29.1250    0.6560 C.3   675  LBT675      0.2141
     19  O1'       15.5180   32.1000    1.4830 O.3   675  LBT675     -0.1869
     20  O2'       13.2710   31.3790    0.0680 O.3   675  LBT675     -0.2148
     21  O3'       13.5790   28.5340    0.0210 O.3   675  LBT675     -0.2175
     22  O5'       17.0050   30.8860    0.0220 O.3   675  LBT675     -0.3237
     23  O6'       19.6330   30.0180    1.0180 O.3   675  LBT675     -0.2176
@<TRIPOS>BOND
     1    12     6    1
     2    14    20    1
     3    14    13    1
     4    14    15    1
     5     6     5    1
     6    21    15    1
     7    22    13    1
     8    22    17    1
     9    13    19    1
    10     5    11    1
    11     5     4    1
    12    15    16    1
    13    16    17    1
    14    16     7    1
    15    18    17    1
    16    18    23    1
    17    11     1    1
    18     1     7    1
    19     1     2    1
    20     4     3    1
    21     4    10    1
    22     3     2    1
    23     3     9    1
    24     2     8    1
