@<TRIPOS>MOLECULE
3nbe_DLD_A_1.pdb
 34 35 0 0 0
SMALL
GASTEIGER

@<TRIPOS>ATOM
      1  O11       13.8530   31.3890   -0.9660 O.3   580  DLD580     -0.3276
      2  C12       13.0190   32.4390   -0.2170 C.3   580  DLD580      0.1653
      3  C13       12.8500   33.6310   -1.0920 C.3   580  DLD580      0.1430
      4  N14       11.8850   33.3480   -2.1820 N.3   580  DLD580     -0.1099
      5  N15       11.4160   32.2650   -2.5590 N.3   580  DLD580     -0.0190
      6  N16       10.5380   32.4400   -3.5130 N.3   580  DLD580     -0.0014
      7  C1A       15.3140   25.1080    0.8840 C.3   580  DLD580      0.2586
      8  C1B       14.0090   30.1770   -0.1930 C.3   580  DLD580      0.2586
      9  C2A       15.7900   24.3630    2.1460 C.3   580  DLD580      0.1842
     10  N2A       17.1120   24.8250    2.6310 N.am  580  DLD580     -0.1992
     11  C2B       13.5150   28.9820   -1.0500 C.3   580  DLD580      0.1841
     12  N2B       12.0980   29.2250   -1.5150 N.am  580  DLD580     -0.1992
     13  C3A       15.8570   22.9210    1.8230 C.3   580  DLD580      0.2094
     14  O3A       16.3160   22.0900    2.9510 O.3   580  DLD580     -0.2183
     15  C3B       13.6160   27.6800   -0.2230 C.3   580  DLD580      0.2062
     16  O3B       13.2750   26.5630   -1.0770 O.3   580  DLD580     -0.2184
     17  C4A       14.4350   22.4500    1.3870 C.3   580  DLD580      0.2136
     18  O4A       13.4960   22.7810    2.4380 O.3   580  DLD580     -0.2176
     19  C4B       15.0720   27.5320    0.3000 C.3   580  DLD580      0.1795
     20  O4B       15.2100   26.3740    1.2480 O.3   580  DLD580     -0.3264
     21  C5A       14.0140   23.2860    0.1710 C.3   580  DLD580      0.1834
     22  O5A       13.9900   24.6710    0.5800 O.3   580  DLD580     -0.3262
     23  C5B       15.5780   28.8290    0.9350 C.3   580  DLD580      0.1803
     24  O5B       15.3710   29.9670    0.0520 O.3   580  DLD580     -0.3263
     25  C6A       12.6370   22.9320   -0.4270 C.3   580  DLD580      0.2142
     26  O6A       12.4400   23.8080   -1.6000 O.3   580  DLD580     -0.2176
     27  C6B       17.0150   28.8760    1.3930 C.3   580  DLD580      0.2141
     28  O6B       17.8450   28.6730    0.3220 O.3   580  DLD580     -0.2176
     29  C7A       17.2390   25.6030    3.6650 C.2   580  DLD580      0.2420
     30  O7A       16.3220   26.0440    4.2850 O.2   580  DLD580     -0.2733
     31  C7B       11.0890   29.3260   -0.6250 C.2   580  DLD580      0.2420
     32  O7B       11.1880   29.2420    0.6640 O.2   580  DLD580     -0.2733
     33  C8A       18.6330   25.9180    4.0790 C.3   580  DLD580      0.0964
     34  C8B        9.7480   29.5460   -1.2390 C.3   580  DLD580      0.0964
@<TRIPOS>BOND
     1     6     5    1
     2     5     4    1
     3     4     3    1
     4    26    25    1
     5    12    11    1
     6    12    31   am
     7    34    31    1
     8     3     2    1
     9    16    15    1
    10    11    15    1
    11    11     8    1
    12     1     2    1
    13     1     8    1
    14    31    32    2
    15    25    21    1
    16    15    19    1
    17     8    24    1
    18    24    23    1
    19    21    22    1
    20    21    17    1
    21    19    23    1
    22    19    20    1
    23    28    27    1
    24    22     7    1
    25     7    20    1
    26     7     9    1
    27    23    27    1
    28    17    13    1
    29    17    18    1
    30    13     9    1
    31    13    14    1
    32     9    10    1
    33    10    29   am
    34    29    33    1
    35    29    30    2
