@<TRIPOS>MOLECULE
3nbf_8OD_A_1.pdb
 28 30 0 0 0
SMALL
GASTEIGER

@<TRIPOS>ATOM
      1  N1       -40.8970  -10.6640  -15.6530 N.2   500  8OD500      0.0031
      2  C2       -42.1440  -10.9340  -16.0950 C.3   500  8OD500      0.5255
      3  N3       -42.9280  -10.0960  -16.7800 N.2   500  8OD500     -0.0031
      4  C4       -42.3820   -8.9000  -17.0340 C.2   500  8OD500      0.3790
      5  C5       -41.1220   -8.5450  -16.6190 C.2   500  8OD500      0.3193
      6  C6       -40.3560   -9.4650  -15.9040 C.2   500  8OD500      0.4527
      7  N6       -39.0680   -9.1640  -15.4640 N.pl3 500  8OD500      0.2193
      8  N7       -40.8300   -7.2110  -17.0500 N.2   500  8OD500     -0.2868
      9  C8       -41.9860   -6.7700  -17.7470 C.1   500  8OD500      0.3663
     10  O8       -42.1510   -5.6640  -18.2730 O.2   500  8OD500     -0.1677
     11  N9       -42.9640   -7.8010  -17.7290 N.am  500  8OD500     -0.0561
     12  PA       -44.4130   -9.8810  -23.9010 P.3   500  8OD500      0.2231
     13  PB       -41.5590  -10.6350  -24.4310 P.3   500  8OD500      0.5373
     14  C1'      -44.2990   -7.8060  -18.3730 C.3   500  8OD500      0.3330
     15  O1A      -45.3460   -8.9260  -24.6330 O.2   500  8OD500     -0.5169
     16  O1B      -41.8950  -12.1150  -24.1480 O.3   500  8OD500     -0.1143
     17  C2'      -44.8850   -6.4130  -18.6460 C.3   500  8OD500      0.2581
     18  O2'      -46.2060   -6.3410  -18.1160 O.3   500  8OD500     -0.2130
     19  O2A      -44.9260  -11.3090  -23.7120 O.3   500  8OD500     -0.4370
     20  O2B      -40.6650  -10.4000  -25.6710 O.2   500  8OD500     -0.2221
     21  C3'      -44.9130   -6.3210  -20.1850 C.3   500  8OD500      0.2185
     22  O3'      -46.0560   -5.6300  -20.7000 O.3   500  8OD500     -0.2174
     23  O3A      -43.0000   -9.8900  -24.7710 O.3   500  8OD500     -0.2261
     24  O3B      -40.9710   -9.9520  -23.1680 O.3   500  8OD500     -0.1143
     25  C4'      -44.8460   -7.7710  -20.6690 C.3   500  8OD500      0.1822
     26  O4'      -44.0980   -8.4330  -19.6530 O.3   500  8OD500     -0.3127
     27  C5'      -44.1200   -7.8900  -22.0200 C.3   500  8OD500      0.1813
     28  O5'      -43.9750   -9.2560  -22.4420 O.3   500  8OD500     -0.3111
@<TRIPOS>BOND
     1    20    13    2
     2    23    13    1
     3    23    12    1
     4    15    12    2
     5    13    16    1
     6    13    24    1
     7    12    19    1
     8    12    28    1
     9    28    27    1
    10    27    25    1
    11    22    21    1
    12    25    21    1
    13    25    26    1
    14    21    17    1
    15    26    14    1
    16    17    14    1
    17    17    18    1
    18    14    11    1
    19    10     9    2
    20     9    11   am
    21     9     8    2
    22    11     4    1
    23     8     5    2
    24     4     3    2
    25     4     5    1
    26     3     2    1
    27     5     6    1
    28     2     1    1
    29     6     1    2
    30     6     7    1
