@<TRIPOS>MOLECULE
3nbf_8OP_C_1.pdb
 24 26 0 0 0
SMALL
GASTEIGER

@<TRIPOS>ATOM
      1  P        -41.3550  -51.1420  -35.1350 P.3   501  8OP501      0.5327
      2  O1P      -40.9920  -50.1760  -36.2740 O.2   501  8OP501     -0.2224
      3  O2P      -40.9220  -52.6070  -35.3920 O.3   501  8OP501     -0.1145
      4  O3P      -42.8460  -50.9730  -34.7420 O.3   501  8OP501     -0.1145
      5  O50      -40.4880  -50.6680  -33.8280 O.3   501  8OP501     -0.2675
      6  C50      -40.5720  -51.3330  -32.5580 C.3   501  8OP501      0.1860
      7  C40      -39.8020  -50.4680  -31.5410 C.3   501  8OP501      0.1823
      8  O40      -40.2270  -49.1070  -31.5720 O.3   501  8OP501     -0.3127
      9  C30      -39.8570  -50.9660  -30.0910 C.3   501  8OP501      0.2185
     10  O30      -38.8460  -51.9470  -29.9050 O.3   501  8OP501     -0.2174
     11  C20      -39.5300  -49.6840  -29.3320 C.3   501  8OP501      0.2581
     12  O20      -38.1300  -49.5400  -29.0630 O.3   501  8OP501     -0.2130
     13  C10      -39.9360  -48.5530  -30.2940 C.3   501  8OP501      0.3330
     14  N9       -41.0470  -47.7350  -29.7390 N.am  501  8OP501     -0.0561
     15  C8       -40.9350  -46.3830  -29.3280 C.1   501  8OP501      0.3663
     16  O8       -39.8980  -45.7020  -29.2800 O.2   501  8OP501     -0.1677
     17  N7       -42.2190  -45.9120  -28.9630 N.2   501  8OP501     -0.2868
     18  C5       -43.1240  -46.9880  -29.1580 C.2   501  8OP501      0.3193
     19  C6       -44.5040  -47.0550  -28.9630 C.2   501  8OP501      0.4527
     20  N6       -45.2160  -45.9470  -28.4950 N.pl3 501  8OP501      0.2193
     21  N1       -45.1170  -48.2190  -29.2220 N.2   501  8OP501      0.0031
     22  C2       -44.3800  -49.2660  -29.6610 C.3   501  8OP501      0.5255
     23  N3       -43.0580  -49.2350  -29.8850 N.2   501  8OP501     -0.0031
     24  C4       -42.4320  -48.0880  -29.6180 C.2   501  8OP501      0.3790
@<TRIPOS>BOND
     1     2     1    2
     2     3     1    1
     3     1     4    1
     4     1     5    1
     5     5     6    1
     6     6     7    1
     7     8     7    1
     8     8    13    1
     9     7     9    1
    10    13    14    1
    11    13    11    1
    12     9    10    1
    13     9    11    1
    14    23    22    1
    15    23    24    2
    16    14    24    1
    17    14    15   am
    18    22    21    1
    19    24    18    1
    20    11    12    1
    21    15    16    2
    22    15    17    2
    23    21    19    2
    24    18    17    2
    25    18    19    1
    26    19    20    1
