@<TRIPOS>MOLECULE
3nbk_PNS_A_1.pdb
 22 21 0 0 0
SMALL
GASTEIGER

@<TRIPOS>ATOM
      1  O23       54.7680  -18.6280    2.3120 O.3   200  PNS200     -0.1145
      2  P24       55.8590  -19.6280    2.0160 P.3   200  PNS200      0.5326
      3  O25       56.1230  -20.6110    3.1310 O.3   200  PNS200     -0.1145
      4  O26       55.7770  -20.2510    0.6430 O.2   200  PNS200     -0.2224
      5  O27       57.1980  -18.7370    1.9580 O.3   200  PNS200     -0.2702
      6  C28       58.4630  -19.3460    1.7060 C.3   200  PNS200      0.1565
      7  C29       59.5310  -18.2690    1.5850 C.3   200  PNS200      0.0647
      8  C30       59.1970  -17.3360    0.4300 C.3   200  PNS200      0.0056
      9  C31       59.6180  -17.4770    2.8820 C.3   200  PNS200      0.0056
     10  C32       60.8770  -18.9320    1.3150 C.3   200  PNS200      0.2312
     11  O33       60.7570  -19.8180    0.1960 O.3   200  PNS200     -0.2131
     12  C34       61.9010  -17.8790    1.0120 C.2   200  PNS200      0.2719
     13  O35       62.3640  -17.1890    1.9050 O.2   200  PNS200     -0.2706
     14  N36       62.2620  -17.7510   -0.2620 N.am  200  PNS200     -0.2028
     15  C37       63.2290  -16.8120   -0.8090 C.3   200  PNS200      0.1249
     16  C38       64.4790  -17.6420   -1.0730 C.3   200  PNS200      0.1105
     17  C39       65.3210  -17.6970    0.1800 C.2   200  PNS200      0.2474
     18  O40       65.5760  -16.6770    0.8000 O.2   200  PNS200     -0.2729
     19  N41       65.7540  -18.8980    0.5510 N.am  200  PNS200     -0.1773
     20  C42       66.4610  -19.0200    1.5870 C.2   200  PNS200      0.0961
     21  C43       65.9130  -19.4540    2.7190 C.2   200  PNS200      0.0600
     22  S44       66.8620  -19.6180    4.1080 S.3   200  PNS200     -0.0487
@<TRIPOS>BOND
     1    16    15    1
     2    16    17    1
     3    15    14    1
     4    14    12   am
     5    17    19   am
     6    17    18    2
     7    11    10    1
     8     8     7    1
     9    19    20    1
    10     4     2    2
    11    12    10    1
    12    12    13    2
    13    10     7    1
    14     7     6    1
    15     7     9    1
    16    20    21    2
    17     6     5    1
    18     5     2    1
    19     2     1    1
    20     2     3    1
    21    21    22    1
