@<TRIPOS>MOLECULE
3nbl_DXF_A_1.pdb
 29 30 0 0 0
SMALL
GASTEIGER

@<TRIPOS>ATOM
      1  C        -11.5210  -11.3660    5.1490 C.3     1  DXF1        0.2065
      2  N        -10.0100  -12.1800    3.3440 N.am    1  DXF1       -0.1963
      3  O        -12.3570  -10.6240    4.2720 O.3     1  DXF1       -0.2184
      4  CA       -10.3090  -11.8890    4.7160 C.3     1  DXF1        0.1610
      5  CB        -9.3040  -10.8370    5.1780 C.3     1  DXF1        0.1734
      6  CAA      -10.4000  -16.8280    1.2990 C.3     1  DXF1        0.2885
      7  NAB       -7.7810   -4.5040    1.9410 N.am    1  DXF1       -0.0472
      8  OAD       -7.8290   -5.3160   -0.1440 O.2     1  DXF1       -0.2223
      9  OAE      -11.0940   -7.1430    5.6070 O.co2   1  DXF1       -0.2389
     10  OAF       -9.3570  -14.1620    3.9610 O.2     1  DXF1       -0.2665
     11  OAG      -10.5830   -6.4130    3.7020 O.co2   1  DXF1       -0.2389
     12  CAI       -9.1000  -11.4300   -1.3300 C.ar    1  DXF1        0.0438
     13  CAJ       -8.4670  -10.7880   -0.3480 C.ar    1  DXF1        0.1797
     14  CAK       -9.5640  -12.5990   -0.8760 C.ar    1  DXF1        0.0426
     15  CAL       -8.4510   -7.1600    2.5290 C.2     1  DXF1        0.1827
     16  CAM       -7.7160   -9.7100    3.0510 C.3     1  DXF1        0.0906
     17  NAN       -9.2000  -14.9220    0.8600 N.2     1  DXF1       -0.0750
     18  NAP       -9.9130   -9.5080    5.1140 N.2     1  DXF1       -0.2532
     19  OAQ       -9.2380  -16.0490    1.6370 O.2     1  DXF1       -0.3729
     20  OAR       -7.5740   -6.8410    1.5210 O.3     1  DXF1       -0.4051
     21  OAS       -8.5440  -11.5730    0.7640 O.2     1  DXF1       -0.4486
     22  SAT       -7.6590  -10.9510    4.4260 S.3     1  DXF1       -0.1103
     23  CAU       -7.7350   -5.5250    1.0710 C.2     1  DXF1        0.4457
     24  CAV      -10.4850   -7.2540    4.5450 C.2     1  DXF1        0.4045
     25  CAW       -9.5940  -13.3380    2.9480 C.2     1  DXF1        0.2889
     26  CAX       -8.5970   -8.4820    3.3460 C.2     1  DXF1        0.0502
     27  CAY       -9.5050  -13.7540    1.4280 C.2     1  DXF1        0.2083
     28  CAZ       -9.6100   -8.4800    4.3170 C.2     1  DXF1        0.1564
     29  CBA       -9.2610  -12.6740    0.4130 C.ar    1  DXF1        0.1707
@<TRIPOS>BOND
     1    12    14   ar
     2    12    13   ar
     3    14    29   ar
     4    13    21   ar
     5     8    23    2
     6    29    21   ar
     7    29    27    1
     8    17    27    2
     9    17    19    1
    10    23    20    1
    11    23     7   am
    12     6    19    1
    13    27    25    1
    14    20    15    1
    15    15    26    2
    16    25     2   am
    17    25    10    2
    18    16    26    1
    19    16    22    1
    20     2     4    1
    21    26    28    1
    22    11    24   ar
    23     3     1    1
    24    28    24    1
    25    28    18    2
    26    22     5    1
    27    24     9   ar
    28     4     1    1
    29     4     5    1
    30    18     5    1
