@<TRIPOS>MOLECULE
3nbp_JGZ_A_1.pdb
 34 37 0 0 0
SMALL
GASTEIGER

@<TRIPOS>ATOM
      1  C1        47.9270   61.8140   15.9960 C.2   562  JGZ562      0.2945
      2  C2        47.3230   60.9860   15.0760 C.2   562  JGZ562      0.0943
      3  C3        47.9980   60.8090   13.8520 C.2   562  JGZ562      0.1178
      4  N4        49.1870   61.4220   13.5880 N.2   562  JGZ562     -0.1684
      5  C5        49.7610   62.2320   14.4940 C.1   562  JGZ562      0.1681
      6  N6        49.1220   62.3860   15.6530 N.2   562  JGZ562     -0.2988
      7  O7        47.3490   62.0550   17.1960 O.3   562  JGZ562     -0.4275
      8  C8        48.0520   62.8920   18.0910 C.ar  562  JGZ562      0.1402
      9  N9        50.9690   62.8810   14.2650 N.pl3 562  JGZ562     -0.1637
     10  C10       51.4520   63.8230   15.2250 C.3   562  JGZ562      0.1081
     11  C11       52.9660   63.8340   15.2500 C.3   562  JGZ562      0.0439
     12  C12       53.5270   65.1410   15.8490 C.3   562  JGZ562      0.0926
     13  N13       53.0250   66.3200   15.1230 N.pl3 562  JGZ562     -0.3074
     14  C14       51.5830   66.3380   15.2690 C.3   562  JGZ562      0.0926
     15  C15       50.9560   65.1080   14.6120 C.3   562  JGZ562      0.0439
     16  C16       53.5410   67.6030   15.4520 C.ar  562  JGZ562      0.0479
     17  C17       53.3760   68.6470   14.5320 C.ar  562  JGZ562      0.0159
     18  C18       53.8720   69.9210   14.7950 C.ar  562  JGZ562      0.0213
     19  C19       54.5370   70.1850   16.0130 C.ar  562  JGZ562      0.1251
     20  C20       54.7020   69.1630   16.9520 C.ar  562  JGZ562      0.0213
     21  C21       54.2100   67.8910   16.6640 C.ar  562  JGZ562      0.0159
     22  C22       48.1630   64.2730   17.8340 C.ar  562  JGZ562      0.0131
     23  C23       48.8810   65.0680   18.6750 C.ar  562  JGZ562      0.0090
     24  C24       49.4900   64.5630   19.8240 C.ar  562  JGZ562      0.0680
     25  C25       49.3820   63.2140   20.1290 C.ar  562  JGZ562      0.0090
     26  C26       48.6810   62.3830   19.2660 C.ar  562  JGZ562      0.0131
     27  C27       48.5970   60.9130   19.6040 C.3   562  JGZ562      0.0342
     28  C28       47.5040   64.9170   16.6270 C.3   562  JGZ562      0.0342
     29  C29       50.2240   65.4670   20.6550 C.1   562  JGZ562      0.1004
     30  N30       50.8060   66.1840   21.3120 N.1   562  JGZ562     -0.1908
     31  S31       55.1250   71.8220   16.3470 S.O2  562  JGZ562      0.0935
     32  N32       54.0780   72.8540   15.5750 N.3   562  JGZ562      0.0392
     33  O33       55.0210   71.9700   17.7410 O.2   562  JGZ562     -0.1503
     34  O34       56.3470   71.9790   15.6550 O.2   562  JGZ562     -0.1503
@<TRIPOS>BOND
     1     4     3    1
     2     4     5    2
     3     3     2    2
     4     9     5    1
     5     9    10    1
     6     5     6    2
     7    17    18   ar
     8    17    16   ar
     9    15    10    1
    10    15    14    1
    11    18    19   ar
    12     2     1    1
    13    13    14    1
    14    13    16    1
    15    13    12    1
    16    10    11    1
    17    11    12    1
    18    16    21   ar
    19    32    31    1
    20     6     1    2
    21    34    31    2
    22     1     7    1
    23    19    31    1
    24    19    20   ar
    25    31    33    2
    26    28    22    1
    27    21    20   ar
    28     7     8    1
    29    22     8   ar
    30    22    23   ar
    31     8    26   ar
    32    23    24   ar
    33    26    27    1
    34    26    25   ar
    35    24    25   ar
    36    24    29    1
    37    29    30    3
