@<TRIPOS>MOLECULE
3nbr_ASD_A_1.pdb
 21 24 0 0 0
SMALL
GASTEIGER

@<TRIPOS>ATOM
      1  C1         3.0250   49.6890   14.7580 C.3   129  ASD129      0.0118
      2  C10        3.5490   51.0980   14.8180 C.3   129  ASD129      0.0157
      3  C11        3.0060   51.6420   17.3210 C.3   129  ASD129      0.0007
      4  C12        2.3330   52.5930   18.3390 C.3   129  ASD129      0.0069
      5  C13        2.7560   54.0110   18.0000 C.3   129  ASD129      0.0515
      6  C14        2.2760   54.3470   16.5860 C.3   129  ASD129      0.0070
      7  C15        2.4770   55.8900   16.5020 C.3   129  ASD129      0.0082
      8  C16        1.8200   56.3750   17.8120 C.3   129  ASD129      0.0645
      9  C17        2.0780   55.1600   18.7800 C.2   129  ASD129      0.1498
     10  C18        4.2830   54.1610   18.1590 C.3   129  ASD129      0.0073
     11  C19        5.0390   51.1450   15.2300 C.3   129  ASD129      0.0041
     12  C2         4.0990   48.8570   14.0510 C.3   129  ASD129      0.0694
     13  C3         4.2840   49.3150   12.5860 C.2   129  ASD129      0.1725
     14  C4         4.0850   50.6970   12.2920 C.2   129  ASD129      0.0289
     15  C5         3.6630   51.5760   13.3240 C.2   129  ASD129     -0.0420
     16  C6         3.4510   53.0610   13.0420 C.3   129  ASD129      0.0221
     17  C7         2.5060   53.7040   14.0850 C.3   129  ASD129      0.0044
     18  C8         2.9760   53.4620   15.5240 C.3   129  ASD129      0.0010
     19  C9         2.7380   51.9870   15.8260 C.3   129  ASD129      0.0035
     20  O1         4.6810   48.4740   11.7510 O.2   129  ASD129     -0.2914
     21  O2         1.8490   55.1310   19.9920 O.2   129  ASD129     -0.2961
@<TRIPOS>BOND
     1    20    13    2
     2    14    13    1
     3    14    15    2
     4    13    12    1
     5    16    15    1
     6    16    17    1
     7    15     2    1
     8    12     1    1
     9    17    18    1
    10     1     2    1
    11     2    11    1
    12     2    19    1
    13    18    19    1
    14    18     6    1
    15    19     3    1
    16     7     6    1
    17     7     8    1
    18     6     5    1
    19     3     4    1
    20     8     9    1
    21     5    10    1
    22     5     4    1
    23     5     9    1
    24     9    21    2
