@<TRIPOS>MOLECULE
3nbs_HEM_A_1.pdb
 43 50 0 0 0
SMALL
GASTEIGER

@<TRIPOS>ATOM
      1  CHA        3.2630   -9.8140    1.4580 C.2   105  HEM105      0.0000
      2  CHB        7.1930   -8.9880    4.0120 C.2   105  HEM105      0.0000
      3  CHC        6.3930   -4.2940    3.6810 C.2   105  HEM105      0.0000
      4  CHD        2.0470   -5.2390    2.0170 C.2   105  HEM105      0.0000
      5  C1A        4.4850  -10.0060    2.0980 C.2   105  HEM105      0.0000
      6  C2A        5.0550  -11.2570    2.3240 C.2   105  HEM105      0.0000
      7  C3A        6.1730  -11.0160    3.0850 C.2   105  HEM105      0.0000
      8  C4A        6.2240   -9.6380    3.2560 C.2   105  HEM105      0.0000
      9  CMA        7.1190  -12.0590    3.6440 C.3   105  HEM105      0.0000
     10  CAA        4.5290  -12.6220    1.9320 C.3   105  HEM105      0.0000
     11  CBA        3.5160  -13.1110    2.9420 C.3   105  HEM105      0.0000
     12  CGA        2.9000  -14.4390    2.5910 C.2   105  HEM105      0.0000
     13  O1A        2.1610  -14.9760    3.4440 O.co2 105  HEM105      0.0000
     14  O2A        3.1380  -14.9400    1.4710 O.co2 105  HEM105      0.0000
     15  C1B        7.3200   -7.6070    4.1610 C.ar  105  HEM105      0.0000
     16  C2B        8.3380   -7.0120    4.8920 C.ar  105  HEM105      0.0000
     17  C3B        8.2000   -5.6590    4.6420 C.ar  105  HEM105      0.0000
     18  C4B        6.9980   -5.5170    3.9600 C.ar  105  HEM105      0.0000
     19  CMB        9.3690   -7.7100    5.7680 C.3   105  HEM105      0.0000
     20  CAB        9.0930   -4.6430    4.9430 C.3   105  HEM105      0.0000
     21  CBB       10.4820   -4.7950    4.5780 C.3   105  HEM105      0.0000
     22  C1C        5.1350   -4.1300    3.1120 C.2   105  HEM105      0.0000
     23  C2C        4.5230   -2.8930    2.9830 C.2   105  HEM105      0.0000
     24  C3C        3.2070   -3.1680    2.6400 C.2   105  HEM105      0.0000
     25  C4C        3.1750   -4.5320    2.4310 C.2   105  HEM105      0.0000
     26  CMC        5.2290   -1.5730    3.2120 C.3   105  HEM105      0.0000
     27  CAC        2.1290   -2.2910    2.4830 C.3   105  HEM105      0.0000
     28  CBC        2.2330   -0.9670    1.8650 C.3   105  HEM105      0.0000
     29  C1D        1.9970   -6.5990    1.6930 C.ar  105  HEM105      0.0000
     30  C2D        0.9180   -7.2070    1.0740 C.ar  105  HEM105      0.0000
     31  C3D        1.3720   -8.4540    0.6970 C.ar  105  HEM105      0.0000
     32  C4D        2.5720   -8.6010    1.3690 C.ar  105  HEM105      0.0000
     33  CMD       -0.4710   -6.6090    0.8380 C.3   105  HEM105      0.0000
     34  CAD        0.7340   -9.4400   -0.2690 C.3   105  HEM105      0.0000
     35  CBD        0.7220   -8.9040   -1.6930 C.3   105  HEM105      0.0000
     36  CGD        0.2710   -9.9210   -2.7150 C.2   105  HEM105      0.0000
     37  O1D       -0.8070  -10.5200   -2.5140 O.co2 105  HEM105      0.0000
     38  O2D        0.9890  -10.1090   -3.7240 O.co2 105  HEM105      0.0000
     39  NA         5.2290   -8.9990    2.6010 N.2   105  HEM105      0.0000
     40  NB         6.4840   -6.7090    3.6050 N.ar  105  HEM105      0.0000
     41  NC         4.3640   -5.1230    2.6510 N.2   105  HEM105      0.0000
     42  ND         2.9950   -7.4470    1.9200 N.ar  105  HEM105      0.0000
     43 FE          4.7470   -7.0690    2.7530 Fe    105  HEM105      0.0000
@<TRIPOS>BOND
     1    38    36   ar
     2    36    37   ar
     3    36    35    1
     4    35    34    1
     5    34    31    1
     6    31    30   ar
     7    31    32   ar
     8    33    30    1
     9    30    29   ar
    10    32     1    2
    11    32    42   ar
    12     1     5    1
    13    14    12   ar
    14    29    42   ar
    15    29     4    2
    16    28    27    1
    17    42    43    1
    18    10     6    1
    19    10    11    1
    20     4    25    1
    21     5     6    1
    22     5    39    2
    23     6     7    2
    24    25    24    1
    25    25    41    2
    26    27    24    1
    27    12    11    1
    28    12    13   ar
    29    39    43    1
    30    39     8    1
    31    24    23    2
    32    41    43    1
    33    41    22    1
    34    43    40    1
    35    23    22    1
    36    23    26    1
    37     7     8    1
    38     7     9    1
    39    22     3    2
    40     8     2    2
    41    40    18   ar
    42    40    15   ar
    43     3    18    1
    44    18    17   ar
    45     2    15    1
    46    15    16   ar
    47    21    20    1
    48    17    16   ar
    49    17    20    1
    50    16    19    1
