@<TRIPOS>MOLECULE
3nbt_HEM_A_1.pdb
 43 50 0 0 0
SMALL
GASTEIGER

@<TRIPOS>ATOM
      1  CHA       23.0500  -10.7190    4.5100 C.2   105  HEM105      0.0000
      2  CHB       19.7240  -13.6180    2.6820 C.2   105  HEM105      0.0000
      3  CHC       16.8220   -9.8740    2.0520 C.2   105  HEM105      0.0000
      4  CHD       20.4320   -6.9720    3.2330 C.2   105  HEM105      0.0000
      5  C1A       22.3710  -11.8810    4.1260 C.ar  105  HEM105      0.0000
      6  C2A       22.8870  -13.1620    4.2800 C.ar  105  HEM105      0.0000
      7  C3A       21.9270  -13.9800    3.7420 C.ar  105  HEM105      0.0000
      8  C4A       20.8940  -13.1550    3.3130 C.ar  105  HEM105      0.0000
      9  CMA       22.0170  -15.4920    3.6250 C.3   105  HEM105      0.0000
     10  CAA       24.2270  -13.6370    4.8380 C.3   105  HEM105      0.0000
     11  CBA       25.3350  -13.5960    3.7750 C.3   105  HEM105      0.0000
     12  CGA       26.6970  -14.0480    4.2910 C.2   105  HEM105      0.0000
     13  O1A       27.6400  -14.1200    3.4780 O.co2 105  HEM105      0.0000
     14  O2A       26.8360  -14.3220    5.5020 O.co2 105  HEM105      0.0000
     15  C1B       18.6260  -12.8480    2.2880 C.2   105  HEM105      0.0000
     16  C2B       17.4950  -13.3600    1.6420 C.2   105  HEM105      0.0000
     17  C3B       16.6060  -12.3070    1.5840 C.2   105  HEM105      0.0000
     18  C4B       17.3060  -11.1900    2.0500 C.2   105  HEM105      0.0000
     19  CMB       17.3180  -14.7920    1.1260 C.3   105  HEM105      0.0000
     20  CAB       15.2710  -12.3540    1.1940 C.3   105  HEM105      0.0000
     21  CBB       14.3810  -13.2990    1.8670 C.3   105  HEM105      0.0000
     22  C1C       17.5590   -8.7220    2.3590 C.ar  105  HEM105      0.0000
     23  C2C       17.0680   -7.4270    2.1950 C.ar  105  HEM105      0.0000
     24  C3C       18.1530   -6.6040    2.3910 C.ar  105  HEM105      0.0000
     25  C4C       19.1850   -7.4300    2.8240 C.ar  105  HEM105      0.0000
     26  CMC       15.6310   -7.0180    1.8530 C.3   105  HEM105      0.0000
     27  CAC       18.2070   -5.2170    2.2280 C.3   105  HEM105      0.0000
     28  CBC       17.1690   -4.3450    2.7370 C.3   105  HEM105      0.0000
     29  C1D       21.4530   -7.7710    3.7270 C.2   105  HEM105      0.0000
     30  C2D       22.6360   -7.2450    4.2410 C.2   105  HEM105      0.0000
     31  C3D       23.3220   -8.3200    4.7780 C.2   105  HEM105      0.0000
     32  C4D       22.5980   -9.4230    4.3480 C.2   105  HEM105      0.0000
     33  CMD       23.0780   -5.7830    4.2270 C.3   105  HEM105      0.0000
     34  CAD       24.5540   -8.2770    5.6820 C.3   105  HEM105      0.0000
     35  CBD       24.2450   -7.6500    7.0460 C.3   105  HEM105      0.0000
     36  CGD       25.4090   -7.6860    8.0270 C.2   105  HEM105      0.0000
     37  O1D       26.5710   -7.4810    7.6110 O.co2 105  HEM105      0.0000
     38  O2D       25.1500   -7.9060    9.2350 O.co2 105  HEM105      0.0000
     39  NA        21.1460  -11.8540    3.5700 N.ar  105  HEM105      0.0000
     40  NB        18.5410  -11.5190    2.4990 N.2   105  HEM105      0.0000
     41  NC        18.8290   -8.7360    2.8200 N.ar  105  HEM105      0.0000
     42  ND        21.4150   -9.1140    3.7770 N.2   105  HEM105      0.0000
     43 FE         19.9650  -10.3190    3.1250 Fe    105  HEM105      0.0000
@<TRIPOS>BOND
     1    19    16    1
     2    20    17    1
     3    20    21    1
     4    17    16    2
     5    17    18    1
     6    16    15    1
     7    26    23    1
     8    18     3    2
     9    18    40    1
    10     3    22    1
    11    23    22   ar
    12    23    24   ar
    13    27    24    1
    14    27    28    1
    15    15    40    2
    16    15     2    1
    17    22    41   ar
    18    24    25   ar
    19    40    43    1
    20     2     8    2
    21    41    25   ar
    22    41    43    1
    23    25     4    1
    24    43    39    1
    25    43    42    1
    26     4    29    2
    27     8    39   ar
    28     8     7   ar
    29    13    12   ar
    30    39     5   ar
    31     9     7    1
    32    29    42    1
    33    29    30    1
    34     7     6   ar
    35    11    12    1
    36    11    10    1
    37    42    32    2
    38     5     6   ar
    39     5     1    2
    40    33    30    1
    41    30    31    2
    42     6    10    1
    43    12    14   ar
    44    32     1    1
    45    32    31    1
    46    31    34    1
    47    34    35    1
    48    35    36    1
    49    37    36   ar
    50    36    38   ar
