@<TRIPOS>MOLECULE
3nbv_ANP_A_1.pdb
 31 33 0 0 0
SMALL
GASTEIGER

@<TRIPOS>ATOM
      1  PG        -5.1980    7.2360   20.9740 P.3   299  ANP299      0.4884
      2  O1G       -4.0500    7.8190   21.7620 O.3   299  ANP299     -0.1240
      3  O2G       -6.1080    8.1560   20.2010 O.2   299  ANP299     -0.2331
      4  O3G       -6.0970    6.3620   21.9950 O.3   299  ANP299     -0.1240
      5  PB        -5.8550    4.8630   19.7020 P.3   299  ANP299      0.4669
      6  O1B       -7.0610    5.5450   19.0970 O.2   299  ANP299     -0.2351
      7  O2B       -5.9520    4.1230   21.0260 O.3   299  ANP299     -0.1253
      8  N3B       -4.5870    5.9820   19.9590 N.3   299  ANP299     -0.0163
      9  PA        -6.0230    3.1040   17.3870 P.3   299  ANP299      0.2220
     10  O1A       -6.0980    4.1210   16.2680 O.2   299  ANP299     -0.5170
     11  O2A       -7.2520    2.3620   17.8980 O.3   299  ANP299     -0.4370
     12  O3A       -5.2700    3.7880   18.6390 O.3   299  ANP299     -0.2360
     13  O5'       -4.9050    1.9800   16.9910 O.3   299  ANP299     -0.3111
     14  C5'       -3.7450    2.4010   16.2660 C.3   299  ANP299      0.1813
     15  C4'       -2.8160    1.1980   16.1670 C.3   299  ANP299      0.1821
     16  O4'       -2.3430    0.8410   17.4900 O.3   299  ANP299     -0.3135
     17  C3'       -3.5050   -0.0690   15.6150 C.3   299  ANP299      0.2184
     18  O3'       -3.4810   -0.1030   14.1940 O.3   299  ANP299     -0.2174
     19  C2'       -2.5820   -1.1840   16.1510 C.3   299  ANP299      0.2570
     20  O2'       -1.4290   -1.2050   15.4770 O.3   299  ANP299     -0.2130
     21  C1'       -2.3720   -0.6100   17.5760 C.3   299  ANP299      0.3186
     22  N9        -3.3550   -1.0120   18.5410 N.pl3 299  ANP299     -0.1439
     23  C8        -4.3720   -0.2330   19.0520 C.3   299  ANP299      0.3377
     24  N7        -5.1430   -0.9090   19.8880 N.2   299  ANP299     -0.2095
     25  C5        -4.6110   -2.1840   19.8850 C.2   299  ANP299      0.2526
     26  C6        -4.9730   -3.3600   20.5620 C.2   299  ANP299      0.4393
     27  N6        -6.0460   -3.4270   21.4220 N.pl3 299  ANP299      0.2180
     28  N1        -4.2220   -4.4790   20.3520 N.2   299  ANP299      0.0021
     29  C2        -3.1620   -4.4310   19.5060 C.3   299  ANP299      0.5254
     30  N3        -2.7350   -3.3590   18.8160 N.2   299  ANP299     -0.0055
     31  C4        -3.5000   -2.2700   19.0500 C.2   299  ANP299      0.3518
@<TRIPOS>BOND
     1    18    17    1
     2    20    19    1
     3    17    19    1
     4    17    15    1
     5    19    21    1
     6    15    14    1
     7    15    16    1
     8    14    13    1
     9    10     9    2
    10    13     9    1
    11     9    11    1
    12     9    12    1
    13    16    21    1
    14    21    22    1
    15    22    31    1
    16    22    23    1
    17    12     5    1
    18    30    31    2
    19    30    29    1
    20    31    25    1
    21    23    24    1
    22     6     5    2
    23    29    28    1
    24     5     8    1
    25     5     7    1
    26    25    24    2
    27    25    26    1
    28     8     1    1
    29     3     1    2
    30    28    26    2
    31    26    27    1
    32     1     2    1
    33     1     4    1
