@<TRIPOS>MOLECULE
3nbv_FRU_A_1.pdb
 12 12 0 0 0
SMALL
GASTEIGER

@<TRIPOS>ATOM
      1  C1        -3.9730   10.6680   22.5630 C.3   300  FRU300      0.2434
      2  C2        -3.8590   12.1850   22.8540 C.3   300  FRU300      0.2807
      3  C3        -3.6610   12.4570   24.3760 C.3   300  FRU300      0.2409
      4  C4        -4.2590   13.8850   24.3970 C.3   300  FRU300      0.2168
      5  C5        -5.4270   13.8000   23.3690 C.3   300  FRU300      0.1836
      6  C6        -5.7460   15.1550   22.7250 C.3   300  FRU300      0.2142
      7  O1        -3.5970   10.5570   21.2230 O.3   300  FRU300     -0.2148
      8  O2        -2.8220   12.8050   22.1810 O.3   300  FRU300     -0.1896
      9  O3        -2.3190   12.4730   24.7240 O.3   300  FRU300     -0.2149
     10  O4        -4.7690   14.1860   25.6530 O.3   300  FRU300     -0.2175
     11  O5        -5.0620   12.8240   22.4190 O.3   300  FRU300     -0.3253
     12  O6        -6.4060   14.9310   21.5130 O.3   300  FRU300     -0.2176
@<TRIPOS>BOND
     1     7     1    1
     2    12     6    1
     3     8     2    1
     4    11     2    1
     5    11     5    1
     6     1     2    1
     7     6     5    1
     8     2     3    1
     9     5     4    1
    10     3     4    1
    11     3     9    1
    12     4    10    1
