@<TRIPOS>MOLECULE
3nbw_TR4_A_1.pdb
 16 17 0 0 0
SMALL
GASTEIGER

@<TRIPOS>ATOM
      1  C01       -2.1790   -1.3830   14.1260 C.3   301  TR4301      0.0757
      2  S02       -1.4100   -0.3430   15.3440 S.3   301  TR4301     -0.0916
      3  C03       -2.1880   -0.7100   16.8140 C.ar  301  TR4301      0.1392
      4  N04       -2.2370   -1.9170   17.4120 N.ar  301  TR4301     -0.1568
      5  N05       -2.9760   -1.7880   18.5160 N.ar  301  TR4301     -0.2117
      6  C06       -3.4840   -0.4810   18.7100 C.ar  301  TR4301      0.1826
      7  N07       -4.2800   -0.0430   19.7290 N.pl3 301  TR4301     -0.1064
      8  C08       -2.9560    0.2300   17.5990 C.ar  301  TR4301      0.1282
      9  C09       -3.1520    1.5710   17.3130 C.1   301  TR4301      0.1055
     10  N10       -3.3070    2.6860   17.0460 N.1   301  TR4301     -0.1907
     11  C11       -3.3000   -2.8610   19.3590 C.ar  301  TR4301      0.0843
     12  C12       -3.3680   -2.6230   20.7350 C.ar  301  TR4301      0.0192
     13  C13       -3.7180   -3.6990   21.5340 C.ar  301  TR4301      0.0015
     14  C14       -3.9880   -4.9510   20.9710 C.ar  301  TR4301      0.0001
     15  C15       -3.9160   -5.1620   19.5900 C.ar  301  TR4301      0.0015
     16  C16       -3.5670   -4.0980   18.7710 C.ar  301  TR4301      0.0192
@<TRIPOS>BOND
     1     1     2    1
     2     2     3    1
     3     3     4   ar
     4     3     8   ar
     5    10     9    3
     6     9     8    1
     7     4     5   ar
     8     8     6   ar
     9     5     6   ar
    10     5    11    1
    11     6     7    1
    12    16    11   ar
    13    16    15   ar
    14    11    12   ar
    15    15    14   ar
    16    12    13   ar
    17    14    13   ar
