@<TRIPOS>MOLECULE
3nbx_ADP_X_1.pdb
 27 29 0 0 0
SMALL
GASTEIGER

@<TRIPOS>ATOM
      1  PB        22.7240   20.6040   49.8100 P.3   800  ADP800      0.5373
      2  O1B       21.6210   20.9470   50.7780 O.3   800  ADP800     -0.1143
      3  O2B       22.7120   21.3690   48.5120 O.2   800  ADP800     -0.2221
      4  O3B       22.9780   19.1350   49.6100 O.3   800  ADP800     -0.1143
      5  PA        24.3250   20.8160   52.1190 P.3   800  ADP800      0.2231
      6  O1A       23.6300   21.8280   52.9950 O.3   800  ADP800     -0.4370
      7  O2A       24.1300   19.3370   52.3440 O.2   800  ADP800     -0.5169
      8  O3A       24.0220   21.1420   50.5760 O.3   800  ADP800     -0.2261
      9  O5'       25.9040   21.1180   52.1410 O.3   800  ADP800     -0.3111
     10  C5'       26.4700   21.9190   53.1690 C.3   800  ADP800      0.1813
     11  C4'       27.8950   21.4570   53.4410 C.3   800  ADP800      0.1821
     12  O4'       28.7030   21.6460   52.2770 O.3   800  ADP800     -0.3135
     13  C3'       28.5210   22.2840   54.5390 C.3   800  ADP800      0.2184
     14  O3'       29.4070   21.4470   55.2840 O.3   800  ADP800     -0.2174
     15  C2'       29.2720   23.3760   53.7960 C.3   800  ADP800      0.2570
     16  O2'       30.4620   23.7830   54.4890 O.3   800  ADP800     -0.2130
     17  C1'       29.5720   22.7720   52.4250 C.3   800  ADP800      0.3186
     18  N9        29.3380   23.7070   51.2870 N.pl3 800  ADP800     -0.1439
     19  C8        28.9350   23.3240   50.0600 C.3   800  ADP800      0.3377
     20  N7        28.8080   24.3810   49.2190 N.2   800  ADP800     -0.2095
     21  C5        29.1440   25.4810   49.9100 C.2   800  ADP800      0.2526
     22  C6        29.2330   26.9330   49.6240 C.2   800  ADP800      0.4393
     23  N6        28.9250   27.4300   48.4030 N.pl3 800  ADP800      0.2180
     24  N1        29.6320   27.7510   50.6270 N.2   800  ADP800      0.0021
     25  C2        29.9390   27.2800   51.8520 C.3   800  ADP800      0.5254
     26  N3        29.8800   25.9740   52.1760 N.2   800  ADP800     -0.0055
     27  C4        29.4980   25.0370   51.2690 C.2   800  ADP800      0.3518
@<TRIPOS>BOND
     1    23    22    1
     2     3     1    2
     3    20    21    2
     4    20    19    1
     5     4     1    1
     6    22    21    1
     7    22    24    2
     8     1     8    1
     9     1     2    1
    10    21    27    1
    11    19    18    1
    12     8     5    1
    13    24    25    1
    14    27    18    1
    15    27    26    2
    16    18    17    1
    17    25    26    1
    18     5     9    1
    19     5     7    2
    20     5     6    1
    21     9    10    1
    22    12    17    1
    23    12    11    1
    24    17    15    1
    25    10    11    1
    26    11    13    1
    27    15    16    1
    28    15    13    1
    29    13    14    1
