@<TRIPOS>MOLECULE
3nby_GTP_C_1.pdb
 32 34 0 0 0
SMALL
GASTEIGER

@<TRIPOS>ATOM
      1  PG        34.5720 -102.1440  -43.9880 P.3   217  GTP217      0.5373
      2  O1G       34.5250 -101.1880  -45.1510 O.2   217  GTP217     -0.2221
      3  O2G       33.1930 -102.2510  -43.3480 O.3   217  GTP217     -0.1143
      4  O3G       35.0330 -103.4750  -44.4860 O.3   217  GTP217     -0.1143
      5  O3B       35.6450 -101.5490  -42.9340 O.3   217  GTP217     -0.2258
      6  PB        36.9100 -102.3420  -42.3330 P.3   217  GTP217      0.2277
      7  O1B       38.1940 -102.0490  -43.0540 O.2   217  GTP217     -0.5168
      8  O2B       36.6770 -103.8220  -42.2570 O.3   217  GTP217     -0.4368
      9  O3A       36.9820 -101.6550  -40.8880 O.3   217  GTP217     -0.2700
     10  PA        35.6090 -101.2500  -40.1840 P.3   217  GTP217      0.2189
     11  O1A       34.4140 -101.7360  -40.9810 O.2   217  GTP217     -0.5170
     12  O2A       35.6080  -99.7570  -40.0790 O.3   217  GTP217     -0.4371
     13  O5'       35.6050 -101.9920  -38.7450 O.3   217  GTP217     -0.3112
     14  C5'       35.8380 -101.2690  -37.5530 C.3   217  GTP217      0.1813
     15  C4'       36.3020 -102.1000  -36.3600 C.3   217  GTP217      0.1799
     16  O4'       37.4180 -101.4470  -35.7950 O.3   217  GTP217     -0.3326
     17  C3'       35.2760 -102.1040  -35.2570 C.3   217  GTP217      0.2158
     18  O3'       35.6590 -103.1580  -34.3970 O.3   217  GTP217     -0.2175
     19  C2'       35.5520 -100.8300  -34.5200 C.3   217  GTP217      0.2310
     20  O2'       35.1410 -101.1340  -33.2120 O.3   217  GTP217     -0.2158
     21  C1'       37.0820 -100.7550  -34.6120 C.3   217  GTP217      0.2293
     22  N9        37.8060  -99.4650  -34.7930 N.pl3 217  GTP217     -0.2354
     23  C8        37.7750  -98.6860  -35.9010 C.3   217  GTP217      0.2246
     24  N7        38.6000  -97.6310  -35.7150 N.2   217  GTP217     -0.2322
     25  C5        39.2040  -97.7060  -34.5090 C.2   217  GTP217      0.2182
     26  C6        40.1430  -96.8830  -33.8250 C.1   217  GTP217      0.2372
     27  O6        40.6380  -95.8250  -34.2770 O.2   217  GTP217     -0.2069
     28  N1        40.5470  -97.2710  -32.5660 N.2   217  GTP217     -0.2485
     29  C2        40.0370  -98.4270  -32.0060 C.1   217  GTP217      0.2531
     30  N2        40.4230  -98.8090  -30.7880 N.pl3 217  GTP217     -0.0226
     31  N3        39.1300  -99.2070  -32.7000 N.2   217  GTP217     -0.3074
     32  C4        38.7110  -98.8730  -33.9360 C.2   217  GTP217      0.2300
@<TRIPOS>BOND
     1     2     1    2
     2     4     1    1
     3     1     3    1
     4     1     5    1
     5     7     6    2
     6     5     6    1
     7     6     8    1
     8     6     9    1
     9    11    10    2
    10     9    10    1
    11    10    12    1
    12    10    13    1
    13    13    14    1
    14    14    15    1
    15    15    16    1
    16    15    17    1
    17    23    24    1
    18    23    22    1
    19    16    21    1
    20    24    25    2
    21    17    19    1
    22    17    18    1
    23    22    21    1
    24    22    32    1
    25    21    19    1
    26    19    20    1
    27    25    32    1
    28    25    26    1
    29    27    26    2
    30    32    31    2
    31    26    28    2
    32    31    29    2
    33    28    29    2
    34    29    30    1
