@<TRIPOS>MOLECULE
3nbz_GTP_C_1.pdb
 32 34 0 0 0
SMALL
GASTEIGER

@<TRIPOS>ATOM
      1  PG        35.2170 -101.9670  -44.7420 P.3   217  GTP217      0.5373
      2  O1G       35.1970 -101.1220  -46.0020 O.2   217  GTP217     -0.2221
      3  O2G       33.8110 -102.2190  -44.2280 O.3   217  GTP217     -0.1143
      4  O3G       35.9210 -103.2690  -45.0250 O.3   217  GTP217     -0.1143
      5  O3B       36.0770 -101.1930  -43.6200 O.3   217  GTP217     -0.2258
      6  PB        37.3010 -101.9860  -42.9590 P.3   217  GTP217      0.2277
      7  O1B       38.6080 -101.5400  -43.5760 O.2   217  GTP217     -0.5168
      8  O2B       37.1360 -103.4720  -43.1030 O.3   217  GTP217     -0.4368
      9  O3A       37.2430 -101.5480  -41.4190 O.3   217  GTP217     -0.2700
     10  PA        35.8780 -101.2140  -40.6400 P.3   217  GTP217      0.2189
     11  O1A       34.6270 -101.8240  -41.2360 O.2   217  GTP217     -0.5170
     12  O2A       35.7680  -99.7220  -40.4890 O.3   217  GTP217     -0.4371
     13  O5'       36.1200 -101.8840  -39.2130 O.3   217  GTP217     -0.3112
     14  C5'       37.0120 -101.2590  -38.3480 C.3   217  GTP217      0.1813
     15  C4'       37.0040 -102.0190  -37.0440 C.3   217  GTP217      0.1799
     16  O4'       38.0710 -101.4750  -36.3190 O.3   217  GTP217     -0.3326
     17  C3'       35.7540 -101.6960  -36.2610 C.3   217  GTP217      0.2158
     18  O3'       35.5440 -102.7280  -35.3310 O.3   217  GTP217     -0.2175
     19  C2'       36.1100 -100.4550  -35.4840 C.3   217  GTP217      0.2310
     20  O2'       35.4580 -100.4740  -34.2330 O.3   217  GTP217     -0.2158
     21  C1'       37.6130 -100.5940  -35.3220 C.3   217  GTP217      0.2293
     22  N9        38.3060  -99.3150  -35.5070 N.pl3 217  GTP217     -0.2354
     23  C8        38.3510  -98.5180  -36.6220 C.3   217  GTP217      0.2246
     24  N7        39.1150  -97.4380  -36.3250 N.2   217  GTP217     -0.2322
     25  C5        39.5580  -97.5470  -35.0410 C.2   217  GTP217      0.2182
     26  C6        40.3570  -96.7550  -34.2180 C.1   217  GTP217      0.2372
     27  O6        40.8470  -95.6930  -34.6100 O.2   217  GTP217     -0.2069
     28  N1        40.6160  -97.1660  -32.9320 N.2   217  GTP217     -0.2485
     29  C2        40.0950  -98.3420  -32.4570 C.1   217  GTP217      0.2531
     30  N2        40.3490  -98.7350  -31.2140 N.pl3 217  GTP217     -0.0226
     31  N3        39.3160  -99.1150  -33.2750 N.2   217  GTP217     -0.3074
     32  C4        39.0560  -98.7270  -34.5330 C.2   217  GTP217      0.2300
@<TRIPOS>BOND
     1     2     1    2
     2     4     1    1
     3     1     3    1
     4     1     5    1
     5     5     6    1
     6     7     6    2
     7     8     6    1
     8     6     9    1
     9     9    10    1
    10    11    10    2
    11    10    12    1
    12    10    13    1
    13    13    14    1
    14    14    15    1
    15    15    16    1
    16    15    17    1
    17    23    24    1
    18    23    22    1
    19    24    25    2
    20    16    21    1
    21    17    19    1
    22    17    18    1
    23    22    21    1
    24    22    32    1
    25    19    21    1
    26    19    20    1
    27    25    32    1
    28    25    26    1
    29    27    26    2
    30    32    31    2
    31    26    28    2
    32    31    29    2
    33    28    29    2
    34    29    30    1
