@<TRIPOS>MOLECULE
3nc0_GTP_C_1.pdb
 32 34 0 0 0
SMALL
GASTEIGER

@<TRIPOS>ATOM
      1  PG        36.7950 -104.0630  -44.3140 P.3   217  GTP217      0.5373
      2  O1G       35.5230 -103.3100  -44.6570 O.3   217  GTP217     -0.1143
      3  O2G       36.5680 -105.5580  -44.2970 O.3   217  GTP217     -0.1143
      4  O3G       37.8460 -103.7640  -45.3570 O.2   217  GTP217     -0.2221
      5  O3B       37.3120 -103.5880  -42.8590 O.3   217  GTP217     -0.2258
      6  PB        37.4080 -102.0220  -42.4790 P.3   217  GTP217      0.2277
      7  O1B       36.2250 -101.2810  -43.0560 O.2   217  GTP217     -0.5168
      8  O2B       38.7120 -101.4370  -42.9670 O.3   217  GTP217     -0.4368
      9  O3A       37.3490 -101.9500  -40.8750 O.3   217  GTP217     -0.2700
     10  PA        36.0510 -101.4250  -40.0900 P.3   217  GTP217      0.2189
     11  O1A       34.8000 -101.9780  -40.7300 O.2   217  GTP217     -0.5170
     12  O2A       36.0300  -99.9160  -40.0320 O.3   217  GTP217     -0.4371
     13  O5'       36.2060 -102.0700  -38.6230 O.3   217  GTP217     -0.3112
     14  C5'       37.4430 -102.0150  -37.9560 C.3   217  GTP217      0.1813
     15  C4'       37.3010 -102.5260  -36.5280 C.3   217  GTP217      0.1799
     16  O4'       38.3210 -101.9250  -35.7560 O.3   217  GTP217     -0.3326
     17  C3'       35.9940 -102.0960  -35.8980 C.3   217  GTP217      0.2158
     18  O3'       35.6380 -103.0530  -34.9320 O.3   217  GTP217     -0.2175
     19  C2'       36.3320 -100.8150  -35.1820 C.3   217  GTP217      0.2310
     20  O2'       35.5320 -100.6860  -34.0340 O.3   217  GTP217     -0.2158
     21  C1'       37.7930 -101.0090  -34.8160 C.3   217  GTP217      0.2293
     22  N9        38.5270  -99.7380  -34.9360 N.pl3 217  GTP217     -0.2354
     23  C8        38.5770  -98.9150  -36.0290 C.3   217  GTP217      0.2246
     24  N7        39.3610  -97.8550  -35.7260 N.2   217  GTP217     -0.2322
     25  C5        39.8150  -97.9940  -34.4570 C.2   217  GTP217      0.2182
     26  C6        40.6410  -97.2110  -33.6550 C.1   217  GTP217      0.2372
     27  O6        41.1140  -96.1570  -34.0810 O.2   217  GTP217     -0.2069
     28  N1        40.9290  -97.6240  -32.3720 N.2   217  GTP217     -0.2485
     29  C2        40.4030  -98.8030  -31.8900 C.1   217  GTP217      0.2531
     30  N2        40.6790  -99.2050  -30.6560 N.pl3 217  GTP217     -0.0226
     31  N3        39.5880  -99.5710  -32.6910 N.2   217  GTP217     -0.3074
     32  C4        39.2980  -99.1750  -33.9530 C.2   217  GTP217      0.2300
@<TRIPOS>BOND
     1     4     1    2
     2     2     1    1
     3     1     3    1
     4     1     5    1
     5     7     6    2
     6     8     6    1
     7     5     6    1
     8     6     9    1
     9     9    10    1
    10    11    10    2
    11    10    12    1
    12    10    13    1
    13    13    14    1
    14    14    15    1
    15    15    17    1
    16    15    16    1
    17    23    24    1
    18    23    22    1
    19    17    19    1
    20    17    18    1
    21    16    21    1
    22    24    25    2
    23    19    21    1
    24    19    20    1
    25    22    21    1
    26    22    32    1
    27    25    32    1
    28    25    26    1
    29    27    26    2
    30    32    31    2
    31    26    28    2
    32    31    29    2
    33    28    29    2
    34    29    30    1
