@<TRIPOS>MOLECULE
3nc1_GTP_C_1.pdb
 32 34 0 0 0
SMALL
GASTEIGER

@<TRIPOS>ATOM
      1  PG       -31.7440   68.8960  -32.9080 P.3   181  GTP181      0.5373
      2  O1G      -32.9070   69.5720  -32.2240 O.3   181  GTP181     -0.1143
      3  O2G      -32.1000   68.5870  -34.3400 O.2   181  GTP181     -0.2221
      4  O3G      -30.5500   69.8190  -32.9000 O.3   181  GTP181     -0.1143
      5  O3B      -31.3830   67.5350  -32.1180 O.3   181  GTP181     -0.2258
      6  PB       -31.3230   67.5360  -30.5080 P.3   181  GTP181      0.2277
      7  O1B      -32.6360   68.0680  -29.9840 O.3   181  GTP181     -0.4368
      8  O2B      -30.1850   68.4010  -30.0230 O.2   181  GTP181     -0.5168
      9  O3A      -31.1390   66.0130  -30.0010 O.3   181  GTP181     -0.2700
     10  PA       -32.1200   64.8020  -30.4120 P.3   181  GTP181      0.2189
     11  O1A      -32.5880   64.9390  -31.8390 O.2   181  GTP181     -0.5170
     12  O2A      -33.2970   64.7320  -29.4700 O.3   181  GTP181     -0.4371
     13  O5'      -31.2200   63.4710  -30.2830 O.3   181  GTP181     -0.3112
     14  C5'      -30.9710   62.9440  -29.0000 C.3   181  GTP181      0.1813
     15  C4'      -29.8220   61.9480  -28.9980 C.3   181  GTP181      0.1799
     16  O4'      -29.1220   62.1070  -27.7830 O.3   181  GTP181     -0.3326
     17  C3'      -30.3520   60.5260  -29.0360 C.3   181  GTP181      0.2158
     18  O3'      -29.8430   59.8550  -30.1640 O.3   181  GTP181     -0.2175
     19  C2'      -29.8380   59.8650  -27.7740 C.3   181  GTP181      0.2310
     20  O2'      -29.1660   58.6630  -28.0710 O.3   181  GTP181     -0.2158
     21  C1'      -28.8940   60.8730  -27.1370 C.3   181  GTP181      0.2293
     22  N9       -29.2000   61.0340  -25.7030 N.pl3 181  GTP181     -0.2354
     23  C8       -30.0520   61.9570  -25.1520 C.3   181  GTP181      0.2246
     24  N7       -30.0510   61.7920  -23.8100 N.2   181  GTP181     -0.2322
     25  C5       -29.2030   60.7900  -23.4920 C.2   181  GTP181      0.2182
     26  C6       -28.8340   60.2270  -22.2750 C.1   181  GTP181      0.2372
     27  O6       -29.3170   60.6520  -21.2250 O.2   181  GTP181     -0.2069
     28  N1       -27.9240   59.1890  -22.2550 N.2   181  GTP181     -0.2485
     29  C2       -27.3890   58.7200  -23.4390 C.1   181  GTP181      0.2531
     30  N2       -26.5120   57.7190  -23.4180 N.pl3 181  GTP181     -0.0226
     31  N3       -27.7620   59.2870  -24.6420 N.2   181  GTP181     -0.3074
     32  C4       -28.6560   60.3060  -24.6720 C.2   181  GTP181      0.2300
@<TRIPOS>BOND
     1     3     1    2
     2     1     4    1
     3     1     2    1
     4     1     5    1
     5     5     6    1
     6    11    10    2
     7     6     8    2
     8     6     9    1
     9     6     7    1
    10    10    13    1
    11    10     9    1
    12    10    12    1
    13    13    14    1
    14    18    17    1
    15    17    15    1
    16    17    19    1
    17    14    15    1
    18    15    16    1
    19    20    19    1
    20    16    21    1
    21    19    21    1
    22    21    22    1
    23    22    23    1
    24    22    32    1
    25    23    24    1
    26    32    31    2
    27    32    25    1
    28    31    29    2
    29    24    25    2
    30    25    26    1
    31    29    30    1
    32    29    28    2
    33    26    28    2
    34    26    27    2
