@<TRIPOS>MOLECULE
3nc2_QUZ_A_1.pdb
 10 11 0 0 0
SMALL
GASTEIGER

@<TRIPOS>ATOM
      1  C01       -3.9760    0.6280   18.9430 C.2   299  QUZ299     -0.0038
      2  C02       -2.7800    0.3060   18.2520 C.2   299  QUZ299      0.0009
      3  C03       -2.2000   -0.9310   18.3540 C.2   299  QUZ299      0.0150
      4  C04       -2.7990   -1.9420   19.1700 C.2   299  QUZ299      0.0653
      5  N05       -2.2260   -3.2090   19.2960 N.2   299  QUZ299     -0.2480
      6  C06       -2.8990   -4.0440   20.0940 C.3   299  QUZ299      0.2501
      7  N07       -4.0860   -3.8070   20.8120 N.2   299  QUZ299     -0.2468
      8  C08       -4.6150   -2.6010   20.6790 C.2   299  QUZ299      0.0790
      9  C09       -4.0100   -1.5910   19.8590 C.3   299  QUZ299      0.1027
     10  C10       -4.5860   -0.3080   19.7390 C.2   299  QUZ299     -0.0145
@<TRIPOS>BOND
     1     2     3    2
     2     2     1    1
     3     3     4    1
     4     1    10    2
     5     4     5    2
     6     4     9    1
     7     5     6    1
     8    10     9    1
     9     9     8    1
    10     6     7    1
    11     8     7    2
