@<TRIPOS>MOLECULE
3nc3_HEM_A_1.pdb
 43 50 0 0 0
SMALL
GASTEIGER

@<TRIPOS>ATOM
      1  CHA       28.7750  -21.2410  -11.3130 C.2   406  HEM406      0.0000
      2  CHB       29.7780  -16.7540   -9.7800 C.2   406  HEM406      0.0000
      3  CHC       34.3750  -17.1870  -11.1300 C.2   406  HEM406      0.0000
      4  CHD       33.4870  -21.7690  -12.3970 C.2   406  HEM406      0.0000
      5  C1A       28.6600  -19.9990  -10.7430 C.2   406  HEM406      0.0000
      6  C2A       27.4670  -19.4130  -10.1440 C.2   406  HEM406      0.0000
      7  C3A       27.7540  -18.1890   -9.7230 C.2   406  HEM406      0.0000
      8  C4A       29.1400  -17.9430  -10.0450 C.2   406  HEM406      0.0000
      9  CMA       26.8030  -17.1950   -9.0280 C.3   406  HEM406      0.0000
     10  CAA       26.0890  -20.0500   -9.9960 C.3   406  HEM406      0.0000
     11  CBA       26.1510  -21.2560   -9.0580 C.3   406  HEM406      0.0000
     12  CGA       24.7040  -21.5900   -8.7460 C.2   406  HEM406      0.0000
     13  O1A       24.2520  -21.3670   -7.5840 O.co2 406  HEM406      0.0000
     14  O2A       23.9780  -22.0560   -9.6760 O.co2 406  HEM406      0.0000
     15  C1B       31.1030  -16.5070   -9.9550 C.ar  406  HEM406      0.0000
     16  C2B       31.7870  -15.3350   -9.4420 C.ar  406  HEM406      0.0000
     17  C3B       33.0810  -15.4480   -9.8130 C.ar  406  HEM406      0.0000
     18  C4B       33.2180  -16.6970  -10.5590 C.ar  406  HEM406      0.0000
     19  CMB       31.0990  -14.2030   -8.6290 C.3   406  HEM406      0.0000
     20  CAB       34.2480  -14.4770   -9.4880 C.2   406  HEM406      0.0000
     21  CBB       34.3560  -13.2160   -9.9240 C.2   406  HEM406      0.0000
     22  C1C       34.5170  -18.4690  -11.6020 C.2   406  HEM406      0.0000
     23  C2C       35.7290  -19.0600  -12.1080 C.2   406  HEM406      0.0000
     24  C3C       35.4660  -20.3230  -12.4350 C.2   406  HEM406      0.0000
     25  C4C       34.0930  -20.5700  -12.1500 C.2   406  HEM406      0.0000
     26  CMC       37.0630  -18.3140  -12.2180 C.3   406  HEM406      0.0000
     27  CAC       36.3720  -21.4020  -13.0170 C.2   406  HEM406      0.0000
     28  CBC       37.6360  -21.4850  -12.5930 C.2   406  HEM406      0.0000
     29  C1D       32.1410  -21.9990  -12.3600 C.ar  406  HEM406      0.0000
     30  C2D       31.4920  -23.1110  -12.9970 C.ar  406  HEM406      0.0000
     31  C3D       30.0040  -22.9540  -12.6740 C.ar  406  HEM406      0.0000
     32  C4D       29.9170  -21.7600  -11.8610 C.ar  406  HEM406      0.0000
     33  CMD       32.1660  -24.2060  -13.8380 C.3   406  HEM406      0.0000
     34  CAD       28.8720  -23.8940  -13.1270 C.3   406  HEM406      0.0000
     35  CBD       27.8810  -23.2110  -14.0730 C.3   406  HEM406      0.0000
     36  CGD       27.3860  -24.2140  -15.1000 C.2   406  HEM406      0.0000
     37  O1D       26.6480  -25.1740  -14.7050 O.co2 406  HEM406      0.0000
     38  O2D       27.7240  -24.0520  -16.3110 O.co2 406  HEM406      0.0000
     39  NA        29.6600  -19.0720  -10.6690 N.2   406  HEM406      0.0000
     40  NB        31.9870  -17.3160  -10.6280 N.ar  406  HEM406      0.0000
     41  NC        33.5300  -19.4200  -11.6420 N.2   406  HEM406      0.0000
     42  ND        31.1930  -21.2300  -11.6960 N.ar  406  HEM406      0.0000
     43 FE         31.5820  -19.3040  -11.0540 Fe    406  HEM406      0.0000
@<TRIPOS>BOND
     1    38    36   ar
     2    36    37   ar
     3    36    35    1
     4    35    34    1
     5    33    30    1
     6    34    31    1
     7    27    28    2
     8    27    24    1
     9    30    31   ar
    10    30    29   ar
    11    31    32   ar
    12    24    25    1
    13    24    23    2
    14     4    29    2
    15     4    25    1
    16    29    42   ar
    17    26    23    1
    18    25    41    2
    19    23    22    1
    20    32    42   ar
    21    32     1    2
    22    42    43    1
    23    41    22    1
    24    41    43    1
    25    22     3    2
    26     1     5    1
    27     3    18    1
    28    43    39    1
    29    43    40    1
    30     5    39    2
    31     5     6    1
    32    39     8    1
    33    40    18   ar
    34    40    15   ar
    35    18    17   ar
    36     6    10    1
    37     6     7    2
    38     8     2    2
    39     8     7    1
    40    10    11    1
    41    15     2    1
    42    15    16   ar
    43    21    20    2
    44    17    20    1
    45    17    16   ar
    46     7     9    1
    47    14    12   ar
    48    16    19    1
    49    11    12    1
    50    12    13   ar
