@<TRIPOS>MOLECULE
3nc4_26O_A_1.pdb
 24 25 0 0 0
SMALL
GASTEIGER

@<TRIPOS>ATOM
      1  C1        33.4640   22.8070   27.8490 C.3   998  26O998      0.2439
      2  C2        33.8170   23.0800   26.3820 C.3   998  26O998      0.2326
      3  O2        34.0110   24.4760   26.1600 O.3   998  26O998     -0.2157
      4  C3        32.6990   22.5210   25.4850 C.3   998  26O998      0.2190
      5  O3        33.0320   22.6650   24.1010 O.3   998  26O998     -0.2174
      6  C4        32.4340   21.0410   25.7940 C.3   998  26O998      0.2144
      7  O4        31.2660   20.6220   25.0870 O.3   998  26O998     -0.2176
      8  C5        32.2410   20.8310   27.3040 C.3   998  26O998      0.1828
      9  O5        33.3590   21.3850   28.0090 O.3   998  26O998     -0.3315
     10  C6        32.0780   19.3720   27.7270 C.3   998  26O998      0.2142
     11  O6        33.1730   18.5820   27.2390 O.3   998  26O998     -0.2176
     12  NAL       34.5500   23.2690   28.7160 N.am  998  26O998     -0.1850
     13  CAM       34.3470   23.9480   29.8570 C.2   998  26O998      0.1965
     14  NAN       35.4190   24.2960   30.5710 N.am  998  26O998     -0.0932
     15  SAO       32.7870   24.3730   30.3890 S.2   998  26O998     -0.0134
     16  NAP       35.3300   24.9270   31.6370 N.2   998  26O998     -0.1554
     17  CAQ       36.3820   25.2240   32.2800 C.2   998  26O998      0.1228
     18  CAR       36.3840   25.9870   33.5590 C.ar  998  26O998      0.0597
     19  CAS       35.2130   26.4440   34.1880 C.ar  998  26O998      0.1972
     20  CAT       35.3210   27.1730   35.3740 C.ar  998  26O998      0.0421
     21  CAU       36.5660   27.4330   35.9450 C.ar  998  26O998      0.0033
     22  CAV       37.7280   26.9880   35.3150 C.ar  998  26O998      0.0003
     23  CAW       37.6330   26.2690   34.1280 C.ar  998  26O998      0.0048
     24  OAX       33.9530   26.2090   33.6810 O.3   998  26O998     -0.2865
@<TRIPOS>BOND
     1     5     4    1
     2     7     6    1
     3     4     6    1
     4     4     2    1
     5     6     8    1
     6     3     2    1
     7     2     1    1
     8    11    10    1
     9     8    10    1
    10     8     9    1
    11     1     9    1
    12     1    12    1
    13    12    13    1
    14    13    15    2
    15    13    14    1
    16    14    16    1
    17    16    17    2
    18    17    18    1
    19    18    23   ar
    20    18    19   ar
    21    24    19    1
    22    23    22   ar
    23    19    20   ar
    24    22    21   ar
    25    20    21   ar
