@<TRIPOS>MOLECULE
3nc5_HEM_A_1.pdb
 43 50 0 0 0
SMALL
GASTEIGER

@<TRIPOS>ATOM
      1  CHA       29.0000  -21.2640  -11.1130 C.2   406  HEM406      0.0000
      2  CHB       29.8960  -16.7920   -9.4950 C.2   406  HEM406      0.0000
      3  CHC       34.4500  -17.2340  -10.8650 C.2   406  HEM406      0.0000
      4  CHD       33.7450  -21.7730  -12.1440 C.2   406  HEM406      0.0000
      5  C1A       28.8450  -20.0200  -10.5330 C.2   406  HEM406      0.0000
      6  C2A       27.6350  -19.4640   -9.9400 C.2   406  HEM406      0.0000
      7  C3A       27.9020  -18.2470   -9.4950 C.2   406  HEM406      0.0000
      8  C4A       29.2810  -17.9730   -9.8000 C.2   406  HEM406      0.0000
      9  CMA       26.9370  -17.2600   -8.7910 C.3   406  HEM406      0.0000
     10  CAA       26.2690  -20.1410   -9.7820 C.3   406  HEM406      0.0000
     11  CBA       26.4060  -20.9620   -8.5040 C.3   406  HEM406      0.0000
     12  CGA       25.0680  -21.5320   -8.0990 C.2   406  HEM406      0.0000
     13  O1A       24.6550  -21.3100   -6.9030 O.co2 406  HEM406      0.0000
     14  O2A       24.4290  -22.2070   -8.9660 O.co2 406  HEM406      0.0000
     15  C1B       31.1980  -16.5220   -9.7330 C.ar  406  HEM406      0.0000
     16  C2B       31.8450  -15.2670   -9.4360 C.ar  406  HEM406      0.0000
     17  C3B       33.1270  -15.4050   -9.8270 C.ar  406  HEM406      0.0000
     18  C4B       33.2850  -16.7410  -10.3550 C.ar  406  HEM406      0.0000
     19  CMB       31.1220  -14.0510   -8.8050 C.3   406  HEM406      0.0000
     20  CAB       34.2790  -14.3900   -9.7800 C.2   406  HEM406      0.0000
     21  CBB       34.5530  -13.7600   -8.6410 C.2   406  HEM406      0.0000
     22  C1C       34.6680  -18.4940  -11.3430 C.2   406  HEM406      0.0000
     23  C2C       35.9270  -19.0110  -11.8220 C.2   406  HEM406      0.0000
     24  C3C       35.7330  -20.2770  -12.1730 C.2   406  HEM406      0.0000
     25  C4C       34.3400  -20.5740  -11.9290 C.2   406  HEM406      0.0000
     26  CMC       37.2220  -18.1950  -11.8990 C.3   406  HEM406      0.0000
     27  CAC       36.7350  -21.2990  -12.7630 C.2   406  HEM406      0.0000
     28  CBC       37.9370  -21.5020  -12.2110 C.2   406  HEM406      0.0000
     29  C1D       32.4130  -22.0010  -12.0420 C.ar  406  HEM406      0.0000
     30  C2D       31.8120  -23.1910  -12.5970 C.ar  406  HEM406      0.0000
     31  C3D       30.3180  -23.0480  -12.3080 C.ar  406  HEM406      0.0000
     32  C4D       30.1860  -21.7790  -11.5940 C.ar  406  HEM406      0.0000
     33  CMD       32.5410  -24.3350  -13.3310 C.3   406  HEM406      0.0000
     34  CAD       29.2520  -24.0860  -12.6890 C.3   406  HEM406      0.0000
     35  CBD       28.3220  -23.5860  -13.7960 C.3   406  HEM406      0.0000
     36  CGD       27.5820  -24.7580  -14.4140 C.2   406  HEM406      0.0000
     37  O1D       27.2100  -25.7080  -13.6610 O.co2 406  HEM406      0.0000
     38  O2D       27.3580  -24.7570  -15.6620 O.co2 406  HEM406      0.0000
     39  NA        29.8330  -19.0620  -10.4340 N.2   406  HEM406      0.0000
     40  NB        32.0920  -17.4000  -10.2780 N.ar  406  HEM406      0.0000
     41  NC        33.7200  -19.4690  -11.4280 N.2   406  HEM406      0.0000
     42  ND        31.4550  -21.1940  -11.4530 N.ar  406  HEM406      0.0000
     43 FE         31.8690  -19.2710  -10.7520 Fe    406  HEM406      0.0000
@<TRIPOS>BOND
     1    38    36   ar
     2    36    35    1
     3    36    37   ar
     4    35    34    1
     5    33    30    1
     6    27    28    2
     7    27    24    1
     8    34    31    1
     9    30    31   ar
    10    30    29   ar
    11    31    32   ar
    12    24    25    1
    13    24    23    2
    14     4    29    2
    15     4    25    1
    16    29    42   ar
    17    25    41    2
    18    26    23    1
    19    23    22    1
    20    32    42   ar
    21    32     1    2
    22    42    43    1
    23    41    22    1
    24    41    43    1
    25    22     3    2
    26     1     5    1
    27     3    18    1
    28    43    39    1
    29    43    40    1
    30     5    39    2
    31     5     6    1
    32    39     8    1
    33    18    40   ar
    34    18    17   ar
    35    40    15   ar
    36     6    10    1
    37     6     7    2
    38    17    20    1
    39    17    16   ar
    40     8     2    2
    41     8     7    1
    42    10    11    1
    43    20    21    2
    44    15     2    1
    45    15    16   ar
    46     7     9    1
    47    16    19    1
    48    14    12   ar
    49    11    12    1
    50    12    13   ar
