@<TRIPOS>MOLECULE
3nc6_HEM_A_1.pdb
 43 50 0 0 0
SMALL
GASTEIGER

@<TRIPOS>ATOM
      1  CHA       29.0390  -21.5410  -11.1640 C.2   406  HEM406      0.0000
      2  CHB       29.9460  -17.0320   -9.8550 C.2   406  HEM406      0.0000
      3  CHC       34.6070  -17.6530  -10.9990 C.2   406  HEM406      0.0000
      4  CHD       33.6780  -22.1300  -12.5830 C.2   406  HEM406      0.0000
      5  C1A       28.8900  -20.2820  -10.6960 C.2   406  HEM406      0.0000
      6  C2A       27.6430  -19.7000  -10.2830 C.2   406  HEM406      0.0000
      7  C3A       27.8750  -18.4570   -9.8990 C.2   406  HEM406      0.0000
      8  C4A       29.2950  -18.2110  -10.0950 C.2   406  HEM406      0.0000
      9  CMA       26.8010  -17.4730   -9.3700 C.3   406  HEM406      0.0000
     10  CAA       26.2770  -20.4020  -10.2470 C.3   406  HEM406      0.0000
     11  CBA       26.2620  -21.0410   -8.8550 C.3   406  HEM406      0.0000
     12  CGA       24.9340  -21.7320   -8.6460 C.2   406  HEM406      0.0000
     13  O1A       24.2710  -21.4270   -7.5920 O.co2 406  HEM406      0.0000
     14  O2A       24.5510  -22.5680   -9.5370 O.co2 406  HEM406      0.0000
     15  C1B       31.2820  -16.8170  -10.0140 C.ar  406  HEM406      0.0000
     16  C2B       31.9920  -15.6150   -9.6090 C.ar  406  HEM406      0.0000
     17  C3B       33.2910  -15.7820   -9.9030 C.ar  406  HEM406      0.0000
     18  C4B       33.4410  -17.1050  -10.5190 C.ar  406  HEM406      0.0000
     19  CMB       31.3570  -14.3630   -8.9600 C.3   406  HEM406      0.0000
     20  CAB       34.4120  -14.7370   -9.6410 C.2   406  HEM406      0.0000
     21  CBB       34.6730  -13.7480  -10.5090 C.2   406  HEM406      0.0000
     22  C1C       34.7680  -18.9140  -11.5390 C.2   406  HEM406      0.0000
     23  C2C       36.0190  -19.4870  -12.0150 C.2   406  HEM406      0.0000
     24  C3C       35.7780  -20.7200  -12.4420 C.2   406  HEM406      0.0000
     25  C4C       34.3590  -20.9820  -12.2580 C.2   406  HEM406      0.0000
     26  CMC       37.4150  -18.8190  -12.0470 C.3   406  HEM406      0.0000
     27  CAC       36.8910  -21.6370  -13.0250 C.2   406  HEM406      0.0000
     28  CBC       36.6820  -22.9480  -13.2020 C.2   406  HEM406      0.0000
     29  C1D       32.3250  -22.3740  -12.4260 C.ar  406  HEM406      0.0000
     30  C2D       31.6030  -23.5350  -12.9440 C.ar  406  HEM406      0.0000
     31  C3D       30.1440  -23.3480  -12.5080 C.ar  406  HEM406      0.0000
     32  C4D       30.1490  -22.0880  -11.7620 C.ar  406  HEM406      0.0000
     33  CMD       32.1170  -24.7580  -13.7600 C.3   406  HEM406      0.0000
     34  CAD       28.9860  -24.3580  -12.7990 C.3   406  HEM406      0.0000
     35  CBD       27.7500  -23.7810  -13.5060 C.3   406  HEM406      0.0000
     36  CGD       27.2930  -24.8640  -14.4920 C.2   406  HEM406      0.0000
     37  O1D       26.4430  -25.7620  -14.1030 O.co2 406  HEM406      0.0000
     38  O2D       27.8080  -24.8360  -15.6740 O.co2 406  HEM406      0.0000
     39  NA        29.8770  -19.3610  -10.5700 N.2   406  HEM406      0.0000
     40  NB        32.1930  -17.7000  -10.5670 N.ar  406  HEM406      0.0000
     41  NC        33.7930  -19.8640  -11.7050 N.2   406  HEM406      0.0000
     42  ND        31.4300  -21.5650  -11.7390 N.ar  406  HEM406      0.0000
     43 FE         31.8210  -19.6410  -11.1670 Fe    406  HEM406      0.0000
@<TRIPOS>BOND
     1    38    36   ar
     2    36    37   ar
     3    36    35    1
     4    33    30    1
     5    35    34    1
     6    28    27    2
     7    27    24    1
     8    30    31   ar
     9    30    29   ar
    10    34    31    1
    11     4    29    2
    12     4    25    1
    13    31    32   ar
    14    24    25    1
    15    24    23    2
    16    29    42   ar
    17    25    41    2
    18    26    23    1
    19    23    22    1
    20    32    42   ar
    21    32     1    2
    22    42    43    1
    23    41    22    1
    24    41    43    1
    25    22     3    2
    26    43    39    1
    27    43    40    1
    28     1     5    1
    29     3    18    1
    30     5    39    2
    31     5     6    1
    32    39     8    1
    33    40    18   ar
    34    40    15   ar
    35    18    17   ar
    36    21    20    2
    37     6    10    1
    38     6     7    2
    39    10    11    1
    40     8     7    1
    41     8     2    2
    42    15     2    1
    43    15    16   ar
    44    17    20    1
    45    17    16   ar
    46     7     9    1
    47    16    19    1
    48    14    12   ar
    49    11    12    1
    50    12    13   ar
