@<TRIPOS>MOLECULE
3nc6_PIW_A_1.pdb
 11 12 0 0 0
SMALL
GASTEIGER

@<TRIPOS>ATOM
      1  N1        27.8880  -17.8240  -15.1710 N.ar  407  PIW407     -0.2864
      2  C2        28.9080  -17.3800  -14.4150 C.ar  407  PIW407      0.1828
      3  N3        28.9510  -18.2220  -13.3430 N.ar  407  PIW407     -0.2220
      4  C4        27.9690  -19.1580  -13.5130 C.ar  407  PIW407      0.1196
      5  C5        27.2870  -18.9190  -14.6980 C.ar  407  PIW407      0.1022
      6  C6        27.5410  -17.2900  -16.3650 C.ar  407  PIW407      0.0655
      7  C7        28.4950  -17.1050  -17.3960 C.ar  407  PIW407      0.0176
      8  C8        28.1750  -16.6000  -18.6580 C.ar  407  PIW407      0.0015
      9  C9        26.8610  -16.2390  -18.9480 C.ar  407  PIW407      0.0001
     10  C10       25.8830  -16.4070  -17.9670 C.ar  407  PIW407      0.0015
     11  C11       26.2210  -16.9270  -16.7060 C.ar  407  PIW407      0.0176
@<TRIPOS>BOND
     1     9     8   ar
     2     9    10   ar
     3     8     7   ar
     4    10    11   ar
     5     7     6   ar
     6    11     6   ar
     7     6     1    1
     8     1     5   ar
     9     1     2   ar
    10     5     4   ar
    11     2     3   ar
    12     4     3   ar
