@<TRIPOS>MOLECULE
3nc7_PIY_A_1.pdb
 11 12 0 0 0
SMALL
GASTEIGER

@<TRIPOS>ATOM
      1  N1        28.5530  -17.9660  -14.7770 N.2   407  PIY407     -0.1906
      2  C2        27.3760  -18.0300  -15.4440 C.1   407  PIY407      0.0354
      3  N3        26.5260  -18.8290  -14.7670 N.2   407  PIY407     -0.1906
      4  C4        28.4430  -18.7260  -13.6730 C.2   407  PIY407      0.1310
      5  C5        27.1730  -19.2680  -13.6710 C.2   407  PIY407      0.1310
      6  C6        27.0660  -17.3320  -16.7230 C.ar  407  PIY407      0.0624
      7  C7        28.1070  -16.8720  -17.5380 C.ar  407  PIY407      0.0100
      8  C8        27.8070  -16.2230  -18.7370 C.ar  407  PIY407      0.0007
      9  C9        26.4750  -16.0320  -19.1190 C.ar  407  PIY407      0.0000
     10  C10       25.4370  -16.4900  -18.3080 C.ar  407  PIY407      0.0007
     11  C11       25.7360  -17.1410  -17.1100 C.ar  407  PIY407      0.0100
@<TRIPOS>BOND
     1     9     8   ar
     2     9    10   ar
     3     8     7   ar
     4    10    11   ar
     5     7     6   ar
     6    11     6   ar
     7     6     2    1
     8     2     1    2
     9     2     3    2
    10     1     4    1
    11     3     5    1
    12     4     5    2
