@<TRIPOS>MOLECULE
3nc7_HEM_A_1.pdb
 43 50 0 0 0
SMALL
GASTEIGER

@<TRIPOS>ATOM
      1  CHA       28.5460  -21.4520  -11.3300 C.2   406  HEM406      0.0000
      2  CHB       29.7220  -17.1510   -9.6290 C.2   406  HEM406      0.0000
      3  CHC       34.3080  -17.7860  -11.0930 C.2   406  HEM406      0.0000
      4  CHD       33.1920  -22.2640  -12.5740 C.2   406  HEM406      0.0000
      5  C1A       28.4550  -20.2510  -10.7120 C.2   406  HEM406      0.0000
      6  C2A       27.2770  -19.6910  -10.1090 C.2   406  HEM406      0.0000
      7  C3A       27.6000  -18.4930   -9.6430 C.2   406  HEM406      0.0000
      8  C4A       28.9960  -18.2750   -9.9350 C.2   406  HEM406      0.0000
      9  CMA       26.6660  -17.5080   -8.9090 C.3   406  HEM406      0.0000
     10  CAA       25.8820  -20.3370  -10.0550 C.3   406  HEM406      0.0000
     11  CBA       25.6490  -21.1740   -8.8120 C.3   406  HEM406      0.0000
     12  CGA       24.5530  -22.1400   -9.1970 C.2   406  HEM406      0.0000
     13  O1A       24.7840  -23.3840   -9.0990 O.co2 406  HEM406      0.0000
     14  O2A       23.4480  -21.6750   -9.6190 O.co2 406  HEM406      0.0000
     15  C1B       31.0550  -16.9440   -9.8930 C.ar  406  HEM406      0.0000
     16  C2B       31.7820  -15.7460   -9.5450 C.ar  406  HEM406      0.0000
     17  C3B       33.0630  -15.9090   -9.9330 C.ar  406  HEM406      0.0000
     18  C4B       33.1710  -17.2290  -10.5470 C.ar  406  HEM406      0.0000
     19  CMB       31.1360  -14.5300   -8.8320 C.3   406  HEM406      0.0000
     20  CAB       34.2420  -14.9110   -9.7460 C.2   406  HEM406      0.0000
     21  CBB       34.3000  -13.6910  -10.2890 C.2   406  HEM406      0.0000
     22  C1C       34.4090  -19.0540  -11.6000 C.2   406  HEM406      0.0000
     23  C2C       35.6160  -19.6770  -12.0880 C.2   406  HEM406      0.0000
     24  C3C       35.3050  -20.9140  -12.4950 C.2   406  HEM406      0.0000
     25  C4C       33.8860  -21.1140  -12.2710 C.2   406  HEM406      0.0000
     26  CMC       37.0020  -19.0050  -12.1250 C.3   406  HEM406      0.0000
     27  CAC       36.2390  -21.9900  -13.1040 C.2   406  HEM406      0.0000
     28  CBC       37.4900  -22.1250  -12.6650 C.2   406  HEM406      0.0000
     29  C1D       31.8410  -22.4530  -12.4480 C.ar  406  HEM406      0.0000
     30  C2D       31.0890  -23.6000  -12.9300 C.ar  406  HEM406      0.0000
     31  C3D       29.6280  -23.3360  -12.5460 C.ar  406  HEM406      0.0000
     32  C4D       29.6620  -22.0540  -11.8640 C.ar  406  HEM406      0.0000
     33  CMD       31.6080  -24.8460  -13.6760 C.3   406  HEM406      0.0000
     34  CAD       28.3930  -24.2540  -12.8010 C.3   406  HEM406      0.0000
     35  CBD       27.3280  -23.6010  -13.6930 C.3   406  HEM406      0.0000
     36  CGD       27.2380  -24.3800  -14.9920 C.2   406  HEM406      0.0000
     37  O1D       26.7190  -25.5300  -14.9400 O.co2 406  HEM406      0.0000
     38  O2D       27.6770  -23.8830  -16.0770 O.co2 406  HEM406      0.0000
     39  NA        29.4820  -19.3750  -10.5920 N.2   406  HEM406      0.0000
     40  NB        31.9220  -17.8300  -10.5080 N.ar  406  HEM406      0.0000
     41  NC        33.3690  -19.9560  -11.7240 N.2   406  HEM406      0.0000
     42  ND        30.9660  -21.5720  -11.8320 N.ar  406  HEM406      0.0000
     43 FE         31.3400  -19.7460  -11.1260 Fe    406  HEM406      0.0000
@<TRIPOS>BOND
     1    38    36   ar
     2    36    37   ar
     3    36    35    1
     4    35    34    1
     5    33    30    1
     6    27    28    2
     7    27    24    1
     8    30    31   ar
     9    30    29   ar
    10    34    31    1
    11     4    29    2
    12     4    25    1
    13    31    32   ar
    14    24    25    1
    15    24    23    2
    16    29    42   ar
    17    25    41    2
    18    26    23    1
    19    23    22    1
    20    32    42   ar
    21    32     1    2
    22    42    43    1
    23    41    22    1
    24    41    43    1
    25    22     3    2
    26     1     5    1
    27    43    39    1
    28    43    40    1
    29     3    18    1
    30     5    39    2
    31     5     6    1
    32    39     8    1
    33    18    40   ar
    34    18    17   ar
    35    40    15   ar
    36    21    20    2
    37     6    10    1
    38     6     7    2
    39    10    11    1
    40     8     7    1
    41     8     2    2
    42    17    20    1
    43    17    16   ar
    44    15     2    1
    45    15    16   ar
    46     7     9    1
    47    14    12   ar
    48    16    19    1
    49    12    13   ar
    50    12    11    1
