@<TRIPOS>MOLECULE
3nc8_DH4_A_1.pdb
 12 12 0 0 0
SMALL
GASTEIGER

@<TRIPOS>ATOM
      1  C        -11.7840  -10.8760    5.3770 C.2   308  DH4308      0.2339
      2  N        -10.0170  -11.5150    3.8700 N.2   308  DH4308     -0.2453
      3  O        -12.5110  -10.5120    4.4640 O.2   308  DH4308     -0.2861
      4  CA       -10.5130  -11.6760    5.2190 C.3   308  DH4308      0.1987
      5  CAC       -9.7770  -12.6130    3.2200 C.2   308  DH4308      0.1592
      6  CAE       -9.7080  -13.4890   -0.9900 C.3   308  DH4308      0.0018
      7  CAF       -9.6380  -11.9530   -0.9650 C.3   308  DH4308      0.0018
      8  CAG      -10.1760  -14.0950    0.3440 C.3   308  DH4308      0.0215
      9  CAH       -8.4700  -11.4480   -0.0980 C.3   308  DH4308      0.0215
     10  CAI       -9.0660  -13.9070    1.4080 C.3   308  DH4308      0.0922
     11  CAJ       -8.9080  -11.3030    1.3710 C.3   308  DH4308      0.0922
     12  NAL       -9.2400  -12.6030    2.0210 N.pl3 308  DH4308     -0.2913
@<TRIPOS>BOND
     1     6     7    1
     2     6     8    1
     3     7     9    1
     4     9    11    1
     5     8    10    1
     6    11    12    1
     7    10    12    1
     8    12     5    1
     9     5     2    2
    10     2     4    1
    11     3     1    2
    12     4     1    1
