@<TRIPOS>MOLECULE
3nc9_TR3_B_1.pdb
 26 29 0 0 0
SMALL
GASTEIGER

@<TRIPOS>ATOM
      1  C1        -5.2210    2.6290   17.3980 C.ar  299  TR3299      0.0168
      2  C2        -4.2420    1.9840   16.6360 C.ar  299  TR3299      0.0049
      3  C3        -3.8100    0.6940   16.9960 C.ar  299  TR3299      0.0430
      4  C4        -4.3880    0.0570   18.1230 C.ar  299  TR3299      0.0861
      5  C5        -5.3730    0.6870   18.8890 C.ar  299  TR3299      0.0358
      6  C6        -5.7770    1.9850   18.5210 C.ar  299  TR3299      0.0749
      7  N10       -2.8510   -1.3500   17.1980 N.ar  299  TR3299     -0.1588
      8  N11       -3.7550   -1.1810   18.1900 N.ar  299  TR3299     -0.2292
      9  C12       -2.8800   -0.2490   16.5010 C.ar  299  TR3299      0.1281
     10  C13       -4.6750   -4.2750   20.9380 C.ar  299  TR3299      0.0001
     11  C14       -4.4320   -4.5670   19.5860 C.ar  299  TR3299      0.0015
     12  C15       -4.1200   -3.5440   18.6730 C.ar  299  TR3299      0.0191
     13  C16       -4.0050   -2.2160   19.1130 C.ar  299  TR3299      0.0828
     14  C17       -4.3070   -1.9140   20.4560 C.ar  299  TR3299      0.0191
     15  C18       -4.6040   -2.9410   21.3750 C.ar  299  TR3299      0.0015
     16  S24       -1.9360   -0.0290   15.0420 S.3   299  TR3299     -0.0923
     17  C25       -3.1690   -0.2120   13.7290 C.3   299  TR3299      0.0757
     18  C26       -7.6100    2.1360   20.1250 C.2   299  TR3299      0.2452
     19  N27       -6.8200    2.6540   19.1810 N.am  299  TR3299     -0.1792
     20  O28       -7.5590    0.9770   20.5700 O.2   299  TR3299     -0.2730
     21  C30      -10.4130    3.5850   22.3130 C.3   299  TR3299      0.0892
     22  C31       -9.1560    2.7730   21.9850 C.3   299  TR3299      0.0280
     23  C32       -8.7680    3.0430   20.5160 C.3   299  TR3299      0.0814
     24  C33       -9.9600    2.8380   19.5490 C.3   299  TR3299      0.0280
     25  C34      -11.1700    3.6640   20.0110 C.3   299  TR3299      0.0892
     26  N35      -11.4990    3.2530   21.3790 N.3   299  TR3299     -0.2180
@<TRIPOS>BOND
     1    17    16    1
     2    16     9    1
     3     9     3   ar
     4     9     7   ar
     5     2     3   ar
     6     2     1   ar
     7     3     4   ar
     8     7     8   ar
     9     1     6   ar
    10     4     8   ar
    11     4     5   ar
    12     8    13    1
    13     6     5   ar
    14     6    19    1
    15    12    13   ar
    16    12    11   ar
    17    13    14   ar
    18    19    18   am
    19    24    25    1
    20    24    23    1
    21    11    10   ar
    22    25    26    1
    23    18    23    1
    24    18    20    2
    25    14    15   ar
    26    23    22    1
    27    10    15   ar
    28    26    21    1
    29    22    21    1
