@<TRIPOS>MOLECULE
3nca_TR2_A_1.pdb
 15 16 0 0 0
SMALL
GASTEIGER

@<TRIPOS>ATOM
      1  C10       -3.3910   -1.0090   18.1530 C.3   300  TR2300      0.1582
      2  O01       -2.3380   -0.8750   15.9280 O.2   300  TR2300     -0.5090
      3  C02       -2.9980   -0.2880   17.0010 C.2   300  TR2300      0.1218
      4  C03       -3.3340    1.0630   16.8280 C.2   300  TR2300      0.0074
      5  C04       -4.0950    1.7030   17.8380 C.2   300  TR2300      0.0814
      6  N05       -4.5130    1.0790   18.9630 N.2   300  TR2300     -0.4144
      7  C06       -4.1610   -0.2550   19.1030 C.2   300  TR2300      0.1174
      8  C07       -4.5440   -1.0520   20.2650 C.2   300  TR2300     -0.0204
      9  C08       -4.0870   -2.3280   20.1930 C.2   300  TR2300     -0.0245
     10  S09       -3.1840   -2.6410   18.7440 S.3   300  TR2300     -0.1088
     11 HO01       -3.0070   -1.2620   15.3760 H     300  TR2300      0.2917
     12  H03       -3.0420    1.6250   15.9450 H     300  TR2300      0.0677
     13  H04       -4.3930    2.7520   17.7590 H     300  TR2300      0.0971
     14  H07       -5.1190   -0.6060   21.0730 H     300  TR2300      0.0652
     15  H08       -4.2490   -3.0870   20.9410 H     300  TR2300      0.0691
@<TRIPOS>BOND
     1    11     2    1
     2     2     3    1
     3    12     4    1
     4     4     3    2
     5     4     5    1
     6     3     1    1
     7    13     5    1
     8     5     6    2
     9     1    10    1
    10     1     7    1
    11    10     9    1
    12     6     7    2
    13     7     8    1
    14     9     8    2
    15     9    15    1
    16     8    14    1
