@<TRIPOS>MOLECULE
3ncg_BK1_A_1.pdb
 24 27 0 0 0
SMALL
GASTEIGER

@<TRIPOS>ATOM
      1  N1        27.4900    6.2330    6.7040 N.2   561  BK1561     -0.0027
      2  C2        27.5290    5.5080    5.6050 C.3   561  BK1561      0.5248
      3  N3        26.8960    5.8890    4.5020 N.2   561  BK1561     -0.0088
      4  C4        26.2050    7.0290    4.4620 C.2   561  BK1561      0.3401
      5  C5        26.1310    7.8350    5.5930 C.3   561  BK1561      0.2601
      6  C6        26.8110    7.3920    6.7410 C.2   561  BK1561      0.4078
      7  CAA       25.3780    8.2410    1.1400 C.3   561  BK1561      0.0532
      8  CAB       23.8240    6.5960    2.1180 C.3   561  BK1561      0.0532
      9  NAC       26.8150    8.0450    7.8830 N.pl3 561  BK1561      0.2118
     10  CAD       24.6340   15.0870    7.3330 C.ar  561  BK1561     -0.0000
     11  CAE       23.7120   14.1010    7.0390 C.ar  561  BK1561     -0.0000
     12  CAF       28.1960   11.9340    6.4940 C.ar  561  BK1561     -0.0003
     13  CAG       27.2540   10.9530    6.2000 C.ar  561  BK1561     -0.0039
     14  CAH       25.9840   14.7720    7.2730 C.ar  561  BK1561     -0.0000
     15  CAI       27.7850   13.2100    6.8610 C.ar  561  BK1561     -0.0000
     16  CAJ       24.1390   12.8280    6.6720 C.ar  561  BK1561     -0.0003
     17  CAL       24.8320   10.1590    5.9370 C.3   561  BK1561      0.0724
     18  NAO       25.0050    8.6770    3.9250 N.2   561  BK1561     -0.0954
     19  CAQ       25.8900   11.2400    6.2590 C.ar  561  BK1561     -0.0164
     20  CAR       25.3360    8.9140    5.1910 C.2   561  BK1561      0.1047
     21  CAS       26.4250   13.4970    6.9170 C.ar  561  BK1561     -0.0003
     22  CAT       25.4960   12.5230    6.6090 C.ar  561  BK1561     -0.0036
     23  CAW       25.2760    7.1110    2.1540 C.3   561  BK1561      0.1876
     24  NAX       25.5120    7.6260    3.5130 N.pl3 561  BK1561     -0.0842
@<TRIPOS>BOND
     1     7    23    1
     2     8    23    1
     3    23    24    1
     4    24    18    1
     5    24     4    1
     6    18    20    2
     7     4     3    2
     8     4     5    1
     9     3     2    1
    10    20     5    1
    11    20    17    1
    12     5     6    1
    13     2     1    1
    14    17    19    1
    15    13    19   ar
    16    13    12   ar
    17    19    22   ar
    18    12    15   ar
    19    22    16   ar
    20    22    21   ar
    21    16    11   ar
    22     1     6    2
    23     6     9    1
    24    15    21   ar
    25    21    14   ar
    26    11    10   ar
    27    14    10   ar
