@<TRIPOS>MOLECULE
3nci_DCP_A_1.pdb
 28 29 0 0 0
SMALL
GASTEIGER

@<TRIPOS>ATOM
      1  N1         0.3990   53.5860   19.4090 N.am  904  DCP904     -0.1802
      2  C2         0.9880   54.1820   20.5150 C.1   904  DCP904      0.2756
      3  N3         1.1770   53.4550   21.6770 N.2   904  DCP904     -0.3024
      4  C4         0.7690   52.1400   21.7590 C.2   904  DCP904      0.2346
      5  C5         0.2440   51.5160   20.6300 C.2   904  DCP904      0.0687
      6  C6         0.0310   52.2630   19.4720 C.2   904  DCP904      0.0835
      7  O2         1.3530   55.3580   20.4650 O.2   904  DCP904     -0.1925
      8  N4         0.8820   51.4760   22.9100 N.pl3 904  DCP904     -0.0921
      9  C1'        0.4480   54.2990   18.1100 C.3   904  DCP904      0.2090
     10  C2'        1.8720   54.2330   17.5600 C.3   904  DCP904      0.0874
     11  C3'        1.7770   53.1290   16.5330 C.3   904  DCP904      0.1857
     12  C4'        0.3570   53.2890   16.0170 C.3   904  DCP904      0.1773
     13  O4'       -0.3960   53.6830   17.1540 O.3   904  DCP904     -0.3339
     14  O3'        2.7630   53.2640   15.5360 O.3   904  DCP904     -0.2203
     15  C5'       -0.2100   51.9980   15.4500 C.3   904  DCP904      0.1812
     16  O5'       -0.1660   51.0160   16.4590 O.3   904  DCP904     -0.3112
     17  PA         0.1050   49.4630   16.1480 P.3   904  DCP904      0.2189
     18  O1A       -0.4550   48.6530   17.2860 O.3   904  DCP904     -0.4371
     19  O2A       -0.4710   49.0350   14.8140 O.2   904  DCP904     -0.5170
     20  O3A        1.7000   49.2820   16.2430 O.3   904  DCP904     -0.2700
     21  PB         2.8260   49.7540   15.1980 P.3   904  DCP904      0.2277
     22  O1B        3.6620   50.8220   15.8510 O.3   904  DCP904     -0.4368
     23  O2B        2.2950   50.1860   13.8570 O.2   904  DCP904     -0.5168
     24  O3B        3.7750   48.4550   15.0980 O.3   904  DCP904     -0.2258
     25  PG         3.4830   47.1450   14.2060 P.3   904  DCP904      0.5373
     26  O1G        2.1850   47.2820   13.4500 O.3   904  DCP904     -0.1143
     27  O2G        4.6370   46.9870   13.2570 O.2   904  DCP904     -0.2221
     28  O3G        3.3970   45.9530   15.1220 O.3   904  DCP904     -0.1143
@<TRIPOS>BOND
     1    27    25    2
     2    26    25    1
     3    23    21    2
     4    25    24    1
     5    25    28    1
     6    19    17    2
     7    24    21    1
     8    21    22    1
     9    21    20    1
    10    15    12    1
    11    15    16    1
    12    14    11    1
    13    12    11    1
    14    12    13    1
    15    17    20    1
    16    17    16    1
    17    17    18    1
    18    11    10    1
    19    13     9    1
    20    10     9    1
    21     9     1    1
    22     1     6    1
    23     1     2   am
    24     6     5    2
    25     7     2    2
    26     2     3    2
    27     5     4    1
    28     3     4    2
    29     4     8    1
