@<TRIPOS>MOLECULE
3nck_NFF_A_1.pdb
 29 31 0 0 0
SMALL
GASTEIGER

@<TRIPOS>ATOM
      1  C        -11.3320  -11.7910    5.1760 C.3     1  NFF1        0.2059
      2  N         -9.8790  -12.3550    3.1310 N.am    1  NFF1       -0.1983
      3  O        -12.0350  -11.2490    3.9870 O.3     1  NFF1       -0.2184
      4  CA        -9.8250  -11.9650    4.5890 C.3     1  NFF1        0.1545
      5  CB        -9.0050  -10.7590    4.9560 C.3     1  NFF1        0.1429
      6  CAA      -10.4130  -17.9230    2.7080 C.3     1  NFF1        0.0512
      7  CAB       -7.7060   -8.0340    2.2260 C.3     1  NFF1        0.0129
      8  CAC       -7.3250   -7.7020    4.6910 C.3     1  NFF1        0.0129
      9  OAE      -10.6640   -7.0800    5.3410 O.co2   1  NFF1       -0.2441
     10  OAF       -8.4580  -14.1070    3.3860 O.2     1  NFF1       -0.2683
     11  OAG      -10.5320   -6.5840    3.1890 O.co2   1  NFF1       -0.2441
     12  CAI       -7.9020  -11.3330   -1.8740 C.ar    1  NFF1        0.0000
     13  CAJ       -7.6490  -10.9950   -0.5370 C.ar    1  NFF1        0.0000
     14  CAK      -10.4420  -15.1920   -0.4040 C.ar    1  NFF1        0.0370
     15  CAL       -8.6630  -12.4660   -2.1640 C.ar    1  NFF1        0.0000
     16  CAM       -8.1560  -11.7760    0.5020 C.ar    1  NFF1        0.0002
     17  CAN       -9.9290  -14.3930   -1.4250 C.ar    1  NFF1        0.0031
     18  CAO      -11.1620  -16.9480    1.7740 C.3     1  NFF1        0.2055
     19  NAQ       -9.8470   -9.5380    5.0610 N.3     1  NFF1       -0.1961
     20  OAR      -10.6930  -15.5980    2.0020 O.3     1  NFF1       -0.4753
     21  SAS       -7.6490  -10.3070    3.8070 S.3     1  NFF1       -0.1216
     22  CAT      -10.3190   -7.3200    4.1650 C.2     1  NFF1        0.3811
     23  CAU       -9.2030  -13.4010    2.6900 C.2     1  NFF1        0.2678
     24  CAV      -10.2030  -14.8560    0.9360 C.ar    1  NFF1        0.1429
     25  CAW       -9.4400  -13.7150    1.2200 C.ar    1  NFF1        0.0889
     26  CAX       -9.1750  -13.2550   -1.1280 C.ar    1  NFF1        0.0003
     27  CAY       -8.9230  -12.9100    0.2050 C.ar    1  NFF1        0.0074
     28  CBB       -9.6210   -8.6550    3.8820 C.3     1  NFF1        0.1857
     29  CBC       -8.0730   -8.5390    3.6340 C.3     1  NFF1        0.0658
@<TRIPOS>BOND
     1    15    12   ar
     2    15    26   ar
     3    12    13   ar
     4    17    26   ar
     5    17    14   ar
     6    26    27   ar
     7    13    16   ar
     8    14    24   ar
     9    27    16   ar
    10    27    25   ar
    11    24    25   ar
    12    24    20    1
    13    25    23    1
    14    18    20    1
    15    18     6    1
    16     7    29    1
    17    23     2   am
    18    23    10    2
    19     2     4    1
    20    11    22   ar
    21    29    21    1
    22    29    28    1
    23    29     8    1
    24    21     5    1
    25    28    22    1
    26    28    19    1
    27     3     1    1
    28    22     9   ar
    29     4     5    1
    30     4     1    1
    31     5    19    1
