@<TRIPOS>MOLECULE
3ncl_CCZ_A_1.pdb
 35 36 0 0 0
SMALL
GASTEIGER

@<TRIPOS>ATOM
      1  P         19.5810   26.6520   27.6820 P.3   500  CCZ500      0.3834
      2  C1        20.3500   33.3070   29.2630 C.2   500  CCZ500      0.3081
      3  N1        19.4490   33.7940   30.0420 N.2   500  CCZ500     -0.0994
      4  C2        20.2510   31.9480   28.6470 C.ar  500  CCZ500      0.0647
      5  N2        21.3700   34.0670   28.9990 N.pl3 500  CCZ500     -0.2466
      6  C3        21.2830   31.5130   27.8380 C.ar  500  CCZ500     -0.0466
      7  C4        21.2390   30.2740   27.2230 C.ar  500  CCZ500     -0.0572
      8  C5        20.1720   29.4210   27.4320 C.ar  500  CCZ500     -0.0348
      9  C6        19.1290   29.8340   28.2510 C.ar  500  CCZ500     -0.0572
     10  C7        19.1650   31.0910   28.8500 C.ar  500  CCZ500     -0.0466
     11  C8        20.1910   28.0870   26.7350 C.3   500  CCZ500      0.0858
     12  C01       20.9140   24.6070   26.5730 C.ar  500  CCZ500      0.1299
     13  C02       21.6510   24.8170   25.4130 C.ar  500  CCZ500     -0.0195
     14  C03       22.7850   24.0490   25.1740 C.ar  500  CCZ500     -0.0583
     15  C04       23.1800   23.0640   26.0690 C.ar  500  CCZ500     -0.0615
     16  C05       22.4430   22.8440   27.2230 C.ar  500  CCZ500     -0.0583
     17  C06       21.2980   23.6060   27.4660 C.ar  500  CCZ500     -0.0195
     18  OP1       18.0690   26.7930   28.0270 O.2   500  CCZ500     -0.2439
     19  OP2       19.7720   25.3410   26.8100 O.3   500  CCZ500     -0.4237
     20  OP3       20.5140   26.4300   28.9320 O.3   500  CCZ500     -0.3149
     21  HN1       18.7160   33.3020   30.2530 H     500  CCZ500      0.3633
     22  HN2       21.4290   34.8970   29.3710 H     500  CCZ500      0.2884
     23 HN2A       22.0320   33.7670   28.4490 H     500  CCZ500      0.2884
     24  H3        22.0400   32.0980   27.6760 H     500  CCZ500      0.0626
     25  H4        21.9740   29.9920   26.6580 H     500  CCZ500      0.0621
     26  H6        18.3680   29.2510   28.3960 H     500  CCZ500      0.0621
     27  H7        18.4340   31.3710   29.4210 H     500  CCZ500      0.0626
     28  H8        21.0860   27.8970   26.4050 H     500  CCZ500      0.0447
     29  H8A       19.6170   28.1680   25.9560 H     500  CCZ500      0.0447
     30  H02       21.3820   25.5000   24.7810 H     500  CCZ500      0.0654
     31  H03       23.3070   24.2040   24.3710 H     500  CCZ500      0.0619
     32  H04       23.9770   22.5390   25.8940 H     500  CCZ500      0.0618
     33  H05       22.7150   22.1560   27.8530 H     500  CCZ500      0.0619
     34  H06       20.7800   23.4540   28.2710 H     500  CCZ500      0.0654
     35 HOP3       20.1210   26.7560   29.6550 H     500  CCZ500      0.2208
@<TRIPOS>BOND
     1    31    14    1
     2    30    13    1
     3    14    13   ar
     4    14    15   ar
     5    13    12   ar
     6    32    15    1
     7    29    11    1
     8    15    16   ar
     9    28    11    1
    10    12    19    1
    11    12    17   ar
    12    25     7    1
    13    11     8    1
    14    11     1    1
    15    19     1    1
    16    16    17   ar
    17    16    33    1
    18     7     8   ar
    19     7     6   ar
    20     8     9   ar
    21    17    34    1
    22    24     6    1
    23     1    18    2
    24     1    20    1
    25     6     4   ar
    26     9    26    1
    27     9    10   ar
    28    23     5    1
    29     4    10   ar
    30     4     2    1
    31    10    27    1
    32    20    35    1
    33     5     2    1
    34     5    22    1
    35     2     3    2
    36     3    21    1
