@<TRIPOS>MOLECULE
3ncq_ATP_A_1.pdb
 31 33 0 0 0
SMALL
GASTEIGER

@<TRIPOS>ATOM
      1  PG        12.6330   14.5100   24.8590 P.3   201  ATP201      0.5373
      2  O1G       12.1840   13.4010   24.0560 O.2   201  ATP201     -0.2221
      3  O2G       12.9100   14.0210   26.3130 O.3   201  ATP201     -0.1143
      4  O3G       11.6790   15.5860   24.6960 O.3   201  ATP201     -0.1143
      5  PB        15.4690   14.3050   24.2170 P.3   201  ATP201      0.2277
      6  O1B       15.5600   13.0380   24.9960 O.3   201  ATP201     -0.4368
      7  O2B       16.1000   14.3040   22.8730 O.2   201  ATP201     -0.5168
      8  O3B       13.9890   14.8730   24.1030 O.3   201  ATP201     -0.2258
      9  PA        15.8770   16.0320   26.5240 P.3   201  ATP201      0.2189
     10  O1A       15.4080   14.8820   27.3350 O.3   201  ATP201     -0.4371
     11  O2A       15.0780   17.2520   26.3910 O.2   201  ATP201     -0.5170
     12  O3A       16.1710   15.5020   25.0970 O.3   201  ATP201     -0.2700
     13  O5'       17.3180   16.4420   27.0180 O.3   201  ATP201     -0.3112
     14  C5'       17.8670   17.7510   27.0560 C.3   201  ATP201      0.1813
     15  C4'       19.0610   17.7230   27.9770 C.3   201  ATP201      0.1821
     16  O4'       18.6980   17.2260   29.2830 O.3   201  ATP201     -0.3135
     17  C3'       20.1530   16.7720   27.5140 C.3   201  ATP201      0.2184
     18  O3'       20.9530   17.3210   26.4040 O.3   201  ATP201     -0.2174
     19  C2'       20.9520   16.5000   28.7510 C.3   201  ATP201      0.2570
     20  O2'       21.7360   17.6270   29.0740 O.3   201  ATP201     -0.2130
     21  C1'       19.8470   16.4940   29.7890 C.3   201  ATP201      0.3186
     22  N9        19.3640   15.1000   30.0350 N.pl3 201  ATP201     -0.1439
     23  C8        18.3240   14.4670   29.3650 C.3   201  ATP201      0.3377
     24  N7        18.1250   13.2440   29.9370 N.2   201  ATP201     -0.2095
     25  C5        19.0750   13.0820   30.9300 C.2   201  ATP201      0.2526
     26  C6        19.4020   12.0500   31.9180 C.2   201  ATP201      0.4393
     27  N6        18.6860   10.8870   31.9240 N.pl3 201  ATP201      0.2180
     28  N1        20.4060   12.3240   32.7810 N.2   201  ATP201      0.0021
     29  C2        21.1060   13.4830   32.7780 C.3   201  ATP201      0.5254
     30  N3        20.8320   14.4770   31.8900 N.2   201  ATP201     -0.0055
     31  C4        19.8450   14.2870   30.9760 C.2   201  ATP201      0.3518
@<TRIPOS>BOND
     1     7     5    2
     2     2     1    2
     3     8     5    1
     4     8     1    1
     5     5     6    1
     6     5    12    1
     7     4     1    1
     8     1     3    1
     9    12     9    1
    10    11     9    2
    11    18    17    1
    12     9    13    1
    13     9    10    1
    14    13    14    1
    15    14    15    1
    16    17    15    1
    17    17    19    1
    18    15    16    1
    19    19    20    1
    20    19    21    1
    21    16    21    1
    22    23    24    1
    23    23    22    1
    24    21    22    1
    25    24    25    2
    26    22    31    1
    27    25    31    1
    28    25    26    1
    29    31    30    2
    30    30    29    1
    31    26    27    1
    32    26    28    2
    33    29    28    1
