@<TRIPOS>MOLECULE
3ncr_ADP_A_1.pdb
 27 29 0 0 0
SMALL
GASTEIGER

@<TRIPOS>ATOM
      1  PB        15.8530   14.6000   24.2590 P.3   120  ADP120      0.5373
      2  O1B       15.8170   13.3490   24.9740 O.3   120  ADP120     -0.1143
      3  O2B       16.6310   14.5550   23.0280 O.2   120  ADP120     -0.2221
      4  O3B       14.5210   15.1260   24.0790 O.3   120  ADP120     -0.1143
      5  PA        16.1880   16.2930   26.6120 P.3   120  ADP120      0.2231
      6  O1A       15.7380   15.1140   27.3440 O.3   120  ADP120     -0.4370
      7  O2A       15.3530   17.4610   26.5900 O.2   120  ADP120     -0.5169
      8  O3A       16.5540   15.7750   25.1720 O.3   120  ADP120     -0.2261
      9  O5'       17.6030   16.6710   27.2060 O.3   120  ADP120     -0.3111
     10  C5'       18.0460   17.9730   27.4090 C.3   120  ADP120      0.1813
     11  C4'       19.3010   18.0220   28.2650 C.3   120  ADP120      0.1821
     12  O4'       19.0260   17.5170   29.5560 O.3   120  ADP120     -0.3135
     13  C3'       20.4440   17.1630   27.7550 C.3   120  ADP120      0.2184
     14  O3'       21.2000   17.7200   26.6830 O.3   120  ADP120     -0.2174
     15  C2'       21.2320   16.8730   29.0000 C.3   120  ADP120      0.2570
     16  O2'       22.0410   17.9660   29.3990 O.3   120  ADP120     -0.2130
     17  C1'       20.1340   16.7740   30.0380 C.3   120  ADP120      0.3186
     18  N9        19.6950   15.3990   30.3300 N.pl3 120  ADP120     -0.1439
     19  C8        18.7140   14.7840   29.7140 C.3   120  ADP120      0.3377
     20  N7        18.5050   13.5590   30.2010 N.2   120  ADP120     -0.2095
     21  C5        19.4000   13.3540   31.1680 C.2   120  ADP120      0.2526
     22  C6        19.7540   12.2760   32.0930 C.2   120  ADP120      0.4393
     23  N6        19.1090   11.1150   32.1260 N.pl3 120  ADP120      0.2180
     24  N1        20.7260   12.5200   32.9340 N.2   120  ADP120      0.0021
     25  C2        21.4030   13.6530   32.9570 C.3   120  ADP120      0.5254
     26  N3        21.1510   14.6560   32.1690 N.2   120  ADP120     -0.0055
     27  C4        20.1830   14.5750   31.2490 C.2   120  ADP120      0.3518
@<TRIPOS>BOND
     1     3     1    2
     2     4     1    1
     3     1     2    1
     4     1     8    1
     5     8     5    1
     6     7     5    2
     7     5     9    1
     8     5     6    1
     9    14    13    1
    10     9    10    1
    11    10    11    1
    12    13    11    1
    13    13    15    1
    14    11    12    1
    15    15    16    1
    16    15    17    1
    17    12    17    1
    18    19    20    1
    19    19    18    1
    20    17    18    1
    21    20    21    2
    22    18    27    1
    23    21    27    1
    24    21    22    1
    25    27    26    2
    26    22    23    1
    27    22    24    2
    28    26    25    1
    29    24    25    1
