@<TRIPOS>MOLECULE
3ncz_3NC_A_1.pdb
 22 24 0 0 0
SMALL
GASTEIGER

@<TRIPOS>ATOM
      1  C1       -14.7170   -4.0320   42.3610 C.3   900  3NC900      0.0786
      2  C2       -15.3240   -5.2590   41.7080 C.3   900  3NC900      0.0106
      3  C3       -15.7550   -6.2170   42.8110 C.3   900  3NC900      0.0195
      4  C4       -16.8890   -5.5840   43.6070 C.3   900  3NC900      0.0918
      5  C5       -16.3180   -4.3670   44.3020 C.3   900  3NC900      0.0195
      6  C6       -15.7740   -3.3940   43.2620 C.3   900  3NC900      0.0106
      7  C7       -12.6520    1.2200   39.0810 C.ar  900  3NC900      0.0841
      8  C8       -13.9360    0.6330   39.0580 C.ar  900  3NC900      0.0139
      9  C9       -14.9430    1.1750   38.1390 C.2   900  3NC900      0.0222
     10  C10      -14.6330    2.2090   37.3450 C.2   900  3NC900      0.1111
     11  N11      -13.4050    2.7990   37.3610 N.2   900  3NC900     -0.1747
     12  C12      -12.4230    2.3570   38.1740 C.1   900  3NC900      0.1545
     13  C13      -11.6760    0.7210   39.9480 C.ar  900  3NC900      0.0243
     14  C14      -11.9720   -0.3330   40.7730 C.ar  900  3NC900      0.0737
     15  C15      -13.2350   -0.9410   40.7430 C.ar  900  3NC900      0.0839
     16  C16      -14.2140   -0.4390   39.9030 C.ar  900  3NC900      0.0182
     17  O17      -11.3410    2.9090   38.1430 O.2   900  3NC900     -0.2219
     18 CL18      -10.7740   -0.9750   41.8670 Cl    900  3NC900     -0.0809
     19  N19      -13.5670   -1.9960   41.6150 N.am  900  3NC900     -0.1784
     20  C20      -14.3840   -3.0150   41.3060 C.2   900  3NC900      0.2451
     21  O21      -14.8400   -3.1230   40.1950 O.2   900  3NC900     -0.2730
     22  N22      -17.9400   -5.1610   42.6850 N.3   900  3NC900     -0.1329
@<TRIPOS>BOND
     1    10    11    1
     2    10     9    2
     3    11    12    2
     4     9     8    1
     5    17    12    2
     6    12     7    1
     7     8     7   ar
     8     8    16   ar
     9     7    13   ar
    10    16    15   ar
    11    13    14   ar
    12    21    20    2
    13    15    14   ar
    14    15    19    1
    15    14    18    1
    16    20    19   am
    17    20     1    1
    18     2     1    1
    19     2     3    1
    20     1     6    1
    21    22     4    1
    22     3     4    1
    23     6     5    1
    24     4     5    1
