@<TRIPOS>MOLECULE
3nd1_SAH_A_1.pdb
 26 28 0 0 0
SMALL
GASTEIGER

@<TRIPOS>ATOM
      1  N         36.9300   69.3030   24.3670 N.3   300  SAH300     -0.1208
      2  CA        36.7290   69.2210   25.8510 C.3   300  SAH300      0.1952
      3  CB        36.0500   67.8990   26.2300 C.3   300  SAH300      0.0422
      4  CG        34.6120   67.8570   25.7130 C.3   300  SAH300      0.0597
      5  SD        33.7560   66.3790   26.1650 S.3   300  SAH300     -0.1375
      6  C         38.0500   69.3720   26.5520 C.2   300  SAH300      0.3819
      7  O         39.0950   69.6580   25.9480 O.co2 300  SAH300     -0.2441
      8  OXT       38.1030   69.2310   27.7760 O.co2 300  SAH300     -0.2441
      9  C5'       33.0140   66.8140   27.7180 C.3   300  SAH300      0.0899
     10  C4'       33.7090   66.1410   28.8990 C.3   300  SAH300      0.1630
     11  O4'       34.8190   66.9450   29.3020 O.3   300  SAH300     -0.3153
     12  C3'       32.8540   66.0160   30.1590 C.3   300  SAH300      0.2168
     13  O3'       32.0660   64.8230   30.1910 O.3   300  SAH300     -0.2175
     14  C2'       33.8800   66.0120   31.2710 C.3   300  SAH300      0.2569
     15  O2'       34.5870   64.7690   31.3720 O.3   300  SAH300     -0.2130
     16  C1'       34.9140   66.9620   30.7290 C.3   300  SAH300      0.3185
     17  N9        34.8020   68.3640   31.1810 N.pl3 300  SAH300     -0.1439
     18  C8        34.7090   69.4380   30.3820 C.3   300  SAH300      0.3377
     19  N7        34.6820   70.5870   31.0970 N.2   300  SAH300     -0.2095
     20  C5        34.7700   70.2400   32.3950 C.2   300  SAH300      0.2526
     21  C6        34.8030   70.9690   33.6770 C.2   300  SAH300      0.4393
     22  N6        34.7460   72.3280   33.7070 N.pl3 300  SAH300      0.2180
     23  N1        34.9090   70.2310   34.8050 N.2   300  SAH300      0.0021
     24  C2        34.9800   68.8840   34.7820 C.3   300  SAH300      0.5254
     25  N3        34.9570   68.1550   33.6510 N.2   300  SAH300     -0.0055
     26  C4        34.8520   68.7750   32.4490 C.2   300  SAH300      0.3518
@<TRIPOS>BOND
     1     1     2    1
     2     4     5    1
     3     4     3    1
     4     2     3    1
     5     2     6    1
     6     7     6   ar
     7     5     9    1
     8     6     8   ar
     9     9    10    1
    10    10    11    1
    11    10    12    1
    12    11    16    1
    13    12    13    1
    14    12    14    1
    15    18    19    1
    16    18    17    1
    17    16    17    1
    18    16    14    1
    19    19    20    2
    20    17    26    1
    21    14    15    1
    22    20    26    1
    23    20    21    1
    24    26    25    2
    25    25    24    1
    26    21    22    1
    27    21    23    2
    28    24    23    1
