@<TRIPOS>MOLECULE
3nd6_ATP_A_1.pdb
 31 33 0 0 0
SMALL
GASTEIGER

@<TRIPOS>ATOM
      1  PG       -17.5640  -15.0510   32.0320 P.3   961  ATP961      0.5373
      2  O1G      -17.9880  -15.7330   33.3150 O.3   961  ATP961     -0.1143
      3  O2G      -18.5540  -15.1150   30.8950 O.2   961  ATP961     -0.2221
      4  O3G      -16.1290  -15.3640   31.6600 O.3   961  ATP961     -0.1143
      5  PB       -16.4830  -12.3750   32.2360 P.3   961  ATP961      0.2277
      6  O1B      -16.3440  -12.2270   30.7500 O.2   961  ATP961     -0.5168
      7  O2B      -15.2610  -12.5520   33.1140 O.3   961  ATP961     -0.4368
      8  O3B      -17.6310  -13.4920   32.4510 O.3   961  ATP961     -0.2258
      9  PA       -18.5150  -10.3810   32.3190 P.3   961  ATP961      0.2189
     10  O1A      -18.9280  -11.1600   31.0990 O.2   961  ATP961     -0.5170
     11  O2A      -19.5620  -10.0960   33.3580 O.3   961  ATP961     -0.4371
     12  O3A      -17.2730  -11.1560   32.9740 O.3   961  ATP961     -0.2700
     13  O5'      -17.8000   -9.0170   31.8540 O.3   961  ATP961     -0.3112
     14  C5'      -18.1970   -7.7270   32.3160 C.3   961  ATP961      0.1813
     15  C4'      -17.6060   -6.7090   31.3350 C.3   961  ATP961      0.1821
     16  O4'      -16.2200   -6.5210   31.6520 O.3   961  ATP961     -0.3135
     17  C3'      -17.6470   -7.1760   29.8860 C.3   961  ATP961      0.2184
     18  O3'      -17.7120   -6.0260   29.0360 O.3   961  ATP961     -0.2174
     19  C2'      -16.2830   -7.8050   29.6900 C.3   961  ATP961      0.2570
     20  O2'      -15.8890   -7.8440   28.3130 O.3   961  ATP961     -0.2130
     21  C1'      -15.3960   -6.9190   30.5600 C.3   961  ATP961      0.3186
     22  N9       -14.2430   -7.6820   31.0890 N.pl3 961  ATP961     -0.1439
     23  C8       -14.2970   -8.8620   31.7390 C.3   961  ATP961      0.3377
     24  N7       -13.0540   -9.2830   32.0860 N.2   961  ATP961     -0.2095
     25  C5       -12.1830   -8.3520   31.6460 C.2   961  ATP961      0.2526
     26  C6       -10.7130   -8.1750   31.6580 C.2   961  ATP961      0.4393
     27  N6        -9.9110   -9.0970   32.2290 N.pl3 961  ATP961      0.2180
     28  N1       -10.2000   -7.0670   31.0940 N.2   961  ATP961      0.0021
     29  C2       -10.9930   -6.1470   30.5110 C.3   961  ATP961      0.5254
     30  N3       -12.3350   -6.2440   30.4490 N.2   961  ATP961     -0.0055
     31  C4       -12.9720   -7.3060   30.9910 C.2   961  ATP961      0.3518
@<TRIPOS>BOND
     1    20    19    1
     2    18    17    1
     3    19    17    1
     4    19    21    1
     5    17    15    1
     6    30    29    1
     7    30    31    2
     8    29    28    1
     9    21    22    1
    10    21    16    1
    11     6     5    2
    12     3     1    2
    13    31    22    1
    14    31    25    1
    15    22    23    1
    16    28    26    2
    17    10     9    2
    18    15    16    1
    19    15    14    1
    20    25    26    1
    21    25    24    2
    22    26    27    1
    23     4     1    1
    24    23    24    1
    25    13    14    1
    26    13     9    1
    27     1     8    1
    28     1     2    1
    29     5     8    1
    30     5    12    1
    31     5     7    1
    32     9    12    1
    33     9    11    1
