@<TRIPOS>MOLECULE
3nd7_PNY_A_1.pdb
 18 17 0 0 0
SMALL
GASTEIGER

@<TRIPOS>ATOM
      1  CAA       22.0980   10.5170   32.2540 C.3   501  PNY501      0.1849
      2  CAB       24.5070   11.4580   32.2540 C.3   501  PNY501      0.0057
      3  OAC       29.4970    6.7060   29.7410 O.2   501  PNY501     -0.2733
      4  OAD       25.8810    8.2250   29.9550 O.2   501  PNY501     -0.2706
      5  OAE       21.6330   11.6230   33.1150 O.3   501  PNY501     -0.2203
      6  CAF       23.6500   10.1690   32.3640 C.3   501  PNY501      0.0674
      7  SAG       28.6250    6.2920   25.3790 S.3   501  PNY501     -0.0802
      8  CAH       28.1280    7.2220   26.8810 C.3   501  PNY501      0.0920
      9  CAI       23.9160    9.4500   33.6850 C.3   501  PNY501      0.0057
     10  CAJ       29.1600    8.1620   27.4390 C.3   501  PNY501      0.1276
     11  CAK       27.9330    9.7280   31.3650 C.3   501  PNY501      0.1248
     12  CAL       28.6300    8.3970   31.2960 C.3   501  PNY501      0.1102
     13  NAM       28.7750    8.6070   28.8060 N.am  501  PNY501     -0.2044
     14  NAN       26.4870    9.6830   31.6220 N.am  501  PNY501     -0.2028
     15  CAO       29.0320    7.8500   29.8680 C.2   501  PNY501      0.2432
     16  CAP       25.5830    8.9970   30.8820 C.2   501  PNY501      0.2719
     17  CAQ       24.0520    9.1510   31.2430 C.3   501  PNY501      0.2313
     18  OAR       23.3490    9.4690   30.0180 O.3   501  PNY501     -0.2131
@<TRIPOS>BOND
     1     7     8    1
     2     8    10    1
     3    10    13    1
     4    13    15   am
     5     3    15    2
     6    15    12    1
     7     4    16    2
     8    18    17    1
     9    16    17    1
    10    16    14   am
    11    17     6    1
    12    12    11    1
    13    11    14    1
    14     2     6    1
    15     1     6    1
    16     1     5    1
    17     6     9    1
