@<TRIPOS>MOLECULE
3ndc_SAH_A_1.pdb
 26 28 0 0 0
SMALL
GASTEIGER

@<TRIPOS>ATOM
      1  N         35.1840  -32.0210    3.3620 N.3   300  SAH300     -0.1208
      2  CA        35.4400  -32.0500    1.8990 C.3   300  SAH300      0.1952
      3  CB        36.6730  -32.9260    1.5900 C.3   300  SAH300      0.0422
      4  CG        38.0080  -32.3700    2.1530 C.3   300  SAH300      0.0597
      5  SD        39.3280  -33.4750    1.7280 S.3   300  SAH300     -0.1375
      6  C         34.1760  -32.5440    1.2280 C.2   300  SAH300      0.3819
      7  O         33.0970  -32.5400    1.8290 O.co2 300  SAH300     -0.2441
      8  OXT       34.1660  -32.9660    0.0600 O.co2 300  SAH300     -0.2441
      9  C5'       39.8980  -32.7240    0.2120 C.3   300  SAH300      0.0899
     10  C4'       39.5510  -33.5950   -1.0060 C.3   300  SAH300      0.1630
     11  O4'       38.1810  -33.4420   -1.4410 O.3   300  SAH300     -0.3153
     12  C3'       40.3840  -33.2570   -2.2420 C.3   300  SAH300      0.2168
     13  O3'       41.6360  -33.9470   -2.2440 O.3   300  SAH300     -0.2175
     14  C2'       39.5090  -33.6960   -3.3840 C.3   300  SAH300      0.2569
     15  O2'       39.5790  -35.1230   -3.5910 O.3   300  SAH300     -0.2130
     16  C1'       38.1210  -33.4110   -2.8620 C.3   300  SAH300      0.3185
     17  N9        37.6000  -32.0780   -3.2700 N.pl3 300  SAH300     -0.1439
     18  C8        37.3850  -31.0410   -2.4180 C.3   300  SAH300      0.3377
     19  N7        36.8380  -29.9920   -3.0860 N.2   300  SAH300     -0.2095
     20  C5        36.7220  -30.3720   -4.3840 C.2   300  SAH300      0.2526
     21  C6        36.2180  -29.7450   -5.6150 C.2   300  SAH300      0.4393
     22  N6        35.7080  -28.4940   -5.5600 N.pl3 300  SAH300      0.2180
     23  N1        36.2500  -30.4790   -6.7600 N.2   300  SAH300      0.0021
     24  C2        36.7080  -31.7500   -6.7990 C.3   300  SAH300      0.5254
     25  N3        37.1790  -32.3900   -5.7100 N.2   300  SAH300     -0.0055
     26  C4        37.2180  -31.7470   -4.5020 C.2   300  SAH300      0.3518
@<TRIPOS>BOND
     1    24    23    1
     2    24    25    1
     3    23    21    2
     4    25    26    2
     5    21    22    1
     6    21    20    1
     7    26    20    1
     8    26    17    1
     9    20    19    2
    10    15    14    1
    11    14    16    1
    12    14    12    1
    13    17    16    1
    14    17    18    1
    15    19    18    1
    16    16    11    1
    17    13    12    1
    18    12    10    1
    19    11    10    1
    20    10     9    1
    21     8     6   ar
    22     9     5    1
    23     6     7   ar
    24     6     2    1
    25     3     2    1
    26     3     4    1
    27     5     4    1
    28     2     1    1
