@<TRIPOS>MOLECULE
3nde_9EP_A_1.pdb
 26 27 0 0 0
SMALL
GASTEIGER

@<TRIPOS>ATOM
      1  CAA       -7.7700   -6.8690   -0.3330 C.2   308  9EP308      0.3221
      2  OAB       -7.7650   -7.6820    0.7940 O.3   308  9EP308     -0.4212
      3  CAC       -8.6090   -7.4820    1.8730 C.2   308  9EP308      0.1810
      4  CAD       -8.8150   -8.6080    2.9280 C.2   308  9EP308      0.0502
      5  SAE       -7.7870  -10.8730    4.2320 S.3   308  9EP308     -0.1103
      6  CAF       -9.6870   -8.4440    4.0130 C.2   308  9EP308      0.1564
      7  CAG      -10.5030   -7.1950    4.2650 C.2   308  9EP308      0.4045
      8  OAH      -10.4810   -6.2530    3.4680 O.co2 308  9EP308     -0.2389
      9  OAI      -11.1630   -7.2030    5.3100 O.co2 308  9EP308     -0.2389
     10  NAJ       -9.9250   -9.3790    4.9480 N.2   308  9EP308     -0.2532
     11  CAK       -9.3630  -10.7280    5.0970 C.3   308  9EP308      0.1734
     12  CAL      -10.4040  -11.8060    4.7050 C.3   308  9EP308      0.1607
     13  NAM      -10.4930  -12.2130    3.2920 N.am  308  9EP308     -0.2013
     14  CAN       -9.8440  -13.3020    2.8730 C.2   308  9EP308      0.2464
     15  CAO      -11.7610  -11.3270    5.1820 C.3   308  9EP308      0.2065
     16  OAP      -12.5260  -10.6770    4.2090 O.3   308  9EP308     -0.2184
     17  CAQ       -7.2470   -7.4650   -1.6490 C.3   308  9EP308      0.1216
     18  CAR       -8.0670   -9.9230    2.6920 C.3   308  9EP308      0.0906
     19  OAS       -8.1570   -5.6930   -0.3150 O.2   308  9EP308     -0.2497
     20  CAT      -10.0490  -13.6640    1.3990 C.3   308  9EP308      0.1196
     21  OAU       -9.1350  -14.0000    3.6070 O.2   308  9EP308     -0.2730
     22  CAV       -9.1740  -12.7660    0.5290 C.ar  308  9EP308      0.0165
     23  CAW       -7.8400  -12.6620    0.4800 C.ar  308  9EP308      0.0032
     24  SAX       -9.8060  -11.6860   -0.5830 S.2   308  9EP308     -0.0903
     25  CAY       -8.2970  -11.0910   -1.1110 C.ar  308  9EP308      0.0351
     26  CAZ       -7.3660  -11.7510   -0.4090 C.ar  308  9EP308      0.0072
@<TRIPOS>BOND
     1    17     1    1
     2    25    24   ar
     3    25    26   ar
     4    24    22   ar
     5    26    23   ar
     6     1    19    2
     7     1     2    1
     8    23    22   ar
     9    22    20    1
    10     2     3    1
    11    20    14    1
    12     3     4    2
    13    18     4    1
    14    18     5    1
    15    14    13   am
    16    14    21    2
    17     4     6    1
    18    13    12    1
    19     8     7   ar
    20     6     7    1
    21     6    10    2
    22    16    15    1
    23     5    11    1
    24     7     9   ar
    25    12    11    1
    26    12    15    1
    27    10    11    1
