@<TRIPOS>MOLECULE
3ndg_7EP_A_1.pdb
 26 27 0 0 0
SMALL
GASTEIGER

@<TRIPOS>ATOM
      1  C        -11.4960  -11.5600    5.0250 C.3     1  7EP1        0.2059
      2  N        -10.2540  -12.0590    3.2200 N.am    1  7EP1       -0.1982
      3  O        -12.4530  -10.8520    4.1900 O.3     1  7EP1       -0.2184
      4  CA       -10.2230  -11.7910    4.6540 C.3     1  7EP1        0.1545
      5  CB        -9.3350  -10.6580    5.2020 C.3     1  7EP1        0.1429
      6  CAA      -10.1290  -16.6410    1.8970 C.3     1  7EP1        0.2525
      7  CAB       -7.2700  -10.9080   -0.0910 C.3     1  7EP1        0.2525
      8  CAC       -7.8690   -8.2910    2.3850 C.3     1  7EP1        0.0129
      9  CAD       -7.5770   -7.5390    4.7520 C.3     1  7EP1        0.0129
     10  OAF      -10.6310   -6.8840    5.3980 O.co2   1  7EP1       -0.2441
     11  OAG       -8.6590  -13.6360    3.4650 O.2     1  7EP1       -0.2681
     12  OAH      -10.7780   -6.5870    3.2190 O.co2   1  7EP1       -0.2441
     13  CAJ       -9.7930  -13.9590   -1.4260 C.ar    1  7EP1        0.0062
     14  CAK      -10.2850  -14.8150   -0.4430 C.ar    1  7EP1        0.0373
     15  CAL       -9.1730  -12.7620   -1.0580 C.ar    1  7EP1        0.0373
     16  NAN      -10.0530   -9.3660    5.2740 N.3     1  7EP1       -0.1961
     17  OAO      -10.6280  -15.2710    1.9240 O.3     1  7EP1       -0.4712
     18  OAP       -8.4470  -11.2590    0.6950 O.3     1  7EP1       -0.4712
     19  SAQ       -7.8030  -10.2770    4.3080 S.3     1  7EP1       -0.1216
     20  CAR      -10.4590   -7.2430    4.2270 C.2     1  7EP1        0.3811
     21  CAS       -9.4420  -12.9920    2.7510 C.2     1  7EP1        0.2708
     22  CAT      -10.1520  -14.4720    0.9050 C.ar    1  7EP1        0.1460
     23  CAU       -9.0510  -12.4100    0.2920 C.ar    1  7EP1        0.1460
     24  CAV       -9.5380  -13.2770    1.2600 C.ar    1  7EP1        0.1227
     25  CAY       -9.8120   -8.6100    4.0290 C.3     1  7EP1        0.1857
     26  CAZ       -8.2610   -8.5660    3.8310 C.3     1  7EP1        0.0658
@<TRIPOS>BOND
     1    13    15   ar
     2    13    14   ar
     3    15    23   ar
     4    14    22   ar
     5     7    18    1
     6    23    18    1
     7    23    24   ar
     8    22    24   ar
     9    22    17    1
    10    24    21    1
    11     6    17    1
    12     8    26    1
    13    21     2   am
    14    21    11    2
    15    12    20   ar
    16     2     4    1
    17    26    25    1
    18    26    19    1
    19    26     9    1
    20    25    20    1
    21    25    16    1
    22     3     1    1
    23    20    10   ar
    24    19     5    1
    25     4     1    1
    26     4     5    1
    27     5    16    1
