@<TRIPOS>MOLECULE
3ndi_TMP_A_1.pdb
 21 22 0 0 0
SMALL
GASTEIGER

@<TRIPOS>ATOM
      1  P         21.7290   13.1190   -2.3250 P.3   901  TMP901      0.5327
      2  O1P       21.0900   13.0920   -3.7050 O.2   901  TMP901     -0.2224
      3  O2P       23.1480   13.6780   -2.4030 O.3   901  TMP901     -0.1145
      4  O3P       20.9330   13.7500   -1.2020 O.3   901  TMP901     -0.1145
      5  O5'       21.8850   11.5450   -2.0160 O.3   901  TMP901     -0.2675
      6  C5'       22.5040   10.6270   -2.9010 C.3   901  TMP901      0.1858
      7  C4'       22.3930    9.2200   -2.3260 C.3   901  TMP901      0.1774
      8  O4'       22.8020    8.4380   -3.4410 O.3   901  TMP901     -0.3339
      9  C3'       23.4180    8.9680   -1.2180 C.3   901  TMP901      0.1857
     10  O3'       22.7530    8.0350   -0.3520 O.3   901  TMP901     -0.2203
     11  C2'       24.6140    8.3400   -1.9170 C.3   901  TMP901      0.0874
     12  C1'       23.9970    7.7090   -3.1610 C.3   901  TMP901      0.2090
     13  N1        24.9650    7.6330   -4.2740 N.am  901  TMP901     -0.1794
     14  C2        25.4260    6.4630   -4.7440 C.1   901  TMP901      0.2844
     15  O2        24.9770    5.4200   -4.2240 O.2   901  TMP901     -0.1918
     16  N3        26.3220    6.4830   -5.7640 N.2   901  TMP901     -0.2455
     17  C4        26.8350    7.6180   -6.2870 C.1   901  TMP901      0.2134
     18  O4        27.6660    7.5790   -7.2210 O.2   901  TMP901     -0.2088
     19  C5        26.3700    8.8260   -5.8100 C.2   901  TMP901      0.0891
     20  C5M       26.8060   10.1750   -6.3360 C.3   901  TMP901      0.0462
     21  C6        25.4200    8.8000   -4.7910 C.2   901  TMP901      0.0877
@<TRIPOS>BOND
     1    18    17    2
     2    20    19    1
     3    17    19    1
     4    17    16    2
     5    19    21    2
     6    16    14    2
     7    21    13    1
     8    14    13   am
     9    14    15    2
    10    13    12    1
    11     2     1    2
    12     8    12    1
    13     8     7    1
    14    12    11    1
    15     6     7    1
    16     6     5    1
    17     3     1    1
    18     7     9    1
    19     1     5    1
    20     1     4    1
    21    11     9    1
    22     9    10    1
