@<TRIPOS>MOLECULE
3ndi_SAM_A_1.pdb
 27 29 0 0 0
SMALL
GASTEIGER

@<TRIPOS>ATOM
      1  N         26.6860   21.0930    3.5820 N.3   601  SAM601     -0.1208
      2  CA        26.6130   19.6430    3.2470 C.3   601  SAM601      0.1952
      3  C         26.2650   19.4700    1.7820 C.2   601  SAM601      0.3819
      4  O         25.8770   20.4560    1.1180 O.co2 601  SAM601     -0.2441
      5  OXT       26.3580   18.3260    1.3410 O.co2 601  SAM601     -0.2441
      6  CB        25.6190   18.8480    4.0790 C.3   601  SAM601      0.0414
      7  CG        24.1620   19.1400    3.7440 C.3   601  SAM601      0.0503
      8  SD        23.0670   18.0590    4.6930 S.3   601  SAM601     -0.1761
      9  CE        21.6920   17.7710    3.5450 C.3   601  SAM601      0.0590
     10  C5'       22.3500   19.2130    5.9110 C.3   601  SAM601      0.0806
     11  C4'       23.2860   19.2280    7.1150 C.3   601  SAM601      0.1622
     12  O4'       22.7640   20.2410    7.9550 O.3   601  SAM601     -0.3153
     13  C3'       23.2610   17.9550    7.9640 C.3   601  SAM601      0.2168
     14  O3'       24.5800   17.4620    8.1480 O.3   601  SAM601     -0.2175
     15  C2'       22.6700   18.4270    9.2890 C.3   601  SAM601      0.2569
     16  O2'       23.1020   17.7600   10.4490 O.3   601  SAM601     -0.2130
     17  C1'       23.0680   19.8970    9.3160 C.3   601  SAM601      0.3185
     18  N9        22.1980   20.7590   10.1520 N.pl3 601  SAM601     -0.1439
     19  C8        20.8680   20.6790   10.4100 C.3   601  SAM601      0.3377
     20  N7        20.4730   21.7140   11.2050 N.2   601  SAM601     -0.2095
     21  C5        21.5810   22.4870   11.4040 C.2   601  SAM601      0.2526
     22  C6        21.8330   23.6580   12.1170 C.2   601  SAM601      0.4393
     23  N6        20.9450   24.3810   12.8310 N.pl3 601  SAM601      0.2180
     24  N1        23.1300   24.1000   12.1150 N.2   601  SAM601      0.0021
     25  C2        24.1580   23.4550   11.4560 C.3   601  SAM601      0.5254
     26  N3        23.9580   22.3060   10.7460 N.2   601  SAM601     -0.0055
     27  C4        22.6610   21.8920   10.7690 C.2   601  SAM601      0.3518
@<TRIPOS>BOND
     1     4     3   ar
     2     5     3   ar
     3     3     2    1
     4     2     1    1
     5     2     6    1
     6     9     8    1
     7     7     6    1
     8     7     8    1
     9     8    10    1
    10    10    11    1
    11    11    12    1
    12    11    13    1
    13    12    17    1
    14    13    14    1
    15    13    15    1
    16    15    17    1
    17    15    16    1
    18    17    18    1
    19    18    19    1
    20    18    27    1
    21    19    20    1
    22    26    27    2
    23    26    25    1
    24    27    21    1
    25    20    21    2
    26    21    22    1
    27    25    24    1
    28    24    22    2
    29    22    23    1
