@<TRIPOS>MOLECULE
3ndj_JHZ_A_1.pdb
 35 37 0 0 0
SMALL
GASTEIGER

@<TRIPOS>ATOM
      1  P         21.9660   12.7960   -2.6820 P.3   418  JHZ418      0.2189
      2  C1        20.7030   14.4040    1.3620 C.3   418  JHZ418      0.2423
      3  O1        19.6710   14.3010    0.3930 O.3   418  JHZ418     -0.2880
      4  C2        20.0390   14.9390    2.6620 C.3   418  JHZ418      0.0864
      5  P2        19.7920   13.1050   -0.6740 P.3   418  JHZ418      0.2207
      6  C3        20.0130   16.4830    2.7040 C.3   418  JHZ418      0.1352
      7  N3        18.7460   16.8920    3.3110 N.3   418  JHZ418     -0.1266
      8  C4        20.1460   17.0940    1.3190 C.2   418  JHZ418      0.1931
      9  O4        19.5240   18.0680    0.9120 O.2   418  JHZ418     -0.2921
     10  C5        21.1560   16.5580    0.3540 C.3   418  JHZ418      0.1761
     11  O5        21.6500   15.3630    0.9580 O.3   418  JHZ418     -0.3251
     12  C6        22.3250   17.4930    0.0710 C.3   418  JHZ418      0.0403
     13  C1X       24.1360    7.4290   -3.2530 C.3   418  JHZ418      0.2090
     14  N11       25.1180    7.4610   -4.3630 N.am  418  JHZ418     -0.1794
     15  O1P       23.3510   13.3700   -2.6440 O.3   418  JHZ418     -0.4371
     16  C2X       24.7120    8.0890   -2.0110 C.3   418  JHZ418      0.0874
     17  C21       25.5480    6.3070   -4.9000 C.1   418  JHZ418      0.2844
     18  O21       25.1400    5.2000   -4.5240 O.2   418  JHZ418     -0.1918
     19  O2P       21.2130   12.9180   -3.9760 O.2   418  JHZ418     -0.5170
     20  C3X       23.5320    8.8020   -1.3510 C.3   418  JHZ418      0.1857
     21  O3X       22.8650    7.9780   -0.3650 O.3   418  JHZ418     -0.2203
     22  N31       26.4340    6.3390   -5.9270 N.2   418  JHZ418     -0.2455
     23  C3M       21.1290   17.0610    3.6150 C.3   418  JHZ418      0.0269
     24  O3P       19.8710   11.7920    0.0520 O.3   418  JHZ418     -0.4371
     25  C4X       22.5570    9.0600   -2.4970 C.3   418  JHZ418      0.1773
     26  O4X       22.9280    8.1290   -3.5050 O.3   418  JHZ418     -0.3339
     27  C41       26.9530    7.5010   -6.3330 C.1   418  JHZ418      0.2134
     28  O41       27.8270    7.4480   -7.3610 O.2   418  JHZ418     -0.2088
     29  O4P       18.6030   13.2070   -1.5600 O.2   418  JHZ418     -0.5170
     30  C5X       22.6000   10.3950   -3.2060 C.3   418  JHZ418      0.1812
     31  O5X       21.9660   11.2500   -2.2680 O.3   418  JHZ418     -0.3112
     32  C51       26.5410    8.7090   -5.8240 C.2   418  JHZ418      0.0891
     33  C5A       27.0260   10.0490   -6.2820 C.3   418  JHZ418      0.0462
     34  C61       25.5730    8.6410   -4.8150 C.2   418  JHZ418      0.0877
     35  OPP       21.2010   13.4010   -1.3880 O.3   418  JHZ418     -0.2703
@<TRIPOS>BOND
     1    28    27    2
     2    27    22    2
     3    27    32    1
     4    33    32    1
     5    22    17    2
     6    32    34    2
     7    17    18    2
     8    17    14   am
     9    34    14    1
    10    14    13    1
    11    19     1    2
    12    26    13    1
    13    26    25    1
    14    13    16    1
    15    30    25    1
    16    30    31    1
    17     1    15    1
    18     1    31    1
    19     1    35    1
    20    25    20    1
    21    16    20    1
    22    29     5    2
    23    35     5    1
    24    20    21    1
    25     5    24    1
    26     5     3    1
    27    12    10    1
    28    10    11    1
    29    10     8    1
    30     3     2    1
    31     9     8    2
    32    11     2    1
    33     8     6    1
    34     2     4    1
    35     4     6    1
    36     6     7    1
    37     6    23    1
