@<TRIPOS>MOLECULE
3ndj_SAH_A_1.pdb
 26 28 0 0 0
SMALL
GASTEIGER

@<TRIPOS>ATOM
      1  N         26.8670   21.1320    3.4470 N.3   415  SAH415     -0.1208
      2  CA        26.7540   19.6560    3.3310 C.3   415  SAH415      0.1952
      3  CB        25.8380   19.1550    4.4490 C.3   415  SAH415      0.0422
      4  CG        24.5220   18.6200    3.9130 C.3   415  SAH415      0.0597
      5  SD        23.7140   17.6790    5.1610 S.3   415  SAH415     -0.1375
      6  C         26.3640   19.5150    1.8910 C.2   415  SAH415      0.3819
      7  O         25.9850   20.5270    1.2990 O.co2 415  SAH415     -0.2441
      8  OXT       26.4760   18.3880    1.4370 O.co2 415  SAH415     -0.2441
      9  C5'       22.9070   18.9180    6.1450 C.3   415  SAH415      0.0899
     10  C4'       23.5890   19.0070    7.5050 C.3   415  SAH415      0.1630
     11  O4'       22.9540   20.1150    8.1600 O.3   415  SAH415     -0.3153
     12  C3'       23.3960   17.7790    8.4250 C.3   415  SAH415      0.2168
     13  O3'       24.6950   17.2250    8.6650 O.3   415  SAH415     -0.2175
     14  C2'       22.7590   18.3450    9.6780 C.3   415  SAH415      0.2569
     15  O2'       23.2500   17.7490   10.8970 O.3   415  SAH415     -0.2130
     16  C1'       23.1560   19.8080    9.5610 C.3   415  SAH415      0.3185
     17  N9        22.2900   20.7300   10.3340 N.pl3 415  SAH415     -0.1439
     18  C8        20.9810   20.7160   10.5770 C.3   415  SAH415      0.3377
     19  N7        20.4920   21.7540   11.2890 N.2   415  SAH415     -0.2095
     20  C5        21.6230   22.4840   11.5360 C.2   415  SAH415      0.2526
     21  C6        21.9400   23.7580   12.2130 C.2   415  SAH415      0.4393
     22  N6        20.9210   24.4110   12.8490 N.pl3 415  SAH415      0.2180
     23  N1        23.2380   24.1110   12.2120 N.2   415  SAH415      0.0021
     24  C2        24.2800   23.5100   11.5820 C.3   415  SAH415      0.5254
     25  N3        24.0730   22.3380   10.9750 N.2   415  SAH415     -0.0055
     26  C4        22.8000   21.8530   10.8780 C.2   415  SAH415      0.3518
@<TRIPOS>BOND
     1     7     6   ar
     2     8     6   ar
     3     6     2    1
     4     2     1    1
     5     2     3    1
     6     4     3    1
     7     4     5    1
     8     5     9    1
     9     9    10    1
    10    10    11    1
    11    10    12    1
    12    11    16    1
    13    12    13    1
    14    12    14    1
    15    16    14    1
    16    16    17    1
    17    14    15    1
    18    17    18    1
    19    17    26    1
    20    18    19    1
    21    26    25    2
    22    26    20    1
    23    25    24    1
    24    19    20    2
    25    20    21    1
    26    24    23    1
    27    23    21    2
    28    21    22    1
