@<TRIPOS>MOLECULE
3ndk_DCP_A_1.pdb
 28 29 0 0 0
SMALL
GASTEIGER

@<TRIPOS>ATOM
      1  N1         0.1990   -6.1740  -45.8630 N.am  904  DCP904     -0.1802
      2  C2         0.7070   -5.5230  -44.7580 C.1   904  DCP904      0.2756
      3  N3         0.8390   -6.1950  -43.5510 N.2   904  DCP904     -0.3024
      4  C4         0.5100   -7.5300  -43.4550 C.2   904  DCP904      0.2346
      5  C5         0.0710   -8.2080  -44.5920 C.2   904  DCP904      0.0687
      6  C6        -0.1840   -7.4910  -45.7620 C.2   904  DCP904      0.0835
      7  O2         1.0410   -4.3400  -44.8470 O.2   904  DCP904     -0.1925
      8  N4         0.6150   -8.1600  -42.2870 N.pl3 904  DCP904     -0.0921
      9  C1'        0.2160   -5.4690  -47.1680 C.3   904  DCP904      0.2090
     10  C2'        1.6510   -5.4420  -47.6900 C.3   904  DCP904      0.0874
     11  C3'        1.6570   -6.5490  -48.7120 C.3   904  DCP904      0.1857
     12  C4'        0.2370   -6.4920  -49.2520 C.3   904  DCP904      0.1773
     13  O4'       -0.5730   -6.1340  -48.1420 O.3   904  DCP904     -0.3339
     14  O3'        2.6450   -6.3440  -49.6940 O.3   904  DCP904     -0.2203
     15  C5'       -0.2180   -7.8230  -49.8200 C.3   904  DCP904      0.1812
     16  O5'       -0.2130   -8.7790  -48.7930 O.3   904  DCP904     -0.3112
     17  PA         0.0680  -10.3330  -49.0850 P.3   904  DCP904      0.2189
     18  O1A       -0.5460  -11.1280  -47.9710 O.3   904  DCP904     -0.4371
     19  O2A       -0.4130  -10.7520  -50.4510 O.2   904  DCP904     -0.5170
     20  O3A        1.6660  -10.4960  -48.9780 O.3   904  DCP904     -0.2700
     21  PB         2.7600  -10.0260  -50.0590 P.3   904  DCP904      0.2277
     22  O1B        3.5620   -8.9190  -49.4210 O.3   904  DCP904     -0.4368
     23  O2B        2.2220   -9.5850  -51.4000 O.2   904  DCP904     -0.5168
     24  O3B        3.7570  -11.2800  -50.2100 O.3   904  DCP904     -0.2258
     25  PG         3.4270  -12.6310  -51.0180 P.3   904  DCP904      0.5373
     26  O1G        2.0880  -12.5070  -51.7040 O.3   904  DCP904     -0.1143
     27  O2G        4.5050  -12.8310  -52.0430 O.2   904  DCP904     -0.2221
     28  O3G        3.4230  -13.7800  -50.0450 O.3   904  DCP904     -0.1143
@<TRIPOS>BOND
     1    27    25    2
     2    26    25    1
     3    23    21    2
     4    25    24    1
     5    25    28    1
     6    19    17    2
     7    24    21    1
     8    21    22    1
     9    21    20    1
    10    15    12    1
    11    15    16    1
    12    14    11    1
    13    12    11    1
    14    12    13    1
    15    17    20    1
    16    17    16    1
    17    17    18    1
    18    11    10    1
    19    13     9    1
    20    10     9    1
    21     9     1    1
    22     1     6    1
    23     1     2   am
    24     6     5    2
    25     7     2    2
    26     2     3    2
    27     5     4    1
    28     3     4    2
    29     4     8    1
