@<TRIPOS>MOLECULE
3ndm_3ND_B_1.pdb
 27 30 0 0 0
SMALL
GASTEIGER

@<TRIPOS>ATOM
      1  C1       -68.4750   -4.5960   39.3650 C.2   900  3ND900      0.1111
      2  N2       -69.6240   -5.3030   39.5450 N.2   900  3ND900     -0.1747
      3  C3       -70.5450   -4.9050   40.4300 C.1   900  3ND900      0.1545
      4  C4       -68.2030   -3.4780   40.0580 C.2   900  3ND900      0.0222
      5  C5       -69.1500   -2.9660   41.0440 C.ar  900  3ND900      0.0139
      6  C6       -70.3380   -3.6920   41.2270 C.ar  900  3ND900      0.0841
      7  C7       -71.2710   -3.2440   42.1600 C.ar  900  3ND900      0.0243
      8  C8       -71.0130   -2.1120   42.8670 C.ar  900  3ND900      0.0737
      9  C9       -69.8600   -1.3600   42.7080 C.ar  900  3ND900      0.0839
     10  C10      -68.9160   -1.8040   41.7870 C.ar  900  3ND900      0.0182
     11  N11      -69.7050   -0.2160   43.5290 N.am  900  3ND900     -0.1783
     12  C12      -68.7190   -0.1130   44.4850 C.2   900  3ND900      0.2469
     13  C13      -68.5990    1.1430   45.3560 C.3   900  3ND900      0.1013
     14  C14      -68.2770    0.8930   46.8630 C.3   900  3ND900      0.0982
     15  N15      -69.2570    1.6650   47.6910 N.3   900  3ND900     -0.2172
     16  C16      -69.8640    2.6510   46.7510 C.3   900  3ND900      0.0935
     17  C17      -69.9140    1.9190   45.4020 C.3   900  3ND900      0.0498
     18  C18      -69.7330    2.8440   44.2640 C.ar  900  3ND900     -0.0205
     19  C19      -68.4910    3.4280   44.0670 C.ar  900  3ND900     -0.0034
     20  C20      -68.2900    4.2770   42.9970 C.ar  900  3ND900      0.0111
     21  C21      -69.3450    4.5190   42.1290 C.ar  900  3ND900      0.0577
     22  C22      -70.5900    3.9210   42.3230 C.ar  900  3ND900      0.0111
     23  C23      -70.7920    3.0620   43.4050 C.ar  900  3ND900     -0.0034
     24 CL24      -69.1340    5.5780   40.7840 Cl    900  3ND900     -0.0822
     25  O25      -71.5510   -5.5640   40.5540 O.2   900  3ND900     -0.2219
     26 CL26      -72.1590   -1.5850   44.0160 Cl    900  3ND900     -0.0809
     27  O27      -67.8930   -1.0130   44.6450 O.2   900  3ND900     -0.2729
@<TRIPOS>BOND
     1     1     2    1
     2     1     4    2
     3     2     3    2
     4     4     5    1
     5     3    25    2
     6     3     6    1
     7    24    21    1
     8     5     6   ar
     9     5    10   ar
    10     6     7   ar
    11    10     9   ar
    12    21    22   ar
    13    21    20   ar
    14     7     8   ar
    15    22    23   ar
    16     9     8   ar
    17     9    11    1
    18     8    26    1
    19    20    19   ar
    20    23    18   ar
    21    11    12   am
    22    19    18   ar
    23    18    17    1
    24    12    27    2
    25    12    13    1
    26    13    17    1
    27    13    14    1
    28    17    16    1
    29    16    15    1
    30    14    15    1
