@<TRIPOS>MOLECULE
3ndr_NAD_A_1.pdb
 44 48 0 0 0
SMALL
GASTEIGER

@<TRIPOS>ATOM
      1  PA        24.2510   10.7870   -2.3860 P.3   251  NAD251      0.2189
      2  O1A       22.8670   11.3210   -2.5150 O.2   251  NAD251     -0.5170
      3  O2A       25.2480   11.8820   -2.4200 O.3   251  NAD251     -0.4371
      4  O5B       24.6470    9.6700   -3.5040 O.3   251  NAD251     -0.3112
      5  C5B       24.1210    8.3490   -3.4320 C.3   251  NAD251      0.1813
      6  C4B       23.9890    7.6480   -4.7960 C.3   251  NAD251      0.1821
      7  O4B       23.0630    6.5740   -4.7080 O.3   251  NAD251     -0.3135
      8  C3B       23.4850    8.5510   -5.9200 C.3   251  NAD251      0.2184
      9  O3B       24.3830    8.4870   -7.0050 O.3   251  NAD251     -0.2174
     10  C2B       22.1380    7.9880   -6.3210 C.3   251  NAD251      0.2570
     11  O2B       21.9090    8.0090   -7.7050 O.3   251  NAD251     -0.2130
     12  C1B       22.2530    6.5500   -5.8770 C.3   251  NAD251      0.3186
     13  N9A       20.9000    5.9170   -5.8020 N.pl3 251  NAD251     -0.1439
     14  C8A       19.6960    6.4370   -5.3680 C.3   251  NAD251      0.3377
     15  N7A       18.7200    5.5060   -5.5350 N.2   251  NAD251     -0.2095
     16  C5A       19.2770    4.3850   -6.0750 C.2   251  NAD251      0.2526
     17  C6A       18.7720    3.1260   -6.4600 C.2   251  NAD251      0.4393
     18  N6A       17.5720    2.6770   -6.0880 N.pl3 251  NAD251      0.2180
     19  N1A       19.6350    2.2000   -6.9960 N.2   251  NAD251      0.0021
     20  C2A       20.9740    2.5020   -7.1560 C.3   251  NAD251      0.5254
     21  N3A       21.4690    3.7320   -6.7850 N.2   251  NAD251     -0.0055
     22  C4A       20.6370    4.6500   -6.2500 C.2   251  NAD251      0.3518
     23  O3        24.3230    9.9540   -1.0040 O.3   251  NAD251     -0.2703
     24  PN        25.4030   10.1890    0.1800 P.3   251  NAD251      0.2189
     25  O1N       25.0850   11.4620    0.8770 O.3   251  NAD251     -0.4371
     26  O2N       26.7870    9.8950   -0.2710 O.2   251  NAD251     -0.5170
     27  O5D       24.9880    8.9560    1.1090 O.3   251  NAD251     -0.3112
     28  C5D       25.4760    7.6840    0.7860 C.3   251  NAD251      0.1813
     29  C4D       25.0830    6.7260    1.8930 C.3   251  NAD251      0.1799
     30  O4D       25.4380    7.2370    3.1740 O.3   251  NAD251     -0.3327
     31  C3D       23.5890    6.5440    1.8890 C.3   251  NAD251      0.2158
     32  O3D       23.3840    5.1740    2.1050 O.3   251  NAD251     -0.2175
     33  C2D       23.1230    7.3350    3.0900 C.3   251  NAD251      0.2309
     34  O2D       21.9550    6.7690    3.6240 O.3   251  NAD251     -0.2158
     35  C1D       24.3140    7.2530    4.0420 C.3   251  NAD251      0.2263
     36  N1N       24.3820    8.3820    5.0140 N.pl3 251  NAD251     -0.2787
     37  C2N       24.7820    9.6320    4.6010 C.3   251  NAD251      0.1244
     38  C3N       24.8370   10.6760    5.5150 C.2   251  NAD251      0.0544
     39  C7N       25.1940   12.0450    5.0430 C.2   251  NAD251      0.2818
     40  O7N       24.9000   13.1370    5.8890 O.2   251  NAD251     -0.2670
     41  N7N       25.7750   12.1770    3.8480 N.am  251  NAD251     -0.0839
     42  C4N       24.5080   10.4700    6.8560 C.2   251  NAD251      0.0033
     43  C5N       24.1070    9.2000    7.2730 C.2   251  NAD251      0.0157
     44  C6N       24.0550    8.1660    6.3380 C.2   251  NAD251      0.0633
@<TRIPOS>BOND
     1    11    10    1
     2    20    19    1
     3    20    21    1
     4     9     8    1
     5    19    17    2
     6    21    22    2
     7    17    18    1
     8    17    16    1
     9    10     8    1
    10    10    12    1
    11    22    16    1
    12    22    13    1
    13    16    15    2
    14     8     6    1
    15    12    13    1
    16    12     7    1
    17    13    14    1
    18    15    14    1
    19     6     7    1
    20     6     5    1
    21     4     5    1
    22     4     1    1
    23     2     1    2
    24     3     1    1
    25     1    23    1
    26    23    24    1
    27    26    24    2
    28    24    25    1
    29    24    27    1
    30    28    27    1
    31    28    29    1
    32    31    29    1
    33    31    32    1
    34    31    33    1
    35    29    30    1
    36    33    34    1
    37    33    35    1
    38    30    35    1
    39    41    39   am
    40    35    36    1
    41    37    36    1
    42    37    38    1
    43    36    44    1
    44    39    38    1
    45    39    40    2
    46    38    42    2
    47    44    43    2
    48    42    43    1
