@<TRIPOS>MOLECULE
3ndt_ROC_A_1.pdb
 49 53 0 0 0
SMALL
GASTEIGER

@<TRIPOS>ATOM
      1  C         15.1400   17.5240   33.4670 C.2   101  ROC101      0.2949
      2  O         14.5570   16.6890   34.2990 O.2   101  ROC101     -0.2655
      3  N1        16.3420   19.6070   32.8840 N.2   101  ROC101     -0.4009
      4  C2        16.1230   18.5840   33.8010 C.2   101  ROC101      0.1854
      5  C3        16.7990   18.6270   35.0160 C.2   101  ROC101      0.0330
      6  C4        17.7570   19.6010   35.2720 C.2   101  ROC101     -0.0123
      7  C5        18.8750   21.6530   34.6370 C.2   101  ROC101     -0.0150
      8  C6        19.0390   22.6820   33.7380 C.2   101  ROC101     -0.0038
      9  C7        18.3220   22.6200   32.5690 C.2   101  ROC101      0.0020
     10  C8        17.4750   21.6360   32.2270 C.2   101  ROC101      0.0282
     11  C4A       17.9200   20.6640   34.3820 C.3   101  ROC101      0.0963
     12  C8A       17.2380   20.6140   33.1700 C.2   101  ROC101      0.1169
     13  N         14.7730   17.4800   32.1780 N.am  101  ROC101     -0.1913
     14  CA        13.9040   16.4070   31.6090 C.3   101  ROC101      0.1823
     15  C1        14.6310   15.7940   30.4260 C.2   101  ROC101      0.2618
     16  O1        14.4900   16.2820   29.2810 O.2   101  ROC101     -0.2715
     17  CB        12.5170   16.8000   31.2780 C.3   101  ROC101      0.1195
     18  CG        11.8440   17.1700   32.5590 C.2   101  ROC101      0.2630
     19  OD1       11.2810   16.2970   33.2460 O.2   101  ROC101     -0.2716
     20  ND2       11.8920   18.3580   32.8790 N.am  101  ROC101     -0.0877
     21  C9        15.6300   12.7180   29.2640 C.3   101  ROC101      0.1879
     22  O2        15.8470   11.8810   30.4010 O.3   101  ROC101     -0.2198
     23  CA1       16.1630   14.1210   29.5440 C.3   101  ROC101      0.1313
     24  N2        15.3850   14.7070   30.6290 N.am  101  ROC101     -0.2027
     25  CB1       17.6340   14.0920   29.9580 C.3   101  ROC101      0.0506
     26  CG1       18.1160   15.3520   30.5670 C.ar  101  ROC101     -0.0204
     27  CD1       18.4460   16.4210   29.7000 C.ar  101  ROC101     -0.0042
     28  CD2       18.2680   15.5000   31.9330 C.ar  101  ROC101     -0.0042
     29  CE1       18.8970   17.6000   30.2440 C.ar  101  ROC101     -0.0003
     30  CE2       18.7020   16.7080   32.4450 C.ar  101  ROC101     -0.0003
     31  CZ        18.9870   17.7670   31.6080 C.ar  101  ROC101     -0.0000
     32  N11       15.3460   12.3270   26.8040 N.3   101  ROC101     -0.2643
     33  CM        16.1200   12.1410   27.9590 C.3   101  ROC101      0.1075
     34  C21       16.0150   12.3730   25.5180 C.3   101  ROC101      0.1365
     35  CC        17.2860   13.2530   25.5720 C.2   101  ROC101      0.2558
     36  O3        17.1420   14.3940   25.9720 O.2   101  ROC101     -0.2719
     37  C31       15.1770   12.9970   24.4360 C.3   101  ROC101      0.0254
     38  C3A       13.8500   12.2210   24.3350 C.3   101  ROC101      0.0032
     39  C41       12.9260   12.8230   23.2750 C.3   101  ROC101      0.0001
     40  C51       12.3260   14.2060   23.6340 C.3   101  ROC101      0.0000
     41  C61       11.5130   13.9790   24.9140 C.3   101  ROC101      0.0000
     42  C71       12.5430   13.6220   25.9690 C.3   101  ROC101      0.0014
     43  C7A       13.1340   12.2340   25.7130 C.3   101  ROC101      0.0161
     44  C81       14.0360   11.7360   26.8120 C.3   101  ROC101      0.0725
     45  N3        18.3610   12.5490   25.1690 N.am  101  ROC101     -0.2077
     46  CD        19.7410   13.0170   25.0690 C.3   101  ROC101      0.0788
     47  C11       20.5450   11.8840   24.4540 C.3   101  ROC101      0.0217
     48  C22       19.5860   14.3460   24.5900 C.3   101  ROC101      0.0217
     49  C32       20.2490   13.3410   26.4880 C.3   101  ROC101      0.0217
@<TRIPOS>BOND
     1    39    40    1
     2    39    38    1
     3    40    41    1
     4    38    37    1
     5    38    43    1
     6    37    34    1
     7    47    46    1
     8    48    46    1
     9    41    42    1
    10    46    45    1
    11    46    49    1
    12    45    35   am
    13    34    35    1
    14    34    32    1
    15    35    36    2
    16    43    42    1
    17    43    44    1
    18    32    44    1
    19    32    33    1
    20    33    21    1
    21    21    23    1
    22    21    22    1
    23    16    15    2
    24    23    25    1
    25    23    24    1
    26    27    29   ar
    27    27    26   ar
    28    25    26    1
    29    29    31   ar
    30    15    24   am
    31    15    14    1
    32    26    28   ar
    33    17    14    1
    34    17    18    1
    35    31    30   ar
    36    14    13    1
    37    28    30   ar
    38    13     1   am
    39    10     9    2
    40    10    12    1
    41    18    20   am
    42    18    19    2
    43     9     8    1
    44     3    12    2
    45     3     4    2
    46    12    11    1
    47     1     4    1
    48     1     2    2
    49     8     7    2
    50     4     5    1
    51    11     7    1
    52    11     6    1
    53     5     6    2
