@<TRIPOS>MOLECULE
3ndu_ROC_A_1.pdb
 49 53 0 0 0
SMALL
GASTEIGER

@<TRIPOS>ATOM
      1  C         15.0960   17.5180   33.5170 C.2   101  ROC101      0.2949
      2  O         14.4950   16.7190   34.3710 O.2   101  ROC101     -0.2655
      3  N1        16.3370   19.5730   32.9610 N.2   101  ROC101     -0.4009
      4  C2        16.0990   18.5600   33.8750 C.2   101  ROC101      0.1854
      5  C3        16.6740   18.5930   35.1330 C.2   101  ROC101      0.0330
      6  C4        17.6110   19.6040   35.3920 C.2   101  ROC101     -0.0123
      7  C5        18.6820   21.7180   34.8120 C.2   101  ROC101     -0.0150
      8  C6        18.8080   22.7250   33.9050 C.2   101  ROC101     -0.0038
      9  C7        18.2840   22.5840   32.6410 C.2   101  ROC101      0.0020
     10  C8        17.4200   21.6180   32.3000 C.2   101  ROC101      0.0282
     11  C4A       17.8350   20.6480   34.4940 C.3   101  ROC101      0.0963
     12  C8A       17.1770   20.6090   33.2500 C.2   101  ROC101      0.1169
     13  N         14.7200   17.5130   32.2290 N.am  101  ROC101     -0.1913
     14  CA        13.8520   16.4730   31.6160 C.3   101  ROC101      0.1823
     15  C1        14.5800   15.8980   30.4080 C.2   101  ROC101      0.2618
     16  O1        14.4750   16.4010   29.2720 O.2   101  ROC101     -0.2715
     17  CB        12.4740   16.9130   31.2620 C.3   101  ROC101      0.1195
     18  CG        11.8220   17.3800   32.5530 C.2   101  ROC101      0.2630
     19  OD1       11.4920   16.4870   33.3910 O.2   101  ROC101     -0.2716
     20  ND2       11.6370   18.5770   32.7780 N.am  101  ROC101     -0.0877
     21  C9        15.5130   12.7250   29.3160 C.3   101  ROC101      0.1879
     22  O2        15.6760   11.8410   30.4180 O.3   101  ROC101     -0.2198
     23  CA1       16.0630   14.1200   29.5760 C.3   101  ROC101      0.1313
     24  N2        15.3000   14.7830   30.6160 N.am  101  ROC101     -0.2027
     25  CB1       17.5470   14.0430   29.9650 C.3   101  ROC101      0.0506
     26  CG1       18.0140   15.3550   30.4910 C.ar  101  ROC101     -0.0204
     27  CD1       18.2950   16.4330   29.6440 C.ar  101  ROC101     -0.0042
     28  CD2       18.1570   15.4750   31.8670 C.ar  101  ROC101     -0.0042
     29  CE1       18.7020   17.6090   30.2410 C.ar  101  ROC101     -0.0003
     30  CE2       18.6380   16.6430   32.4020 C.ar  101  ROC101     -0.0003
     31  CZ        18.8210   17.7630   31.5890 C.ar  101  ROC101     -0.0000
     32  N11       15.2920   12.3460   26.8640 N.3   101  ROC101     -0.2643
     33  CM        16.0590   12.1370   28.0160 C.3   101  ROC101      0.1075
     34  C21       15.9580   12.3620   25.5940 C.3   101  ROC101      0.1365
     35  CC        17.2510   13.1800   25.6180 C.2   101  ROC101      0.2558
     36  O3        17.1600   14.3250   26.0450 O.2   101  ROC101     -0.2719
     37  C31       15.0680   13.0220   24.5500 C.3   101  ROC101      0.0254
     38  C3A       13.7540   12.2210   24.4460 C.3   101  ROC101      0.0032
     39  C41       12.8350   12.7970   23.3630 C.3   101  ROC101      0.0001
     40  C51       12.2920   14.2150   23.7300 C.3   101  ROC101      0.0000
     41  C61       11.4950   13.9930   25.0150 C.3   101  ROC101      0.0000
     42  C71       12.5300   13.6690   26.0900 C.3   101  ROC101      0.0014
     43  C7A       13.0590   12.2620   25.8270 C.3   101  ROC101      0.0161
     44  C81       13.9840   11.7470   26.8940 C.3   101  ROC101      0.0725
     45  N3        18.3140   12.4630   25.2210 N.am  101  ROC101     -0.2077
     46  CD        19.6610   12.9750   25.0200 C.3   101  ROC101      0.0788
     47  C11       20.4720   11.7720   24.5660 C.3   101  ROC101      0.0217
     48  C22       19.4870   14.1710   24.2640 C.3   101  ROC101      0.0217
     49  C32       20.1860   13.4740   26.3670 C.3   101  ROC101      0.0217
@<TRIPOS>BOND
     1    39    40    1
     2    39    38    1
     3    40    41    1
     4    48    46    1
     5    38    37    1
     6    38    43    1
     7    37    34    1
     8    47    46    1
     9    41    42    1
    10    46    45    1
    11    46    49    1
    12    45    35   am
    13    34    35    1
    14    34    32    1
    15    35    36    2
    16    43    42    1
    17    43    44    1
    18    32    44    1
    19    32    33    1
    20    33    21    1
    21    16    15    2
    22    21    23    1
    23    21    22    1
    24    23    25    1
    25    23    24    1
    26    27    29   ar
    27    27    26   ar
    28    25    26    1
    29    29    31   ar
    30    15    24   am
    31    15    14    1
    32    26    28   ar
    33    17    14    1
    34    17    18    1
    35    31    30   ar
    36    14    13    1
    37    28    30   ar
    38    13     1   am
    39    10     9    2
    40    10    12    1
    41    18    20   am
    42    18    19    2
    43     9     8    1
    44     3    12    2
    45     3     4    2
    46    12    11    1
    47     1     4    1
    48     1     2    2
    49     4     5    1
    50     8     7    2
    51    11     7    1
    52    11     6    1
    53     5     6    2
