@<TRIPOS>MOLECULE
3ndv_AIC_A_1.pdb
 24 26 0 0 0
SMALL
GASTEIGER

@<TRIPOS>ATOM
      1  C8        36.7280  -36.5320   11.9180 C.ar  375  AIC375     -0.0003
      2  C5        35.1370  -35.1660   10.6040 C.ar  375  AIC375      0.0038
      3  C6        34.1130  -39.3490    6.0400 C.3   375  AIC375      0.0681
      4  N1        34.4000  -35.1680    7.5950 N.am  375  AIC375     -0.1937
      5  C2        34.1200  -38.9710    3.4940 C.2   375  AIC375      0.3833
      6  N3        34.3820  -37.3080    5.2300 N.am  375  AIC375     -0.2594
      7  C4        34.8880  -33.9450    9.7270 C.3   375  AIC375      0.1915
      8  C1        32.9150  -40.1400    6.4660 C.3   375  AIC375      0.0131
      9  C3        35.2840  -34.2850    8.3140 C.2   375  AIC375      0.2635
     10  C7        36.4580  -35.3560   11.1340 C.ar  375  AIC375     -0.0024
     11  C9        35.6990  -37.4850   12.1520 C.ar  375  AIC375     -0.0000
     12  C10       34.3920  -37.3010   11.6210 C.ar  375  AIC375     -0.0003
     13  C11       34.1060  -36.1220   10.8300 C.ar  375  AIC375     -0.0024
     14  C12       33.7780  -38.4930    4.8680 C.3   375  AIC375      0.1888
     15  C13       35.1190  -37.0060    6.2910 C.3   375  AIC375      0.1529
     16  C14       34.7360  -35.7530    6.3230 C.3   375  AIC375      0.1996
     17  C15       33.6360  -36.1410    5.5110 C.2   375  AIC375      0.2491
     18  C16       35.2630  -40.2570    5.7380 C.3   375  AIC375      0.0131
     19  N2        35.4970  -32.7180   10.1810 N.3   375  AIC375     -0.1182
     20  O1        33.2480  -39.4540    2.7920 O.co2 375  AIC375     -0.2438
     21  O2        35.4020  -38.8200    3.0000 O.co2 375  AIC375     -0.2438
     22  O3        36.2820  -33.8060    7.8100 O.2   375  AIC375     -0.2714
     23  O4        32.4880  -35.7300    5.3280 O.2   375  AIC375     -0.2729
     24  S1        34.5800  -38.1410    7.3170 S.3   375  AIC375     -0.1184
@<TRIPOS>BOND
     1    20     5   ar
     2    21     5   ar
     3     5    14    1
     4    14     6    1
     5    14     3    1
     6     6    17   am
     7     6    15    1
     8    23    17    2
     9    17    16    1
    10    18     3    1
    11     3     8    1
    12     3    24    1
    13    15    16    1
    14    15    24    1
    15    16     4    1
    16     4     9   am
    17    22     9    2
    18     9     7    1
    19     7    19    1
    20     7     2    1
    21     2    13   ar
    22     2    10   ar
    23    13    12   ar
    24    10     1   ar
    25    12    11   ar
    26     1    11   ar
