@<TRIPOS>MOLECULE
3ndv_NDV_A_1.pdb
 24 25 0 0 0
SMALL
GASTEIGER

@<TRIPOS>ATOM
      1  C1        39.7350  -42.8400   -4.4180 C.3   376  NDV376      0.0129
      2  N1        33.9900  -43.9230   -3.3460 N.am  376  NDV376     -0.1953
      3  O1        39.9940  -42.7630   -1.0420 O.co2 376  NDV376     -0.2441
      4  S1        37.1010  -42.6640   -4.6240 S.3   376  NDV376     -0.1212
      5  C2        39.4430  -43.5690   -1.8300 C.2   376  NDV376      0.3811
      6  N2        31.6260  -41.5820   -2.2710 N.3   376  NDV376     -0.1182
      7  O2        39.6800  -44.8010   -1.6850 O.co2 376  NDV376     -0.2441
      8  C3        33.5370  -42.5580   -3.4170 C.2   376  NDV376      0.2635
      9  N3        37.4340  -44.4350   -2.8430 N.3   376  NDV376     -0.1957
     10  O3        33.3120  -42.0730   -4.5030 O.2   376  NDV376     -0.2714
     11  C4        33.0590  -41.8450   -2.1590 C.3   376  NDV376      0.1915
     12  O4        34.6650  -46.2260   -2.6520 O.2   376  NDV376     -0.2863
     13  C5        33.8540  -40.5510   -1.9020 C.ar  376  NDV376      0.0038
     14  C6        38.4750  -42.3630   -3.7070 C.3   376  NDV376      0.0658
     15  C7        33.6470  -39.8210   -0.7380 C.ar  376  NDV376     -0.0024
     16  C8        34.3600  -38.6490   -0.5180 C.ar  376  NDV376     -0.0003
     17  C9        35.2810  -38.2120   -1.4600 C.ar  376  NDV376     -0.0000
     18  C10       35.4890  -38.9410   -2.6240 C.ar  376  NDV376     -0.0003
     19  C11       34.7730  -40.1110   -2.8440 C.ar  376  NDV376     -0.0024
     20  C12       38.2830  -43.1940   -2.3950 C.3   376  NDV376      0.1857
     21  C13       36.2740  -43.5740   -3.5600 C.3   376  NDV376      0.1479
     22  C14       35.1680  -44.3630   -4.0630 C.3   376  NDV376      0.1856
     23  C15       35.2960  -45.8110   -3.6710 C.2   376  NDV376      0.2311
     24  C16       38.5800  -40.8880   -3.3910 C.3   376  NDV376      0.0129
@<TRIPOS>BOND
     1     4    14    1
     2     4    21    1
     3    10     8    2
     4     1    14    1
     5    22    23    1
     6    22    21    1
     7    22     2    1
     8    14    24    1
     9    14    20    1
    10    23    12    2
    11    21     9    1
    12     8     2   am
    13     8    11    1
    14    19    18   ar
    15    19    13   ar
    16     9    20    1
    17    18    17   ar
    18    20     5    1
    19     6    11    1
    20    11    13    1
    21    13    15   ar
    22     5     7   ar
    23     5     3   ar
    24    17    16   ar
    25    15    16   ar
