@<TRIPOS>MOLECULE
3ndw_RIT_A_1.pdb
 50 53 0 0 0
SMALL
GASTEIGER

@<TRIPOS>ATOM
      1  C1        19.6480   36.6760   17.1680 C.3   100  RIT100      0.1410
      2  C2        18.9820   35.4890   17.3150 C.3   100  RIT100      0.1214
      3  S3        18.9430   35.3720   19.0350 S.3   100  RIT100     -0.0884
      4  C4        19.7790   36.8510   19.3220 C.2   100  RIT100      0.1245
      5  N5        20.1210   37.4480   18.2440 N.2   100  RIT100     -0.2611
      6  C6        19.2970   34.1430   16.7200 C.3   100  RIT100      0.2232
      7  O7        18.3480   33.5630   15.8420 O.3   100  RIT100     -0.4325
      8  C10       18.8580   32.4780   15.2080 C.2   100  RIT100      0.4212
      9  O24       18.5890   32.2350   14.0670 O.2   100  RIT100     -0.2246
     10  N11       19.7100   31.7840   15.9830 N.am  100  RIT100     -0.1675
     11  C12       20.8010   31.0700   15.3210 C.3   100  RIT100      0.1333
     12  C13       20.6160   29.5670   15.5350 C.3   100  RIT100      0.1739
     13  C14       19.3950   28.9720   14.8610 C.3   100  RIT100      0.0567
     14  C15       19.4720   28.8190   13.3620 C.3   100  RIT100      0.1023
     15  C26       22.1450   31.5020   15.9260 C.3   100  RIT100      0.0507
     16  C28       22.4620   32.9690   15.8200 C.ar  100  RIT100     -0.0204
     17  C31       22.7510   33.5750   14.6170 C.ar  100  RIT100     -0.0042
     18  C32       23.0560   34.9240   14.5250 C.ar  100  RIT100     -0.0003
     19  C33       23.0110   35.6610   15.6910 C.ar  100  RIT100     -0.0000
     20  C34       22.7170   35.0500   16.8910 C.ar  100  RIT100     -0.0003
     21  C35       22.5280   33.7010   16.9930 C.ar  100  RIT100     -0.0042
     22  O41       20.5520   29.2490   16.9600 O.3   100  RIT100     -0.2212
     23  C44       18.2130   28.0120   12.9210 C.3   100  RIT100      0.0481
     24  C45       18.0000   28.0420   11.4220 C.ar  100  RIT100     -0.0205
     25  C48       18.5220   27.0250   10.6370 C.ar  100  RIT100     -0.0042
     26  C49       18.3290   26.9920    9.2670 C.ar  100  RIT100     -0.0003
     27  C50       17.5690   28.0010    8.6750 C.ar  100  RIT100     -0.0000
     28  C51       17.0710   29.0440    9.4520 C.ar  100  RIT100     -0.0003
     29  C52       17.2980   29.0610   10.8230 C.ar  100  RIT100     -0.0042
     30  N58       20.6810   28.1610   12.8870 N.am  100  RIT100     -0.2053
     31  N20       22.3200   27.0330   10.4710 N.am  100  RIT100     -0.1808
     32  C19       22.6870   27.6730   11.7840 C.3   100  RIT100      0.1742
     33  C18       21.6320   28.7140   12.1200 C.2   100  RIT100      0.2612
     34  O61       21.5760   29.8870   11.7620 O.2   100  RIT100     -0.2715
     35  C62       24.1660   27.9620   12.0180 C.3   100  RIT100      0.0290
     36  C64       25.1080   27.4150   10.9250 C.3   100  RIT100      0.0023
     37  C68       24.5020   29.3160   12.5110 C.3   100  RIT100      0.0023
     38  C21       21.9390   25.7350   10.5100 C.2   100  RIT100      0.3240
     39  N74       21.6030   25.0600    9.3920 N.am  100  RIT100     -0.2546
     40  C75       21.1430   23.6520    9.5210 C.3   100  RIT100      0.1504
     41  O76       21.9570   25.1120   11.6300 O.2   100  RIT100     -0.2507
     42  C77       19.6080   23.6050    9.4480 C.2   100  RIT100      0.1182
     43  C80       18.6670   23.4610   10.4320 C.3   100  RIT100      0.1202
     44  S81       17.0900   23.4860    9.7720 S.3   100  RIT100     -0.0795
     45  C82       17.8150   23.7270    8.2490 C.2   100  RIT100      0.1335
     46  N83       19.0740   23.7320    8.1600 N.2   100  RIT100     -0.4061
     47  C85       16.7430   23.7400    7.2700 C.3   100  RIT100      0.0585
     48  C86       16.9790   24.9310    6.2760 C.3   100  RIT100      0.0080
     49  C90       15.2920   23.7920    7.7340 C.3   100  RIT100      0.0080
     50  C95       21.6740   25.7560    8.0910 C.3   100  RIT100      0.1169
@<TRIPOS>BOND
     1    48    47    1
     2    47    49    1
     3    47    45    1
     4    50    39    1
     5    46    45    2
     6    46    42    2
     7    45    44    1
     8    27    26   ar
     9    27    28   ar
    10    26    25   ar
    11    39    40    1
    12    39    38   am
    13    42    40    1
    14    42    43    1
    15    28    29   ar
    16    44    43    1
    17    31    38   am
    18    31    32    1
    19    38    41    2
    20    25    24   ar
    21    29    24   ar
    22    36    35    1
    23    24    23    1
    24    34    33    2
    25    32    35    1
    26    32    33    1
    27    35    37    1
    28    33    30   am
    29    30    14    1
    30    23    14    1
    31    14    13    1
    32     9     8    2
    33    18    17   ar
    34    18    19   ar
    35    17    16   ar
    36    13    12    1
    37     8     7    1
    38     8    10   am
    39    11    12    1
    40    11    15    1
    41    11    10    1
    42    12    22    1
    43    19    20   ar
    44    16    15    1
    45    16    21   ar
    46     7     6    1
    47     6     2    1
    48    20    21   ar
    49     1     2    1
    50     1     5    1
    51     2     3    1
    52     5     4    2
    53     3     4    1
