@<TRIPOS>MOLECULE
3ndx_RIT_A_1.pdb
 50 53 0 0 0
SMALL
GASTEIGER

@<TRIPOS>ATOM
      1  C1        31.2900   -7.2170   17.2400 C.3   100  RIT100      0.1410
      2  C2        32.0650   -6.0980   17.2900 C.3   100  RIT100      0.1214
      3  S3        32.2700   -5.9100   18.9960 S.3   100  RIT100     -0.0884
      4  C4        31.3070   -7.2800   19.3840 C.2   100  RIT100      0.1245
      5  N5        30.8620   -7.9200   18.3910 N.2   100  RIT100     -0.2611
      6  C6        31.8440   -4.7010   16.7500 C.3   100  RIT100      0.2232
      7  O7        32.8840   -4.1710   15.9390 O.3   100  RIT100     -0.4325
      8  C10       32.3110   -3.1470   15.2510 C.2   100  RIT100      0.4212
      9  O24       32.5520   -3.0660   14.0800 O.2   100  RIT100     -0.2246
     10  N11       31.4920   -2.3960   15.9730 N.am  100  RIT100     -0.1675
     11  C12       30.4190   -1.6560   15.3340 C.3   100  RIT100      0.1333
     12  C13       30.5860   -0.1340   15.5610 C.3   100  RIT100      0.1739
     13  C14       31.8000    0.4980   14.8650 C.3   100  RIT100      0.0567
     14  C15       31.6800    0.6320   13.3440 C.3   100  RIT100      0.1023
     15  C26       29.0670   -2.0610   15.9260 C.3   100  RIT100      0.0507
     16  C28       28.7190   -3.5500   15.8170 C.ar  100  RIT100     -0.0204
     17  C31       28.3630   -4.1170   14.6070 C.ar  100  RIT100     -0.0042
     18  C32       28.0090   -5.4760   14.5370 C.ar  100  RIT100     -0.0003
     19  C33       28.0600   -6.2360   15.6950 C.ar  100  RIT100     -0.0000
     20  C34       28.4310   -5.6320   16.8780 C.ar  100  RIT100     -0.0003
     21  C35       28.6080   -4.2840   16.9630 C.ar  100  RIT100     -0.0042
     22  O41       30.6670    0.2020   16.9310 O.3   100  RIT100     -0.2212
     23  C44       32.9810    1.3490   12.8900 C.3   100  RIT100      0.0481
     24  C45       33.1610    1.3510   11.3890 C.ar  100  RIT100     -0.0205
     25  C48       32.6200    2.3890   10.6370 C.ar  100  RIT100     -0.0042
     26  C49       32.8140    2.3520    9.2800 C.ar  100  RIT100     -0.0003
     27  C50       33.5930    1.3820    8.6350 C.ar  100  RIT100     -0.0000
     28  C51       34.0950    0.3260    9.3990 C.ar  100  RIT100     -0.0003
     29  C52       33.8740    0.3320   10.7510 C.ar  100  RIT100     -0.0042
     30  N58       30.4630    1.2560   12.9120 N.am  100  RIT100     -0.2053
     31  N20       28.8720    2.3670   10.5180 N.am  100  RIT100     -0.1808
     32  C19       28.4750    1.6920   11.8070 C.3   100  RIT100      0.1742
     33  C18       29.5460    0.6770   12.1500 C.2   100  RIT100      0.2612
     34  O61       29.5980   -0.4840   11.7620 O.2   100  RIT100     -0.2715
     35  C62       27.1000    1.3920   12.1320 C.3   100  RIT100      0.0290
     36  C64       26.0810    2.0750   11.1860 C.3   100  RIT100      0.0023
     37  C68       26.6730    0.0330   12.5490 C.3   100  RIT100      0.0023
     38  C21       29.2700    3.6540   10.5860 C.2   100  RIT100      0.3240
     39  N74       29.6480    4.3130    9.4460 N.am  100  RIT100     -0.2546
     40  C75       30.1550    5.6850    9.5510 C.3   100  RIT100      0.1504
     41  O76       29.2560    4.2720   11.6610 O.2   100  RIT100     -0.2507
     42  C77       31.6720    5.7240    9.3990 C.2   100  RIT100      0.1182
     43  C80       32.5650    5.8960   10.4320 C.3   100  RIT100      0.1202
     44  S81       34.1260    5.8780    9.7960 S.3   100  RIT100     -0.0795
     45  C82       33.5170    5.6960    8.2310 C.2   100  RIT100      0.1335
     46  N83       32.2220    5.6270    8.1620 N.2   100  RIT100     -0.4061
     47  C85       34.4660    5.6730    7.1260 C.3   100  RIT100      0.0585
     48  C86       34.1520    4.3810    6.3040 C.3   100  RIT100      0.0080
     49  C90       35.9420    5.7750    7.4360 C.3   100  RIT100      0.0080
     50  C95       29.6050    3.6400    8.1410 C.3   100  RIT100      0.1169
@<TRIPOS>BOND
     1    48    47    1
     2    47    49    1
     3    47    45    1
     4    50    39    1
     5    46    45    2
     6    46    42    2
     7    45    44    1
     8    27    26   ar
     9    27    28   ar
    10    26    25   ar
    11    28    29   ar
    12    42    40    1
    13    42    43    1
    14    39    40    1
    15    39    38   am
    16    44    43    1
    17    31    38   am
    18    31    32    1
    19    38    41    2
    20    25    24   ar
    21    29    24   ar
    22    36    35    1
    23    24    23    1
    24    34    33    2
    25    32    35    1
    26    32    33    1
    27    35    37    1
    28    33    30   am
    29    23    14    1
    30    30    14    1
    31    14    13    1
    32     9     8    2
    33    18    17   ar
    34    18    19   ar
    35    17    16   ar
    36    13    12    1
    37     8     7    1
    38     8    10   am
    39    11    12    1
    40    11    15    1
    41    11    10    1
    42    12    22    1
    43    19    20   ar
    44    16    15    1
    45    16    21   ar
    46     7     6    1
    47     6     2    1
    48    20    21   ar
    49     1     2    1
    50     1     5    1
    51     2     3    1
    52     5     4    2
    53     3     4    1
