@<TRIPOS>MOLECULE
3ndz_CT3_A_1.pdb
 34 36 0 0 0
SMALL
GASTEIGER

@<TRIPOS>ATOM
      1  C1A       -9.9730  -23.4750   20.3350 C.3     1  CT31        0.3023
      2  C2A      -11.2390  -22.9510   19.7190 C.3     1  CT31        0.2433
      3  C3A      -12.3970  -23.5580   20.4870 C.3     1  CT31        0.2168
      4  C4A      -12.2740  -25.0680   20.3450 C.3     1  CT31        0.1804
      5  C5A      -10.9070  -25.5810   21.0080 C.3     1  CT31        0.1804
      6  C6A      -10.6830  -27.1120   20.9780 C.3     1  CT31        0.2141
      7  O1X       -8.9030  -22.9910   19.5230 O.3     1  CT31       -0.1869
      8  O2A      -11.2720  -21.5380   19.9600 O.3     1  CT31       -0.2148
      9  O3A      -13.6390  -23.1150   19.9250 O.3     1  CT31       -0.2175
     10  O4A      -13.3460  -25.6610   21.0450 O.3     1  CT31       -0.3257
     11  O5A       -9.8200  -24.9200   20.3030 O.3     1  CT31       -0.3237
     12  O6A      -10.6330  -27.6430   19.6660 O.3     1  CT31       -0.2176
     13  C1B      -13.8200  -26.7610   20.2630 C.3     1  CT31        0.2695
     14  C2B      -14.8350  -27.5540   21.0950 C.3     1  CT31        0.2404
     15  C3B      -15.3000  -28.7000   20.2180 C.3     1  CT31        0.2167
     16  C4B      -15.9480  -28.1160   18.9520 C.3     1  CT31        0.1804
     17  C5B      -14.9440  -27.3000   18.2050 C.3     1  CT31        0.1803
     18  C6B      -15.7070  -26.6860   17.0220 C.3     1  CT31        0.2141
     19  O2B      -14.1940  -28.0540   22.2770 O.3     1  CT31       -0.2149
     20  O3B      -16.2850  -29.4360   20.9530 O.3     1  CT31       -0.2175
     21  O4B      -16.4280  -29.1070   18.0160 O.3     1  CT31       -0.3257
     22  O5B      -14.4580  -26.2400   19.0420 O.3     1  CT31       -0.3257
     23  O6B      -14.8220  -25.9140   16.2020 O.3     1  CT31       -0.2176
     24  C1C      -17.8120  -29.1540   17.6570 C.3     1  CT31        0.2695
     25  C2C      -17.9190  -29.9860   16.3930 C.3     1  CT31        0.2406
     26  C3C      -19.3810  -30.0280   15.9620 C.3     1  CT31        0.2198
     27  C4C      -20.1380  -30.6960   17.0820 C.3     1  CT31        0.2144
     28  C5C      -19.9700  -29.8800   18.3710 C.3     1  CT31        0.1835
     29  C6C      -20.6190  -30.5860   19.5650 C.3     1  CT31        0.2142
     30  O2C      -17.1400  -29.3570   15.3690 O.3     1  CT31       -0.2149
     31  O3C      -19.5290  -30.7830   14.7610 O.3     1  CT31       -0.2174
     32  O4C      -21.5180  -30.7640   16.7090 O.3     1  CT31       -0.2176
     33  O5C      -18.5560  -29.8020   18.7080 O.3     1  CT31       -0.3256
     34  O6C      -19.9770  -31.8520   19.7750 O.3     1  CT31       -0.2176
@<TRIPOS>BOND
     1    31    26    1
     2    30    25    1
     3    26    25    1
     4    26    27    1
     5    23    18    1
     6    25    24    1
     7    32    27    1
     8    18    17    1
     9    27    28    1
    10    24    21    1
    11    24    33    1
    12    21    16    1
    13    17    16    1
    14    17    22    1
    15    28    33    1
    16    28    29    1
    17    16    15    1
    18    22    13    1
    19     7     1    1
    20    29    34    1
    21    12     6    1
    22     2     8    1
    23     2     1    1
    24     2     3    1
    25     9     3    1
    26    15    20    1
    27    15    14    1
    28    13    10    1
    29    13    14    1
    30    11     1    1
    31    11     5    1
    32     4     3    1
    33     4     5    1
    34     4    10    1
    35     6     5    1
    36    14    19    1
