@<TRIPOS>MOLECULE
3ne6_DCP_A_1.pdb
 28 29 0 0 0
SMALL
GASTEIGER

@<TRIPOS>ATOM
      1  N1        -0.1420   -6.0780   45.9810 N.am  909  DCP909     -0.1802
      2  C2        -0.6660   -5.4090   44.8820 C.1   909  DCP909      0.2756
      3  N3        -0.7980   -6.0570   43.6670 N.2   909  DCP909     -0.3024
      4  C4        -0.4810   -7.3980   43.5470 C.2   909  DCP909      0.2346
      5  C5        -0.0730   -8.1010   44.6810 C.2   909  DCP909      0.0687
      6  C6         0.2200   -7.4030   45.8500 C.2   909  DCP909      0.0835
      7  O2        -1.0280   -4.2380   44.9820 O.2   909  DCP909     -0.1925
      8  N4        -0.5720   -7.9980   42.3600 N.pl3 909  DCP909     -0.0921
      9  C1'       -0.2370   -5.4330   47.3190 C.3   909  DCP909      0.2090
     10  C2'       -1.6760   -5.5000   47.8240 C.3   909  DCP909      0.0874
     11  C3'       -1.6350   -6.6250   48.8320 C.3   909  DCP909      0.1857
     12  C4'       -0.2200   -6.5160   49.3740 C.3   909  DCP909      0.1773
     13  O4'        0.5680   -6.0980   48.2730 O.3   909  DCP909     -0.3339
     14  O3'       -2.6570   -6.5040   49.7950 O.3   909  DCP909     -0.2203
     15  C5'        0.3390   -7.8290   49.8990 C.3   909  DCP909      0.1812
     16  O5'        0.3120   -8.7910   48.8660 O.3   909  DCP909     -0.3112
     17  PA         0.0020  -10.3460   49.1720 P.3   909  DCP909      0.2189
     18  O1A        0.5960  -11.1380   48.0420 O.2   909  DCP909     -0.5170
     19  O2A        0.5720  -10.7640   50.5030 O.3   909  DCP909     -0.4371
     20  O3A       -1.5930  -10.4810   49.0900 O.3   909  DCP909     -0.2700
     21  PB        -2.7190  -10.0130   50.1430 P.3   909  DCP909      0.2277
     22  O1B       -3.5470   -8.9520   49.4650 O.2   909  DCP909     -0.5168
     23  O2B       -2.1800   -9.5590   51.4720 O.3   909  DCP909     -0.4368
     24  O3B       -3.6920  -11.2990   50.2520 O.3   909  DCP909     -0.2258
     25  PG        -3.4350  -12.6200   51.1480 P.3   909  DCP909      0.5373
     26  O1G       -2.1270  -12.4800   51.8840 O.3   909  DCP909     -0.1143
     27  O2G       -4.5890  -12.7220   52.1080 O.3   909  DCP909     -0.1143
     28  O3G       -3.4060  -13.8160   50.2430 O.2   909  DCP909     -0.2221
@<TRIPOS>BOND
     1     8     4    1
     2     4     3    2
     3     4     5    1
     4     3     2    2
     5     5     6    2
     6     2     7    2
     7     2     1   am
     8     6     1    1
     9     1     9    1
    10     9    10    1
    11     9    13    1
    12    10    11    1
    13    18    17    2
    14    13    12    1
    15    11    12    1
    16    11    14    1
    17    16    17    1
    18    16    15    1
    19    20    17    1
    20    20    21    1
    21    17    19    1
    22    12    15    1
    23    22    21    2
    24    21    24    1
    25    21    23    1
    26    28    25    2
    27    24    25    1
    28    25    26    1
    29    25    27    1
