@<TRIPOS>MOLECULE
3ne7_COA_A_1.pdb
 48 50 0 0 0
SMALL
GASTEIGER

@<TRIPOS>ATOM
      1  N1A       -9.1600   -8.3110   -3.2840 N.2   161  COA161      0.0021
      2  C2A      -10.1120   -9.0410   -3.9140 C.3   161  COA161      0.5254
      3  N3A      -11.4360   -8.8360   -3.7110 N.2   161  COA161     -0.0055
      4  C4A      -11.8430   -7.8630   -2.8410 C.2   161  COA161      0.3518
      5  C5A      -10.8070   -7.0670   -2.1460 C.2   161  COA161      0.2526
      6  C6A       -9.4820   -7.3310   -2.3990 C.2   161  COA161      0.4393
      7  N6A       -8.5240   -6.6150   -1.7740 N.pl3 161  COA161      0.2180
      8  N7A      -11.4530   -6.1870   -1.3800 N.2   161  COA161     -0.2095
      9  C8A      -12.7830   -6.3920   -1.5380 C.3   161  COA161      0.3377
     10  N9A      -13.0310   -7.3820   -2.4080 N.pl3 161  COA161     -0.1439
     11  C1B      -14.3820   -7.8080   -2.8450 C.3   161  COA161      0.3185
     12  C2B      -14.6260   -9.3090   -2.7660 C.3   161  COA161      0.2543
     13  O2B      -15.6200   -9.6790   -3.7430 O.3   161  COA161     -0.2131
     14  C3B      -15.0630   -9.4260   -1.3140 C.3   161  COA161      0.1928
     15  O3B      -15.8170  -10.5530   -0.9720 O.3   161  COA161     -0.2673
     16  P3B      -15.1270  -11.8840   -0.3880 P.3   161  COA161      0.5327
     17  O7A      -15.0450  -11.7210    1.1290 O.3   161  COA161     -0.1145
     18  O8A      -13.8100  -12.0320   -1.0800 O.2   161  COA161     -0.2224
     19  O9A      -16.1350  -12.8930   -0.7970 O.3   161  COA161     -0.1145
     20  C4B      -15.8500   -8.1600   -1.0700 C.3   161  COA161      0.1795
     21  O4B      -15.3680   -7.2020   -2.0080 O.3   161  COA161     -0.3136
     22  C5B      -15.6670   -7.6490    0.3590 C.3   161  COA161      0.1812
     23  O5B      -16.5900   -6.5700    0.5730 O.3   161  COA161     -0.3112
     24  P1A      -16.2100   -5.2750    1.3820 P.3   161  COA161      0.2189
     25  O1A      -15.2060   -5.5970    2.4580 O.3   161  COA161     -0.4371
     26  O2A      -17.5230   -4.6870    1.7340 O.2   161  COA161     -0.5170
     27  O3A      -15.5030   -4.4200    0.2170 O.3   161  COA161     -0.2703
     28  P2A      -14.6230   -3.0780    0.3600 P.3   161  COA161      0.2188
     29  O4A      -13.1960   -3.4410   -0.0680 O.2   161  COA161     -0.5170
     30  O5A      -14.8280   -2.4480    1.7350 O.3   161  COA161     -0.4371
     31  O6A      -15.1880   -2.1180   -0.7930 O.3   161  COA161     -0.3138
     32  CBP      -14.5160   -1.7510   -3.1120 C.3   161  COA161      0.0645
     33  CCP      -15.2800   -2.6240   -2.1550 C.3   161  COA161      0.1519
     34  CDP      -14.7990   -2.1710   -4.5690 C.3   161  COA161      0.0056
     35  CEP      -14.9770   -0.3370   -2.9250 C.3   161  COA161      0.0056
     36  CAP      -13.0290   -1.7510   -2.7140 C.3   161  COA161      0.2312
     37  OAP      -12.5580   -3.0990   -2.6790 O.3   161  COA161     -0.2131
     38  C9P      -12.2150   -0.8910   -3.6760 C.2   161  COA161      0.2719
     39  O9P      -12.0640    0.3060   -3.4490 O.2   161  COA161     -0.2706
     40  N8P      -11.7250   -1.4670   -4.7670 N.am  161  COA161     -0.2028
     41  C7P      -10.9170   -0.8280   -5.8110 C.3   161  COA161      0.1248
     42  C6P      -11.7130    0.1940   -6.6380 C.3   161  COA161      0.1102
     43  C5P      -12.9350   -0.3990   -7.3160 C.2   161  COA161      0.2432
     44  O5P      -12.8830   -1.4990   -7.8830 O.2   161  COA161     -0.2733
     45  N4P      -14.0250    0.3580   -7.2380 N.am  161  COA161     -0.2044
     46  C3P      -15.4110    0.1850   -7.6730 C.3   161  COA161      0.1276
     47  C2P      -15.4580    0.0990   -9.1880 C.3   161  COA161      0.0920
     48  S1P      -14.9830    1.6700   -9.9280 S.3   161  COA161     -0.0802
@<TRIPOS>BOND
     1    48    47    1
     2    47    46    1
     3    44    43    2
     4    46    45    1
     5    43    45   am
     6    43    42    1
     7    42    41    1
     8    41    40    1
     9    40    38   am
    10    34    32    1
    11     2     3    1
    12     2     1    1
    13    13    12    1
    14     3     4    2
    15    38    39    2
    16    38    36    1
    17     1     6    2
    18    32    35    1
    19    32    36    1
    20    32    33    1
    21    11    12    1
    22    11    10    1
    23    11    21    1
    24     4    10    1
    25     4     5    1
    26    12    14    1
    27    36    37    1
    28    10     9    1
    29     6     5    1
    30     6     7    1
    31    33    31    1
    32     5     8    2
    33    21    20    1
    34     9     8    1
    35    14    20    1
    36    14    15    1
    37    18    16    2
    38    20    22    1
    39    15    16    1
    40    19    16    1
    41    31    28    1
    42    16    17    1
    43    29    28    2
    44    27    28    1
    45    27    24    1
    46    22    23    1
    47    28    30    1
    48    23    24    1
    49    24    26    2
    50    24    25    1
