@<TRIPOS>MOLECULE
3nee_B72_B_1.pdb
 24 25 0 0 0
SMALL
GASTEIGER

@<TRIPOS>ATOM
      1  O1       -23.5530   -2.8500  -35.0480 O.co2   1  B721       -0.2415
      2  C20      -22.8740   -1.8770  -34.6530 C.2     1  B721        0.4084
      3  O2       -23.1390   -0.6770  -34.9090 O.co2   1  B721       -0.2415
      4  C19      -21.6410   -2.1790  -33.8040 C.3     1  B721        0.3186
      5  O3       -21.0120   -0.9530  -33.4250 O.3     1  B721       -0.4637
      6  C1       -21.3920   -0.6060  -32.1610 C.ar    1  B721        0.1387
      7  C2       -20.7740    0.4640  -31.5260 C.ar    1  B721        0.0323
      8  C3       -21.1480    0.8200  -30.2360 C.ar    1  B721       -0.0228
      9  C17      -20.4720    2.0010  -29.5300 C.3     1  B721        0.0308
     10  C4       -22.1460    0.1150  -29.5740 C.ar    1  B721       -0.0255
     11  C5       -22.7660   -0.9500  -30.2200 C.ar    1  B721       -0.0228
     12  C6       -22.3920   -1.3210  -31.5080 C.ar    1  B721        0.0323
     13  C18      -23.8630   -1.7270  -29.4820 C.3     1  B721        0.0308
     14  C7       -22.5810    0.4970  -28.1710 C.3     1  B721        0.0520
     15  C8       -21.7240   -0.1890  -27.1100 C.ar    1  B721       -0.0179
     16  C13      -21.8030    0.2870  -25.8190 C.ar    1  B721       -0.0051
     17  C12      -21.0550   -0.2970  -24.8110 C.ar    1  B721        0.0161
     18  C14      -21.1570    0.2430  -23.3780 C.3     1  B721        0.0255
     19  C16      -21.7690    1.6470  -23.4120 C.3     1  B721        0.0048
     20  C15      -22.0470   -0.6740  -22.5400 C.3     1  B721        0.0048
     21  C11      -20.2160   -1.3590  -25.1080 C.ar    1  B721        0.1917
     22  O4       -19.4940   -1.8970  -24.0980 O.3     1  B721       -0.2869
     23  C10      -20.1260   -1.8580  -26.4070 C.ar    1  B721        0.0414
     24  C9       -20.8780   -1.2670  -27.4200 C.ar    1  B721       -0.0007
@<TRIPOS>BOND
     1     1     2   ar
     2     3     2   ar
     3     2     4    1
     4     4     5    1
     5     5     6    1
     6     6     7   ar
     7     6    12   ar
     8     7     8   ar
     9    12    11   ar
    10     8    10   ar
    11     8     9    1
    12    11    10   ar
    13    11    13    1
    14    10    14    1
    15    14    15    1
    16    24    15   ar
    17    24    23   ar
    18    15    16   ar
    19    23    21   ar
    20    16    17   ar
    21    21    17   ar
    22    21    22    1
    23    17    18    1
    24    19    18    1
    25    18    20    1
