@<TRIPOS>MOLECULE
3nef_PYV_A_1.pdb
 22 24 0 0 0
SMALL
GASTEIGER

@<TRIPOS>ATOM
      1  S        -54.9610   40.2900  -22.2550 S.O2  201  PYV201      0.0772
      2 BR        -60.9540   39.8970  -24.3040 Br    201  PYV201     -0.0490
      3  C1       -59.1820   40.1190  -23.6700 C.ar  201  PYV201      0.0346
      4  N1       -54.9590   40.8390  -20.7420 N.3   201  PYV201     -0.0713
      5  O1       -54.1590   41.1450  -23.0720 O.2   201  PYV201     -0.1516
      6  C2       -58.6460   41.4640  -23.3350 C.ar  201  PYV201      0.0075
      7  N2       -57.3020   39.7430  -18.0860 N.ar  201  PYV201     -0.2467
      8  O2       -54.4580   38.9460  -22.2920 O.2   201  PYV201     -0.1516
      9  C3       -57.2490   41.5630  -22.8760 C.ar  201  PYV201      0.0191
     10  C4       -56.4650   40.3140  -22.7660 C.ar  201  PYV201      0.1236
     11  C5       -57.0540   39.1090  -23.1020 C.ar  201  PYV201      0.0205
     12  C6       -58.3670   39.0070  -23.5340 C.ar  201  PYV201      0.0081
     13  C7       -56.7330   42.8100  -22.5750 C.ar  201  PYV201      0.0013
     14  C8       -57.5360   43.9480  -22.7050 C.ar  201  PYV201      0.0000
     15  C9       -58.8540   43.8530  -23.1300 C.ar  201  PYV201      0.0000
     16  C10      -59.4090   42.6160  -23.4570 C.ar  201  PYV201      0.0005
     17  C11      -55.3270   40.0160  -19.6050 C.3   201  PYV201      0.1608
     18  C12      -56.7260   40.3910  -19.1230 C.ar  201  PYV201      0.0785
     19  C13      -58.5280   40.0500  -17.6340 C.ar  201  PYV201      0.0985
     20  C14      -59.2690   41.0630  -18.2240 C.ar  201  PYV201      0.0207
     21  C15      -58.7010   41.7430  -19.2800 C.ar  201  PYV201      0.0029
     22  C16      -57.4290   41.4150  -19.7280 C.ar  201  PYV201      0.0163
@<TRIPOS>BOND
     1     2     3    1
     2     3    12   ar
     3     3     6   ar
     4    12    11   ar
     5    16     6   ar
     6    16    15   ar
     7     6     9   ar
     8    15    14   ar
     9    11    10   ar
    10     5     1    2
    11     9    10   ar
    12     9    13   ar
    13    10     1    1
    14    14    13   ar
    15     8     1    2
    16     1     4    1
    17     4    17    1
    18    22    21   ar
    19    22    18   ar
    20    17    18    1
    21    21    20   ar
    22    18     7   ar
    23    20    19   ar
    24     7    19   ar
