@<TRIPOS>MOLECULE
3neg_PYV_A_1.pdb
 22 24 0 0 0
SMALL
GASTEIGER

@<TRIPOS>ATOM
      1  S        -55.7370   40.4930  -22.2670 S.O2  201  PYV201      0.0772
      2 BR        -61.7500   40.8360  -24.2160 Br    201  PYV201     -0.0490
      3  C1       -59.9630   40.7450  -23.6310 C.ar  201  PYV201      0.0346
      4  N1       -55.6690   41.0840  -20.7950 N.3   201  PYV201     -0.0713
      5  O1       -54.8990   41.3180  -23.0830 O.2   201  PYV201     -0.1516
      6  C2       -59.2480   42.0050  -23.2920 C.ar  201  PYV201      0.0075
      7  N2       -57.8480   39.8750  -18.1490 N.ar  201  PYV201     -0.2467
      8  O2       -55.3260   39.1220  -22.2990 O.2   201  PYV201     -0.1516
      9  C3       -57.8480   41.9170  -22.8570 C.ar  201  PYV201      0.0191
     10  C4       -57.2350   40.5820  -22.7680 C.ar  201  PYV201      0.1236
     11  C5       -57.9650   39.4440  -23.1160 C.ar  201  PYV201      0.0205
     12  C6       -59.2990   39.5220  -23.5410 C.ar  201  PYV201      0.0081
     13  C7       -57.1440   43.0570  -22.5270 C.ar  201  PYV201      0.0013
     14  C8       -57.7800   44.2900  -22.6210 C.ar  201  PYV201      0.0000
     15  C9       -59.1030   44.3860  -23.0380 C.ar  201  PYV201      0.0000
     16  C10      -59.8400   43.2530  -23.3710 C.ar  201  PYV201      0.0005
     17  C11      -55.9190   40.2280  -19.6570 C.3   201  PYV201      0.1608
     18  C12      -57.2630   40.6230  -19.1020 C.ar  201  PYV201      0.0785
     19  C13      -59.0440   40.2090  -17.6570 C.ar  201  PYV201      0.0985
     20  C14      -59.7070   41.3400  -18.1050 C.ar  201  PYV201      0.0207
     21  C15      -59.1210   42.1300  -19.0700 C.ar  201  PYV201      0.0029
     22  C16      -57.8830   41.7680  -19.5740 C.ar  201  PYV201      0.0163
@<TRIPOS>BOND
     1     2     3    1
     2     3    12   ar
     3     3     6   ar
     4    12    11   ar
     5    16     6   ar
     6    16    15   ar
     7     6     9   ar
     8    11    10   ar
     9     5     1    2
    10    15    14   ar
    11     9    10   ar
    12     9    13   ar
    13    10     1    1
    14    14    13   ar
    15     8     1    2
    16     1     4    1
    17     4    17    1
    18    17    18    1
    19    22    18   ar
    20    22    21   ar
    21    18     7   ar
    22    21    20   ar
    23     7    19   ar
    24    20    19   ar
