@<TRIPOS>MOLECULE
3neh_L3A_A_1.pdb
 15 14 0 0 0
SMALL
GASTEIGER

@<TRIPOS>ATOM
      1  P          5.1650  -14.6270  -21.9760 P.3   319  L3A319      0.2709
      2  C1         4.9690  -12.6770  -23.9660 C.3   319  L3A319      0.0291
      3  N1         3.6000  -14.7490  -24.0920 N.3   319  L3A319     -0.1224
      4  C2         4.8740  -14.1650  -23.7100 C.3   319  L3A319      0.1711
      5  C4         6.8470  -14.2240  -21.3820 C.3   319  L3A319      0.1020
      6  C5         6.9170  -13.6390  -19.9900 C.3   319  L3A319      0.1132
      7  C6         6.1190  -14.3830  -18.9380 C.2   319  L3A319      0.3649
      8  C7         8.3090  -13.2710  -19.5580 C.3   319  L3A319      0.0124
      9  C8         5.9890  -12.2640  -25.0490 C.3   319  L3A319      0.0020
     10  O31        4.8770  -16.1140  -21.9750 O.2   319  L3A319     -0.2855
     11  O32        4.1390  -13.8610  -21.0970 O.3   319  L3A319     -0.1664
     12  O61        5.6360  -13.6760  -17.8810 O.co2 319  L3A319     -0.2457
     13  O62        5.8940  -15.6100  -19.0030 O.co2 319  L3A319     -0.2457
     14  C81        5.7230  -13.0290  -26.3320 C.3   319  L3A319      0.0001
     15  C82        6.0160  -10.7550  -25.3030 C.3   319  L3A319      0.0001
@<TRIPOS>BOND
     1    14     9    1
     2    15     9    1
     3     9     2    1
     4     3     4    1
     5     2     4    1
     6     4     1    1
     7     1    10    2
     8     1     5    1
     9     1    11    1
    10     5     6    1
    11     6     8    1
    12     6     7    1
    13    13     7   ar
    14     7    12   ar
