@<TRIPOS>MOLECULE
3nem_ATP_B_1.pdb
 31 33 0 0 0
SMALL
GASTEIGER

@<TRIPOS>ATOM
      1  PG        29.1510   40.1930   24.5910 P.3   1039  ATP1039     0.5373
      2  O1G       29.3690   41.1770   23.4190 O.2   1039  ATP1039    -0.2221
      3  O2G       30.1170   40.5940   25.7460 O.3   1039  ATP1039    -0.1143
      4  O3G       27.7400   40.3420   25.0990 O.3   1039  ATP1039    -0.1143
      5  PB        30.6940   38.1480   23.4910 P.3   1039  ATP1039     0.2277
      6  O1B       30.7690   38.5910   22.0110 O.2   1039  ATP1039    -0.5168
      7  O2B       31.9510   38.6530   24.1540 O.3   1039  ATP1039    -0.4368
      8  O3B       29.3790   38.7150   24.1460 O.3   1039  ATP1039    -0.2258
      9  PA        31.2760   35.4760   22.7320 P.3   1039  ATP1039     0.2189
     10  O1A       30.8470   35.6730   21.2570 O.2   1039  ATP1039    -0.5170
     11  O2A       32.7700   35.5200   22.8930 O.3   1039  ATP1039    -0.4371
     12  O3A       30.6010   36.5830   23.6350 O.3   1039  ATP1039    -0.2700
     13  O5'       30.7370   34.1170   23.2890 O.3   1039  ATP1039    -0.3112
     14  C5'       29.5910   33.5520   22.7350 C.3   1039  ATP1039     0.1813
     15  C4'       28.4230   33.6830   23.6510 C.3   1039  ATP1039     0.1821
     16  O4'       28.6390   33.3650   25.0810 O.3   1039  ATP1039    -0.3135
     17  C3'       27.6040   34.9350   23.5740 C.3   1039  ATP1039     0.2184
     18  O3'       26.9450   35.2370   22.4050 O.3   1039  ATP1039    -0.2174
     19  C2'       26.8250   34.8810   24.8190 C.3   1039  ATP1039     0.2570
     20  O2'       25.5660   34.3400   24.8200 O.3   1039  ATP1039    -0.2130
     21  C1'       27.9180   34.4650   25.7750 C.3   1039  ATP1039     0.3186
     22  N9        28.7080   35.0500   26.8030 N.pl3 1039  ATP1039    -0.1439
     23  C8        29.9470   35.6330   26.5470 C.3   1039  ATP1039     0.3377
     24  N7        30.3670   36.3080   27.7130 N.2   1039  ATP1039    -0.2095
     25  C5        29.4060   36.1530   28.6350 C.2   1039  ATP1039     0.2526
     26  C6        29.2860   36.5960   29.9690 C.2   1039  ATP1039     0.4393
     27  N6        30.3500   37.3700   30.5390 N.pl3 1039  ATP1039     0.2180
     28  N1        28.1950   36.3040   30.6850 N.2   1039  ATP1039     0.0021
     29  C2        27.1190   35.4990   30.0920 C.3   1039  ATP1039     0.5254
     30  N3        27.2210   35.0490   28.7850 N.2   1039  ATP1039    -0.0055
     31  C4        28.3270   35.3650   28.0640 C.2   1039  ATP1039     0.3518
@<TRIPOS>BOND
     1    10     9    2
     2     6     5    2
     3    18    17    1
     4     9    11    1
     5     9    13    1
     6     9    12    1
     7    14    13    1
     8    14    15    1
     9     2     1    2
    10     5    12    1
    11     5     8    1
    12     5     7    1
    13    17    15    1
    14    17    19    1
    15    15    16    1
    16     8     1    1
    17     1     4    1
    18     1     3    1
    19    19    20    1
    20    19    21    1
    21    16    21    1
    22    21    22    1
    23    23    22    1
    24    23    24    1
    25    22    31    1
    26    24    25    2
    27    31    25    1
    28    31    30    2
    29    25    26    1
    30    30    29    1
    31    26    27    1
    32    26    28    2
    33    29    28    1
