@<TRIPOS>MOLECULE
3nem_AMO_A_1.pdb
 31 33 0 0 0
SMALL
GASTEIGER

@<TRIPOS>ATOM
      1  P         34.1060   12.2480   46.5600 P.3   439  AMO439      0.2723
      2  O1P       35.3390   13.0760   46.9970 O.3   439  AMO439     -0.4273
      3  O2P       34.2550   10.8010   46.9110 O.2   439  AMO439     -0.5082
      4  O3P       32.7640   12.7380   47.2900 O.3   439  AMO439     -0.4091
      5  O5'       33.9230   12.4520   45.0150 O.3   439  AMO439     -0.3024
      6  C5'       32.8770   11.7490   44.4140 C.3   439  AMO439      0.1823
      7  C4'       33.3380   11.0460   43.1710 C.3   439  AMO439      0.1822
      8  O4'       33.9360   11.9400   42.1660 O.3   439  AMO439     -0.3135
      9  C1'       35.1380   11.2560   41.6790 C.3   439  AMO439      0.3186
     10  N9        36.3660   11.9330   41.8630 N.pl3 439  AMO439     -0.1439
     11  C4        37.5110   11.9350   40.9510 C.2   439  AMO439      0.3518
     12  N3        37.6660   11.4510   39.6780 N.2   439  AMO439     -0.0055
     13  C2        38.8870   11.6170   39.0570 C.3   439  AMO439      0.5254
     14  N1        39.9120   12.2520   39.6950 N.2   439  AMO439      0.0021
     15  C6        39.7350   12.7390   40.9500 C.2   439  AMO439      0.4393
     16  N6        40.7920   13.4040   41.6470 N.pl3 439  AMO439      0.2180
     17  C5        38.5070   12.5770   41.5990 C.2   439  AMO439      0.2526
     18  N7        38.0620   12.9660   42.8910 N.2   439  AMO439     -0.2095
     19  C8        36.7100   12.5360   43.0100 C.3   439  AMO439      0.3377
     20  C2'       34.8750    9.7750   41.9610 C.3   439  AMO439      0.2570
     21  C3'       34.2250    9.8390   43.2970 C.3   439  AMO439      0.2184
     22  O3'       33.7130    8.6600   43.8250 O.3   439  AMO439     -0.2174
     23  N         30.4670   15.5590   47.7120 N.3   439  AMO439     -0.1204
     24  CA        30.8920   14.1810   47.7470 C.3   439  AMO439      0.2015
     25  CB        29.9060   13.2430   47.1030 C.3   439  AMO439      0.1444
     26  CG        28.6100   13.0710   47.8310 C.2   439  AMO439      0.3669
     27  OD1       27.5600   13.4120   47.3030 O.co2 439  AMO439     -0.2456
     28  OD2       28.6400   12.7930   49.1780 O.co2 439  AMO439     -0.2456
     29  C         32.3190   13.9520   47.2760 C.2   439  AMO439      0.3391
     30  O         32.8760   14.8290   46.5720 O.2   439  AMO439     -0.2482
     31  O2'       34.3040    8.9640   41.0140 O.3   439  AMO439     -0.2130
@<TRIPOS>BOND
     1    13    12    1
     2    13    14    1
     3    12    11    2
     4    14    15    2
     5    15    17    1
     6    15    16    1
     7    11    17    1
     8    11    10    1
     9    31    20    1
    10    17    18    2
    11     9    10    1
    12     9    20    1
    13     9     8    1
    14    10    19    1
    15    20    21    1
    16     8     7    1
    17    18    19    1
    18     7    21    1
    19     7     6    1
    20    21    22    1
    21     6     5    1
    22     5     1    1
    23     1     3    2
    24     1     2    1
    25     1     4    1
    26    30    29    2
    27    25    24    1
    28    25    26    1
    29    29     4    1
    30    29    24    1
    31    27    26   ar
    32    23    24    1
    33    26    28   ar
