@<TRIPOS>MOLECULE
3neo_G24_A_1.pdb
 28 30 0 0 0
SMALL
GASTEIGER

@<TRIPOS>ATOM
      1  CAF       21.3500   -2.4670  -22.5690 C.ar    1  G241       -0.0039
      2  CAB       20.6680   -2.6870  -21.3710 C.ar    1  G241       -0.0003
      3  CAC       20.4240   -1.6400  -20.4850 C.ar    1  G241       -0.0000
      4  CAD       20.8730   -0.3600  -20.8100 C.ar    1  G241       -0.0003
      5  CAH       21.5670   -0.1750  -22.0530 C.ar    1  G241       -0.0039
      6  CAG       21.7640   -1.1830  -22.8770 C.ar    1  G241       -0.0177
      7  CAQ       22.5350   -0.8100  -24.1200 C.3     1  G241        0.0558
      8  CAP       21.7450   -0.0210  -25.1610 C.ar    1  G241        0.0208
      9  CAO       21.9360   -0.5680  -26.3940 C.ar    1  G241       -0.0047
     10  CBA       20.9350    1.1210  -25.0520 C.ar    1  G241        0.1920
     11  OBC       20.7120    1.7630  -23.8580 O.3     1  G241       -0.2869
     12  CAZ       20.3360    1.6520  -26.2000 C.ar    1  G241        0.0414
     13  CAY       20.5420    1.0660  -27.4490 C.ar    1  G241       -0.0007
     14  CAN       21.3550   -0.0520  -27.5080 C.ar    1  G241       -0.0179
     15  CAM       21.7090   -0.8420  -28.7160 C.3     1  G241        0.0520
     16  CAL       21.4020   -0.1750  -29.9980 C.ar    1  G241       -0.0255
     17  CAX       20.3040   -0.6220  -30.7090 C.ar    1  G241       -0.0228
     18  CBB       19.4500   -1.7390  -30.1050 C.3     1  G241        0.0308
     19  CAW       19.9840   -0.0550  -31.9310 C.ar    1  G241        0.0323
     20  CAK       22.2120    0.8300  -30.5030 C.ar    1  G241       -0.0228
     21  CAE       23.4320    1.2980  -29.6990 C.3     1  G241        0.0308
     22  CAJ       21.9020    1.4030  -31.7240 C.ar    1  G241        0.0323
     23  CAV       20.7910    0.9600  -32.4300 C.ar    1  G241        0.1387
     24  OAU       20.5130    1.5380  -33.6230 O.3     1  G241       -0.4637
     25  CAT       21.4190    2.6210  -33.8100 C.3     1  G241        0.3186
     26  CAS       22.5760    2.2620  -34.7420 C.2     1  G241        0.4084
     27  OAR       22.5230    2.6760  -35.9200 O.co2   1  G241       -0.2415
     28  OAI       23.5180    1.5870  -34.2770 O.co2   1  G241       -0.2415
@<TRIPOS>BOND
     1    27    26   ar
     2    26    28   ar
     3    26    25    1
     4    25    24    1
     5    24    23    1
     6    23    19   ar
     7    23    22   ar
     8    19    17   ar
     9    22    20   ar
    10    17    18    1
    11    17    16   ar
    12    20    16   ar
    13    20    21    1
    14    16    15    1
    15    15    14    1
    16    14    13   ar
    17    14     9   ar
    18    13    12   ar
    19     9     8   ar
    20    12    10   ar
    21     8    10   ar
    22     8     7    1
    23    10    11    1
    24     7     6    1
    25     6     1   ar
    26     6     5   ar
    27     1     2   ar
    28     5     4   ar
    29     2     3   ar
    30     4     3   ar
