@<TRIPOS>MOLECULE
3ner_HEM_A_1.pdb
 43 50 0 0 0
SMALL
GASTEIGER

@<TRIPOS>ATOM
      1  CHA        9.7840   12.0540   21.0130 C.2   201  HEM201      0.0000
      2  CHB       12.9440   15.6810   20.5310 C.2   201  HEM201      0.0000
      3  CHC       13.2670   14.8580   15.8000 C.2   201  HEM201      0.0000
      4  CHD       10.2020   11.1780   16.2760 C.2   201  HEM201      0.0000
      5  C1A       10.5900   13.1500   21.2930 C.2   201  HEM201      0.0000
      6  C2A       10.7190   13.7580   22.5420 C.2   201  HEM201      0.0000
      7  C3A       11.6580   14.7510   22.4260 C.2   201  HEM201      0.0000
      8  C4A       12.0520   14.7920   21.0750 C.2   201  HEM201      0.0000
      9  CMA       12.1350   15.6030   23.4660 C.3   201  HEM201      0.0000
     10  CAA        9.9520   13.3880   23.8250 C.3   201  HEM201      0.0000
     11  CBA        8.4460   13.7160   23.7480 C.3   201  HEM201      0.0000
     12  CGA        8.1440   15.1830   23.5470 C.2   201  HEM201      0.0000
     13  O1A        7.3790   15.5380   22.6000 O.co2 201  HEM201      0.0000
     14  O2A        8.7530   16.0080   24.2680 O.co2 201  HEM201      0.0000
     15  C1B       13.3050   15.7260   19.2110 C.ar  201  HEM201      0.0000
     16  C2B       14.2440   16.6750   18.7110 C.ar  201  HEM201      0.0000
     17  C3B       14.4390   16.4860   17.3750 C.ar  201  HEM201      0.0000
     18  C4B       13.5040   15.3690   17.0510 C.ar  201  HEM201      0.0000
     19  CMB       14.9160   17.7060   19.6050 C.3   201  HEM201      0.0000
     20  CAB       15.3920   17.3000   16.5260 C.3   201  HEM201      0.0000
     21  CBB       15.6160   16.7930   15.1050 C.3   201  HEM201      0.0000
     22  C1C       12.3940   13.8330   15.5250 C.2   201  HEM201      0.0000
     23  C2C       12.1470   13.3050   14.2180 C.2   201  HEM201      0.0000
     24  C3C       11.2870   12.2520   14.3240 C.2   201  HEM201      0.0000
     25  C4C       11.0330   12.1280   15.7170 C.2   201  HEM201      0.0000
     26  CMC       12.7110   13.8690   12.9750 C.3   201  HEM201      0.0000
     27  CAC       10.6230   11.4170   13.2390 C.2   201  HEM201      0.0000
     28  CBC       11.1070   11.0790   12.0520 C.2   201  HEM201      0.0000
     29  C1D        9.8570   11.0810   17.6330 C.ar  201  HEM201      0.0000
     30  C2D        8.9860   10.0490   18.1830 C.ar  201  HEM201      0.0000
     31  C3D        8.8340   10.2890   19.5270 C.ar  201  HEM201      0.0000
     32  C4D        9.6650   11.4820   19.7840 C.ar  201  HEM201      0.0000
     33  CMD        8.3330    8.8900   17.4080 C.3   201  HEM201      0.0000
     34  CAD        7.9760    9.4800   20.5470 C.3   201  HEM201      0.0000
     35  CBD        8.8000    8.4840   21.3790 C.3   201  HEM201      0.0000
     36  CGD        7.9710    7.5440   22.2560 C.2   201  HEM201      0.0000
     37  O1D        8.2490    6.3300   22.1770 O.co2 201  HEM201      0.0000
     38  O2D        7.4680    8.0550   23.2980 O.co2 201  HEM201      0.0000
     39  NA        11.3890   13.8100   20.3470 N.2   201  HEM201      0.0000
     40  NB        12.8380   14.9070   18.2120 N.ar  201  HEM201      0.0000
     41  NC        11.6850   13.1350   16.4630 N.2   201  HEM201      0.0000
     42  ND        10.3120   11.9590   18.6000 N.ar  201  HEM201      0.0000
     43 FE         11.5430   13.4890   18.3890 Fe    201  HEM201      0.0000
@<TRIPOS>BOND
     1    28    27    2
     2    26    23    1
     3    27    24    1
     4    23    24    2
     5    23    22    1
     6    24    25    1
     7    21    20    1
     8    22     3    2
     9    22    41    1
    10    25     4    1
    11    25    41    2
    12     3    18    1
    13     4    29    2
    14    41    43    1
    15    20    17    1
    16    18    17   ar
    17    18    40   ar
    18    17    16   ar
    19    33    30    1
    20    29    30   ar
    21    29    42   ar
    22    30    31   ar
    23    40    43    1
    24    40    15   ar
    25    43    42    1
    26    43    39    1
    27    42    32   ar
    28    16    15   ar
    29    16    19    1
    30    15     2    1
    31    31    32   ar
    32    31    34    1
    33    32     1    2
    34    39     8    1
    35    39     5    2
    36     2     8    2
    37    34    35    1
    38     1     5    1
    39     8     7    1
    40     5     6    1
    41    35    36    1
    42    37    36   ar
    43    36    38   ar
    44     7     6    2
    45     7     9    1
    46     6    10    1
    47    13    12   ar
    48    12    11    1
    49    12    14   ar
    50    11    10    1
