@<TRIPOS>MOLECULE
3nes_B72_A_1.pdb
 24 25 0 0 0
SMALL
GASTEIGER

@<TRIPOS>ATOM
      1  O1         3.4620   -1.5490    2.4280 O.co2   1  B721       -0.2415
      2  C20        2.2880   -1.1400    2.2930 C.2     1  B721        0.4084
      3  O2         1.2850   -1.8710    2.4360 O.co2   1  B721       -0.2415
      4  C19        2.0650    0.3420    1.9420 C.3     1  B721        0.3186
      5  O3         0.8060    0.8410    1.3820 O.3     1  B721       -0.4637
      6  C1         0.4620    0.4830    0.0960 C.ar    1  B721        0.1387
      7  C2         1.2160   -0.4380   -0.6190 C.ar    1  B721        0.0323
      8  C3         0.8480   -0.7650   -1.9180 C.ar    1  B721       -0.0228
      9  C17        1.6990   -1.7870   -2.6900 C.3     1  B721        0.0308
     10  C4        -0.2810   -0.1830   -2.5130 C.ar    1  B721       -0.0255
     11  C5        -1.0450    0.7160   -1.7840 C.ar    1  B721       -0.0228
     12  C6        -0.6670    1.0520   -0.4900 C.ar    1  B721        0.0323
     13  C18       -2.3000    1.3570   -2.4030 C.3     1  B721        0.0308
     14  C7        -0.7220   -0.5950   -3.9120 C.3     1  B721        0.0520
     15  C8         0.0290    0.0960   -5.0030 C.ar    1  B721       -0.0179
     16  C13       -0.1750   -0.3030   -6.3290 C.ar    1  B721       -0.0051
     17  C12        0.5050    0.3500   -7.3270 C.ar    1  B721        0.0161
     18  C14        0.3770   -0.0220   -8.8150 C.3     1  B721        0.0255
     19  C16       -0.7460   -1.0360   -9.0110 C.3     1  B721        0.0048
     20  C15        0.0970    1.2460   -9.6070 C.3     1  B721        0.0048
     21  C11        1.3420    1.3840   -6.9630 C.ar    1  B721        0.1917
     22  O4         2.0020    2.0110   -7.9540 O.3     1  B721       -0.2869
     23  C10        1.5230    1.7870   -5.6400 C.ar    1  B721        0.0414
     24  C9         0.8480    1.1360   -4.6350 C.ar    1  B721       -0.0007
@<TRIPOS>BOND
     1    20    18    1
     2    19    18    1
     3    18    17    1
     4    22    21    1
     5    17    21   ar
     6    17    16   ar
     7    21    23   ar
     8    16    15   ar
     9    23    24   ar
    10    15    24   ar
    11    15    14    1
    12    14    10    1
    13     9     8    1
    14    10     8   ar
    15    10    11   ar
    16    13    11    1
    17     8     7   ar
    18    11    12   ar
    19     7     6   ar
    20    12     6   ar
    21     6     5    1
    22     5     4    1
    23     4     2    1
    24     2     1   ar
    25     2     3   ar
