@<TRIPOS>MOLECULE
3nev_RSH_A_1.pdb
 11 10 0 0 0
SMALL
GASTEIGER

@<TRIPOS>ATOM
      1  O2        -0.9830  -52.6060    9.5130 O.co2   1  RSH1       -0.2457
      2  C1        -1.5980  -52.7230    8.4250 C.2     1  RSH1        0.3649
      3  O1        -1.2270  -52.2160    7.3330 O.co2   1  RSH1       -0.2457
      4  C2        -2.7500  -53.3970    8.3860 C.3     1  RSH1        0.1168
      5  C3        -3.3890  -54.0660    9.5620 C.3     1  RSH1        0.0474
      6  C4        -4.3800  -53.1180   10.1970 C.3     1  RSH1        0.1853
      7  O4        -4.4020  -51.8880    9.4370 O.3     1  RSH1       -0.2203
      8  C5        -4.0400  -52.8830   11.6710 C.3     1  RSH1        0.2148
      9  O5        -4.7940  -51.7050   12.0760 O.3     1  RSH1       -0.2176
     10  C6        -4.1750  -54.0610   12.7110 C.3     1  RSH1        0.2174
     11  O6        -4.8230  -55.3400   12.4060 O.3     1  RSH1       -0.2175
@<TRIPOS>BOND
     1     3     2   ar
     2     4     2    1
     3     4     5    1
     4     2     1   ar
     5     7     6    1
     6     5     6    1
     7     6     8    1
     8     8     9    1
     9     8    10    1
    10    11    10    1
