@<TRIPOS>MOLECULE
3new_3NE_A_1.pdb
 24 26 0 0 0
SMALL
GASTEIGER

@<TRIPOS>ATOM
      1  C4        24.6130   15.5740   11.5250 C.ar  361  3NE361      0.0051
      2  C5        22.3440   19.2700    8.9370 C.2   361  3NE361      0.1083
      3  C6        24.0840   15.0070   10.3890 C.ar  361  3NE361      0.0166
      4  C7        24.8140   14.7620   12.6090 C.ar  361  3NE361      0.0715
      5  C8        22.6790   18.1460    9.6650 C.2   361  3NE361      0.0821
      6  C10       23.3430   17.1420    8.9450 C.3   361  3NE361      0.1682
      7  C13       25.4160   15.2980   13.8570 C.3   361  3NE361      0.4186
      8  C1        23.9930   12.8700   11.5220 C.ar  361  3NE361     -0.0000
      9  C2        23.8050   13.6570   10.4090 C.ar  361  3NE361      0.0013
     10  C3        24.5020   13.4260   12.6410 C.ar  361  3NE361      0.0039
     11  C9        22.6500   19.3420    7.5790 C.1   361  3NE361      0.2135
     12  C11       23.8820   15.8280    9.1930 C.2   361  3NE361      0.1000
     13  C12       23.5640   17.3800    7.5910 C.1   361  3NE361      0.1051
     14  C14       22.3710   18.0560   11.1140 C.3   361  3NE361      0.4170
     15  N15       24.1760   16.2210    7.1650 N.2   361  3NE361     -0.0850
     16  N16       23.2540   18.4460    6.8030 N.2   361  3NE361     -0.2801
     17  N17       24.3740   15.2940    8.0790 N.2   361  3NE361     -0.1415
     18  O18       22.2790   20.4890    6.9520 O.2   361  3NE361     -0.2086
     19  F19       24.5620   15.0630   14.8590 F     361  3NE361     -0.1659
     20  F20       26.5740   14.6190   14.0990 F     361  3NE361     -0.1659
     21  F21       25.8220   16.5950   14.0330 F     361  3NE361     -0.1659
     22  F22       21.4870   18.9290   11.6140 F     361  3NE361     -0.1661
     23  F23       22.0520   16.8250   11.6040 F     361  3NE361     -0.1661
     24  F24       23.4530   18.3390   11.8410 F     361  3NE361     -0.1661
@<TRIPOS>BOND
     1    16    11    2
     2    16    13    2
     3    18    11    2
     4    15    13    2
     5    15    17    1
     6    11     2    1
     7    13     6    1
     8    17    12    2
     9     2     5    2
    10     6    12    1
    11     6     5    1
    12    12     3    1
    13     5    14    1
    14     3     9   ar
    15     3     1   ar
    16     9     8   ar
    17    14    23    1
    18    14    22    1
    19    14    24    1
    20     8    10   ar
    21     1     4   ar
    22     4    10   ar
    23     4     7    1
    24     7    21    1
    25     7    20    1
    26     7    19    1
