@<TRIPOS>MOLECULE
3nex_G24_A_1.pdb
 28 30 0 0 0
SMALL
GASTEIGER

@<TRIPOS>ATOM
      1  CAF        0.0120    0.0710   10.9670 C.ar  126  G24126     -0.0039
      2  CAB        0.7200    0.9110   11.8010 C.ar  126  G24126     -0.0003
      3  CAC        0.9490    2.2340   11.4420 C.ar  126  G24126     -0.0000
      4  CAD        0.4500    2.7640   10.2670 C.ar  126  G24126     -0.0003
      5  CAH       -0.2740    1.9280    9.4300 C.ar  126  G24126     -0.0039
      6  CAG       -0.4910    0.5960    9.7830 C.ar  126  G24126     -0.0177
      7  CAQ       -1.2860   -0.3190    8.8450 C.3   126  G24126      0.0558
      8  CAP       -0.4130   -0.6430    7.6340 C.ar  126  G24126      0.0208
      9  CAO       -0.6710    0.0230    6.4590 C.ar  126  G24126     -0.0047
     10  CBA        0.6280   -1.5570    7.6830 C.ar  126  G24126      0.1920
     11  OBC        0.8380   -2.1820    8.8660 O.3   126  G24126     -0.2869
     12  CAZ        1.4030   -1.8000    6.5430 C.ar  126  G24126      0.0414
     13  CAY        1.1170   -1.1240    5.3450 C.ar  126  G24126     -0.0007
     14  CAN        0.0720   -0.1970    5.3250 C.ar  126  G24126     -0.0179
     15  CAM       -0.3690    0.6270    4.1260 C.3   126  G24126      0.0520
     16  CAL       -0.0130    0.0930    2.7330 C.ar  126  G24126     -0.0255
     17  CAX       -0.7840   -0.8530    2.0640 C.ar  126  G24126     -0.0228
     18  CBB       -2.0230   -1.4490    2.7310 C.3   126  G24126      0.0308
     19  CAW       -0.4410   -1.2920    0.7890 C.ar  126  G24126      0.0323
     20  CAK        1.0890    0.6100    2.0630 C.ar  126  G24126     -0.0228
     21  CAE        1.9510    1.6620    2.7530 C.3   126  G24126      0.0308
     22  CAJ        1.4470    0.1900    0.7870 C.ar  126  G24126      0.0323
     23  CAV        0.6780   -0.7710    0.1470 C.ar  126  G24126      0.1387
     24  OAU        1.0310   -1.2010   -1.1010 O.3   126  G24126     -0.4637
     25  CAT        0.0850   -2.1740   -1.6200 C.3   126  G24126      0.3186
     26  CAS       -1.2790   -1.6070   -2.0590 C.2   126  G24126      0.4084
     27  OAR       -1.3580   -0.4010   -2.3860 O.co2 126  G24126     -0.2415
     28  OAI       -2.2690   -2.3710   -2.0330 O.co2 126  G24126     -0.2415
@<TRIPOS>BOND
     1    27    26   ar
     2    26    28   ar
     3    26    25    1
     4    25    24    1
     5    24    23    1
     6    23    22   ar
     7    23    19   ar
     8    22    20   ar
     9    19    17   ar
    10    20    16   ar
    11    20    21    1
    12    17    18    1
    13    17    16   ar
    14    16    15    1
    15    15    14    1
    16    14    13   ar
    17    14     9   ar
    18    13    12   ar
    19     9     8   ar
    20    12    10   ar
    21     8    10   ar
    22     8     7    1
    23    10    11    1
    24     7     6    1
    25     5     6   ar
    26     5     4   ar
    27     6     1   ar
    28     4     3   ar
    29     1     2   ar
    30     3     2   ar
