@<TRIPOS>MOLECULE
3nf6_IMV_A_1.pdb
 23 26 0 0 0
SMALL
GASTEIGER

@<TRIPOS>ATOM
      1  O1        13.1170  -46.8860    1.7890 O.co2 215  IMV215     -0.2404
      2  C2        13.7520  -46.0050    1.1450 C.2   215  IMV215      0.3905
      3  O3        14.8230  -45.5000    1.5690 O.co2 215  IMV215     -0.2404
      4  C4        13.1980  -45.4790   -0.1630 C.ar  215  IMV215      0.1144
      5  C5        11.8310  -45.3030   -0.3960 C.ar  215  IMV215      0.0076
      6  C6        10.8130  -45.6550    0.6650 C.3   215  IMV215      0.1250
      7  N7         9.4450  -45.2520    0.4100 N.am  215  IMV215     -0.2544
      8  C8         8.4900  -46.0140   -0.2420 C.2   215  IMV215      0.2341
      9  O9         8.5980  -47.1390   -0.7170 O.2   215  IMV215     -0.2742
     10  C10        7.2390  -45.1990   -0.3390 C.3   215  IMV215      0.1131
     11  C11        7.6620  -43.9170    0.3200 C.ar  215  IMV215      0.0007
     12  C12        6.9070  -42.7860    0.5100 C.ar  215  IMV215     -0.0026
     13  C13        7.5220  -41.7140    1.1470 C.ar  215  IMV215     -0.0002
     14  C14        8.8400  -41.7980    1.5750 C.ar  215  IMV215      0.0013
     15  C15        9.6000  -42.9390    1.3750 C.ar  215  IMV215      0.0146
     16  C16        8.9670  -43.9840    0.7390 C.ar  215  IMV215      0.0506
     17  C17       11.3700  -44.8010   -1.6100 C.ar  215  IMV215      0.0009
     18  C18       12.2630  -44.4750   -2.6150 C.ar  215  IMV215      0.0399
     19  C19       13.6050  -44.6640   -2.3730 C.ar  215  IMV215      0.1766
     20  O20       14.6200  -44.4010   -3.2580 O.3   215  IMV215     -0.4346
     21  C21       15.7670  -44.6070   -2.4450 C.3   215  IMV215      0.4294
     22  O22       15.4510  -45.2410   -1.1920 O.3   215  IMV215     -0.4344
     23  C23       14.0620  -45.1480   -1.1940 C.ar  215  IMV215      0.1825
@<TRIPOS>BOND
     1    20    21    1
     2    20    19    1
     3    18    19   ar
     4    18    17   ar
     5    21    22    1
     6    19    23   ar
     7    17     5   ar
     8    23    22    1
     9    23     4   ar
    10     9     8    2
    11     5     4   ar
    12     5     6    1
    13    10     8    1
    14    10    11    1
    15     8     7   am
    16     4     2    1
    17    11    12   ar
    18    11    16   ar
    19     7     6    1
    20     7    16    1
    21    12    13   ar
    22    16    15   ar
    23     2     3   ar
    24     2     1   ar
    25    13    14   ar
    26    15    14   ar
