@<TRIPOS>MOLECULE
3nf7_CIW_A_1.pdb
 24 27 0 0 0
SMALL
GASTEIGER

@<TRIPOS>ATOM
      1  C1         6.2140  -28.7590   -8.7220 C.ar  221  CIW221      0.0575
      2  C2         7.3450  -29.2110   -9.3560 C.ar  221  CIW221      0.0127
      3  C3         8.2900  -28.3370   -9.8450 C.ar  221  CIW221      0.0155
      4  C4         8.0220  -27.0070   -9.6490 C.ar  221  CIW221      0.0507
      5  C5         6.9010  -26.5350   -9.0230 C.ar  221  CIW221      0.0015
      6  C6         5.9610  -27.4150   -8.5420 C.ar  221  CIW221      0.0088
      7  C7         6.8880  -25.0620   -8.9930 C.3   221  CIW221      0.1132
      8  C8         8.1970  -24.7470   -9.6650 C.2   221  CIW221      0.2341
      9  O9         8.6630  -23.6260   -9.7760 O.2   221  CIW221     -0.2742
     10  N10        8.7950  -25.9440  -10.0450 N.am  221  CIW221     -0.2544
     11  C11        9.7240  -26.0660  -11.1230 C.3   221  CIW221      0.1250
     12  C12       11.0130  -26.5570  -10.5780 C.ar  221  CIW221      0.0076
     13  C13       11.0930  -26.7750   -9.2020 C.ar  221  CIW221      0.0009
     14  C14       12.2530  -27.2570   -8.6350 C.ar  221  CIW221      0.0399
     15  C15       13.3160  -27.4880   -9.4830 C.ar  221  CIW221      0.1766
     16  C16       13.2200  -27.2590  -10.8250 C.ar  221  CIW221      0.1825
     17  C17       12.0860  -26.7930  -11.4270 C.ar  221  CIW221      0.1144
     18  C18       12.1100  -26.6030  -12.9200 C.2   221  CIW221      0.3905
     19  O19       12.8590  -25.6980  -13.3460 O.co2 221  CIW221     -0.2404
     20  O20       11.4520  -27.3380  -13.6910 O.co2 221  CIW221     -0.2404
     21  O21       14.3770  -27.5770  -11.4840 O.3   221  CIW221     -0.4344
     22  C22       15.2190  -28.0880  -10.4480 C.3   221  CIW221      0.4294
     23  O23       14.5820  -27.9750   -9.1500 O.3   221  CIW221     -0.4346
     24 CL24        5.0930  -29.8990   -8.1100 Cl    221  CIW221     -0.0823
@<TRIPOS>BOND
     1    20    18   ar
     2    19    18   ar
     3    18    17    1
     4    21    16    1
     5    21    22    1
     6    17    16   ar
     7    17    12   ar
     8    11    12    1
     9    11    10    1
    10    16    15   ar
    11    12    13   ar
    12    22    23    1
    13    10     8   am
    14    10     4    1
    15     3     4   ar
    16     3     2   ar
    17     9     8    2
    18     8     7    1
    19     4     5   ar
    20    15    23    1
    21    15    14   ar
    22     2     1   ar
    23    13    14   ar
    24     5     7    1
    25     5     6   ar
    26     1     6   ar
    27     1    24    1
