@<TRIPOS>MOLECULE
3nf8_CDQ_A_1.pdb
 25 28 0 0 0
SMALL
GASTEIGER

@<TRIPOS>ATOM
      1  C1         1.3240  -23.3490    7.6630 C.ar  225  CDQ225      0.0575
      2  C2         1.4630  -24.0180    8.8680 C.ar  225  CDQ225      0.0127
      3  C3         2.1820  -23.4660    9.9160 C.ar  225  CDQ225      0.0155
      4  C4         2.7540  -22.2310    9.7040 C.ar  225  CDQ225      0.0507
      5  C5         2.5890  -21.5690    8.5180 C.ar  225  CDQ225      0.0015
      6  C6         1.8830  -22.1030    7.4670 C.ar  225  CDQ225      0.0088
      7  C7         3.2590  -20.2510    8.5530 C.3   225  CDQ225      0.1132
      8  C8         3.7090  -20.1700    9.9950 C.2   225  CDQ225      0.2341
      9  O9         4.1520  -19.1520   10.5200 O.2   225  CDQ225     -0.2742
     10  N10        3.5070  -21.4210   10.5670 N.am  225  CDQ225     -0.2544
     11  C11        4.3140  -21.9150   11.6580 C.3   225  CDQ225      0.1250
     12  C12        5.6040  -22.5920   11.2480 C.ar  225  CDQ225      0.0076
     13  C13        6.4330  -22.0860   10.2600 C.ar  225  CDQ225      0.0009
     14  C14        7.6100  -22.7450    9.9060 C.ar  225  CDQ225      0.0398
     15  C15        7.8980  -23.9290   10.6000 C.ar  225  CDQ225      0.1726
     16  C16        7.0810  -24.4440   11.6070 C.ar  225  CDQ225      0.1784
     17  C17        5.9220  -23.7570   11.9340 C.ar  225  CDQ225      0.1143
     18  C18        4.9680  -24.2490   12.9880 C.2   225  CDQ225      0.3905
     19  O19        5.1800  -23.9590   14.1980 O.co2 225  CDQ225     -0.2404
     20  O20        3.9880  -24.9210   12.5430 O.co2 225  CDQ225     -0.2404
     21  O21        7.3820  -25.6120   12.3270 O.3   225  CDQ225     -0.4682
     22  C22        8.2650  -26.4240   11.5350 C.3   225  CDQ225      0.2526
     23  C23        9.4540  -25.5970   11.2260 C.3   225  CDQ225      0.2526
     24  O24        9.0600  -24.5490   10.2490 O.3   225  CDQ225     -0.4684
     25 CL25        0.4330  -24.0500    6.3470 Cl    225  CDQ225     -0.0823
@<TRIPOS>BOND
     1    25     1    1
     2     6     1   ar
     3     6     5   ar
     4     1     2   ar
     5     5     7    1
     6     5     4   ar
     7     7     8    1
     8     2     3   ar
     9     4     3   ar
    10     4    10    1
    11    14    13   ar
    12    14    15   ar
    13     8     9    2
    14     8    10   am
    15    24    15    1
    16    24    23    1
    17    13    12   ar
    18    10    11    1
    19    15    16   ar
    20    23    22    1
    21    12    11    1
    22    12    17   ar
    23    22    21    1
    24    16    17   ar
    25    16    21    1
    26    17    18    1
    27    20    18   ar
    28    18    19   ar
