@<TRIPOS>MOLECULE
3nf9_CD9_A_1.pdb
 24 27 0 0 0
SMALL
GASTEIGER

@<TRIPOS>ATOM
      1  C1         5.1390  -28.4940   -8.6980 C.ar  220  CD9220      0.0112
      2  C2         6.2940  -29.1410   -9.1080 C.ar  220  CD9220      0.0589
      3  C3         7.4010  -28.4150   -9.4720 C.ar  220  CD9220      0.0260
      4  C4         7.3070  -27.0480   -9.4030 C.ar  220  CD9220      0.0515
      5  C5         6.1790  -26.3910   -8.9900 C.ar  220  CD9220      0.0007
      6  C6         5.0650  -27.1140   -8.6320 C.ar  220  CD9220     -0.0017
      7  C7         6.3940  -24.9210   -9.0520 C.3   220  CD9220      0.1131
      8  C8         7.8180  -24.8460   -9.5740 C.2   220  CD9220      0.2341
      9  O9         8.4210  -23.8110   -9.8150 O.2   220  CD9220     -0.2742
     10  N10        8.2980  -26.1340   -9.7360 N.am  220  CD9220     -0.2543
     11  C11        9.6410  -26.5540  -10.0310 C.3   220  CD9220      0.1250
     12  C12        9.9640  -26.6670  -11.4910 C.ar  220  CD9220      0.0076
     13  C13        8.9830  -26.9030  -12.4460 C.ar  220  CD9220      0.0009
     14  C14        9.2770  -27.0280  -13.8040 C.ar  220  CD9220      0.0399
     15  C15       10.5930  -26.9000  -14.2130 C.ar  220  CD9220      0.1766
     16  C16       11.5640  -26.6620  -13.2950 C.ar  220  CD9220      0.1825
     17  C17       11.2730  -26.5490  -11.9460 C.ar  220  CD9220      0.1144
     18  C18       12.4060  -26.3260  -11.0540 C.2   220  CD9220      0.3905
     19  O19       13.3760  -25.7110  -11.5820 O.co2 220  CD9220     -0.2404
     20  O20       12.2840  -26.8520   -9.8970 O.co2 220  CD9220     -0.2404
     21  O21       12.8130  -26.5520  -13.8620 O.3   220  CD9220     -0.4344
     22  C22       12.4880  -26.5960  -15.2700 C.3   220  CD9220      0.4294
     23  O23       11.1210  -26.9710  -15.5060 O.3   220  CD9220     -0.4346
     24 CL24        6.4570  -30.8750   -9.1990 Cl    220  CD9220     -0.0822
@<TRIPOS>BOND
     1    23    22    1
     2    23    15    1
     3    22    21    1
     4    15    14   ar
     5    15    16   ar
     6    21    16    1
     7    14    13   ar
     8    16    17   ar
     9    13    12   ar
    10    17    12   ar
    11    17    18    1
    12    19    18   ar
    13    12    11    1
    14    18    20   ar
    15    11    10    1
    16     9     8    2
    17    10     8   am
    18    10     4    1
    19     8     7    1
    20     3     4   ar
    21     3     2   ar
    22     4     5   ar
    23    24     2    1
    24     2     1   ar
    25     7     5    1
    26     5     6   ar
    27     1     6   ar
