@<TRIPOS>MOLECULE
3nfa_CBJ_A_1.pdb
 26 29 0 0 0
SMALL
GASTEIGER

@<TRIPOS>ATOM
      1  O1         9.6850  -26.7310  -12.7630 O.2   213  CBJ213     -0.2660
      2  C2        10.5770  -26.6090  -11.9400 C.2   213  CBJ213      0.2922
      3  C3        11.9910  -26.6190  -12.3770 C.2   213  CBJ213      0.2502
      4  O4        12.4220  -26.3890  -13.4870 O.2   213  CBJ213     -0.2816
      5  C5        12.7350  -27.0090  -11.2280 C.ar  213  CBJ213      0.0578
      6  C6        14.0440  -27.3860  -11.2070 C.ar  213  CBJ213      0.0113
      7  C7        14.5500  -27.7350   -9.9860 C.ar  213  CBJ213      0.0348
      8 BR8        16.3710  -28.2350   -9.9220 Br    213  CBJ213     -0.0490
      9  C9        13.7270  -27.6960   -8.8790 C.ar  213  CBJ213      0.0080
     10  C10       12.3970  -27.3280   -8.9390 C.ar  213  CBJ213      0.0155
     11  C11       11.9010  -26.9700  -10.1650 C.ar  213  CBJ213      0.0578
     12  N12       10.6200  -26.5580  -10.5500 N.am  213  CBJ213     -0.2481
     13  C13        9.5330  -27.0560   -9.7670 C.3   213  CBJ213      0.1254
     14  C14        8.4880  -26.0300   -9.5840 C.ar  213  CBJ213      0.0076
     15  C15        7.2060  -26.3750   -9.2470 C.ar  213  CBJ213      0.0009
     16  C16        6.2680  -25.3810   -9.1020 C.ar  213  CBJ213      0.0398
     17  C17        6.6150  -24.0600   -9.2920 C.ar  213  CBJ213      0.1726
     18  O18        5.6930  -23.0780   -9.1520 O.3   213  CBJ213     -0.4684
     19  C19        6.4320  -22.1430   -8.4260 C.3   213  CBJ213      0.2526
     20  C20        7.4120  -21.4950   -9.3390 C.3   213  CBJ213      0.2526
     21  O21        8.3430  -22.4300   -9.8140 O.3   213  CBJ213     -0.4682
     22  C22        7.8980  -23.7150   -9.6090 C.ar  213  CBJ213      0.1784
     23  C23        8.8140  -24.7100   -9.7550 C.ar  213  CBJ213      0.1143
     24  C24       10.1720  -24.3480  -10.1050 C.2   213  CBJ213      0.3905
     25  O25       10.3160  -23.7380  -11.1810 O.co2 213  CBJ213     -0.2404
     26  O26       11.0730  -24.6740   -9.3140 O.co2 213  CBJ213     -0.2404
@<TRIPOS>BOND
     1     4     3    2
     2     1     2    2
     3     3     2    1
     4     3     5    1
     5     2    12   am
     6     5     6   ar
     7     5    11   ar
     8     6     7   ar
     9    25    24   ar
    10    12    11    1
    11    12    13    1
    12    11    10   ar
    13    24    23    1
    14    24    26   ar
    15     7     8    1
    16     7     9   ar
    17    21    22    1
    18    21    20    1
    19    13    14    1
    20    23    22   ar
    21    23    14   ar
    22    22    17   ar
    23    14    15   ar
    24    20    19    1
    25    17    18    1
    26    17    16   ar
    27    15    16   ar
    28    18    19    1
    29    10     9   ar
