@<TRIPOS>MOLECULE
3nfb_OAE_A_1.pdb
 25 26 0 0 0
SMALL
GASTEIGER

@<TRIPOS>ATOM
      1  O         30.9860    8.1270   11.0710 O.co2 376  OAE376     -0.2437
      2  C1        27.7200   11.4510   13.2970 C.3   376  OAE376      0.0129
      3  N1        31.8900    8.3850   14.5310 N.am  376  OAE376     -0.1917
      4  O1        28.6890   11.7630   10.3230 O.co2 376  OAE376     -0.2441
      5  S1        30.0310   10.8630   14.4500 S.3   376  OAE376     -0.1211
      6  C2        29.1440   12.5520   11.1860 C.2   376  OAE376      0.3811
      7  N2        32.4190    5.6480   16.9630 N.3   376  OAE376     -0.1182
      8  O2        29.0700   13.7910   10.9730 O.co2 376  OAE376     -0.2441
      9  C3        31.7120    7.1510   15.2250 C.2   376  OAE376      0.2636
     10  N3        30.4680   10.6740   11.9010 N.3   376  OAE376     -0.1956
     11  O3        31.0730    6.2500   14.7430 O.2   376  OAE376     -0.2714
     12  C4        32.2720    7.0690   16.6340 C.3   376  OAE376      0.1915
     13  O4        32.6130    7.3230   12.2440 O.co2 376  OAE376     -0.2437
     14  C5        31.3710    7.8900   17.5770 C.ar  376  OAE376      0.0038
     15  C6        29.1380   11.9650   13.5480 C.3   376  OAE376      0.0658
     16  C7        30.1760    7.3500   18.0440 C.ar  376  OAE376     -0.0024
     17  C8        29.3300    8.1010   18.8580 C.ar  376  OAE376     -0.0003
     18  C9        29.6720    9.4020   19.2060 C.ar  376  OAE376     -0.0000
     19  C10       30.8660    9.9480   18.7370 C.ar  376  OAE376     -0.0003
     20  C11       31.7070    9.1940   17.9130 C.ar  376  OAE376     -0.0024
     21  C12       29.9150   12.1080   12.2030 C.3   376  OAE376      0.1857
     22  C13       31.0370   10.2160   13.3350 C.3   376  OAE376      0.1514
     23  C14       31.0610    8.7710   13.4080 C.3   376  OAE376      0.2237
     24  C15       31.6370    8.1260   12.1590 C.2   376  OAE376      0.3865
     25  C16       29.0800   13.3100   14.2320 C.3   376  OAE376      0.0129
@<TRIPOS>BOND
     1     4     6   ar
     2     8     6   ar
     3     1    24   ar
     4     6    21    1
     5    10    21    1
     6    10    22    1
     7    24    13   ar
     8    24    23    1
     9    21    15    1
    10     2    15    1
    11    22    23    1
    12    22     5    1
    13    23     3    1
    14    15    25    1
    15    15     5    1
    16     3     9   am
    17    11     9    2
    18     9    12    1
    19    12     7    1
    20    12    14    1
    21    14    20   ar
    22    14    16   ar
    23    20    19   ar
    24    16    17   ar
    25    19    18   ar
    26    17    18   ar
