@<TRIPOS>MOLECULE
3nfe_HEM_A_1.pdb
 43 50 0 0 0
SMALL
GASTEIGER

@<TRIPOS>ATOM
      1  CHA       56.3360   24.6230   18.7330 C.2   200  HEM200      0.0000
      2  CHB       55.9200   22.4600   14.4350 C.2   200  HEM200      0.0000
      3  CHC       57.0790   26.6050   12.2380 C.2   200  HEM200      0.0000
      4  CHD       57.9940   28.5980   16.5380 C.2   200  HEM200      0.0000
      5  C1A       56.1810   23.6480   17.7690 C.ar  200  HEM200      0.0000
      6  C2A       55.9640   22.2360   18.0030 C.ar  200  HEM200      0.0000
      7  C3A       55.8430   21.6430   16.8100 C.ar  200  HEM200      0.0000
      8  C4A       55.9820   22.6680   15.7960 C.ar  200  HEM200      0.0000
      9  CMA       55.6000   20.1550   16.4780 C.3   200  HEM200      0.0000
     10  CAA       55.9210   21.5880   19.3990 C.3   200  HEM200      0.0000
     11  CBA       55.0140   22.1590   20.4730 C.3   200  HEM200      0.0000
     12  CGA       55.7130   22.7810   21.6610 C.2   200  HEM200      0.0000
     13  O1A       55.0140   23.0080   22.6780 O.co2 200  HEM200      0.0000
     14  O2A       56.9410   23.0190   21.5270 O.co2 200  HEM200      0.0000
     15  C1B       56.2300   23.3870   13.4640 C.2   200  HEM200      0.0000
     16  C2B       56.3560   23.1120   12.0470 C.2   200  HEM200      0.0000
     17  C3B       56.6580   24.2590   11.4380 C.2   200  HEM200      0.0000
     18  C4B       56.7450   25.2830   12.4610 C.2   200  HEM200      0.0000
     19  CMB       56.1500   21.7110   11.4310 C.3   200  HEM200      0.0000
     20  CAB       56.9540   24.5340    9.9490 C.2   200  HEM200      0.0000
     21  CBB       57.7000   23.6770    9.2420 C.2   200  HEM200      0.0000
     22  C1C       57.5010   27.4800   13.2150 C.ar  200  HEM200      0.0000
     23  C2C       58.1900   28.7340   12.9740 C.ar  200  HEM200      0.0000
     24  C3C       58.4380   29.2930   14.1570 C.ar  200  HEM200      0.0000
     25  C4C       57.9280   28.3900   15.1770 C.ar  200  HEM200      0.0000
     26  CMC       58.5100   29.2190   11.5420 C.3   200  HEM200      0.0000
     27  CAC       59.1690   30.6010   14.5150 C.2   200  HEM200      0.0000
     28  CBC       59.3030   31.6050   13.6610 C.2   200  HEM200      0.0000
     29  C1D       57.6220   27.6920   17.5100 C.2   200  HEM200      0.0000
     30  C2D       57.7400   27.9040   18.9390 C.2   200  HEM200      0.0000
     31  C3D       57.2650   26.8170   19.5490 C.2   200  HEM200      0.0000
     32  C4D       56.8330   25.8920   18.5240 C.2   200  HEM200      0.0000
     33  CMD       58.3490   29.1840   19.5490 C.3   200  HEM200      0.0000
     34  CAD       57.1490   26.5230   21.0600 C.3   200  HEM200      0.0000
     35  CBD       58.4410   26.3860   21.8600 C.3   200  HEM200      0.0000
     36  CGD       58.4710   25.2710   22.8720 C.2   200  HEM200      0.0000
     37  O1D       58.2330   25.5850   24.0660 O.co2 200  HEM200      0.0000
     38  O2D       58.7350   24.1170   22.4460 O.co2 200  HEM200      0.0000
     39  NA        56.1880   23.8900   16.4050 N.ar  200  HEM200      0.0000
     40  NB        56.4850   24.7270   13.7020 N.2   200  HEM200      0.0000
     41  NC        57.3510   27.2890   14.5750 N.ar  200  HEM200      0.0000
     42  ND        57.0720   26.4470   17.2770 N.2   200  HEM200      0.0000
     43 FE         56.7380   25.5910   15.5160 Fe    200  HEM200      0.0000
@<TRIPOS>BOND
     1    21    20    2
     2    20    17    1
     3    19    16    1
     4    17    16    2
     5    17    18    1
     6    26    23    1
     7    16    15    1
     8     3    18    2
     9     3    22    1
    10    18    40    1
    11    23    22   ar
    12    23    24   ar
    13    22    41   ar
    14    15    40    2
    15    15     2    1
    16    28    27    2
    17    40    43    1
    18    24    27    1
    19    24    25   ar
    20     2     8    2
    21    41    25   ar
    22    41    43    1
    23    25     4    1
    24    43    39    1
    25    43    42    1
    26     8    39   ar
    27     8     7   ar
    28    39     5   ar
    29     9     7    1
    30     4    29    2
    31     7     6   ar
    32    42    29    1
    33    42    32    2
    34    29    30    1
    35     5     6   ar
    36     5     1    2
    37     6    10    1
    38    32     1    1
    39    32    31    1
    40    30    31    2
    41    30    33    1
    42    10    11    1
    43    31    34    1
    44    11    12    1
    45    34    35    1
    46    14    12   ar
    47    12    13   ar
    48    35    36    1
    49    38    36   ar
    50    36    37   ar
