@<TRIPOS>MOLECULE
3nfk_III_D_1.pdb
 40 39 0 0 0
SMALL
GASTEIGER

@<TRIPOS>ATOM
      1  N         32.6600    7.7020    6.7800 N.3     9  GLY9       -0.1210
      2  CA        31.4110    7.4100    6.0800 C.3     9  GLY9        0.1956
      3  C         31.5750    6.5190    4.8630 C.2     9  GLY9        0.2612
      4  O         30.6020    6.2550    4.1470 O.2     9  GLY9       -0.2717
      5  N         32.7980    6.0390    4.6430 N.am   10  GLU10      -0.1965
      6  CA        33.1760    5.1990    3.5100 C.3    10  GLU10       0.1733
      7  C         33.5970    3.7940    3.9460 C.2    10  GLU10       0.2617
      8  O         34.3340    3.6470    4.9200 O.2    10  GLU10      -0.2715
      9  CB        34.3360    5.8840    2.7690 C.3    10  GLU10       0.0429
     10  CG        34.6780    5.2730    1.4240 C.3    10  GLU10       0.1163
     11  CD        35.8800    5.8640    0.7140 C.2    10  GLU10       0.3649
     12  OE1       36.7630    6.4560    1.3780 O.co2  10  GLU10      -0.2457
     13  OE2       35.9460    5.7080   -0.5230 O.co2  10  GLU10      -0.2457
     14  N         33.1940    2.7700    3.1720 N.am   11  THR11      -0.1937
     15  CA        33.5880    1.3840    3.4430 C.3    11  THR11       0.2028
     16  C         34.1290    0.7540    2.1600 C.2    11  THR11       0.2642
     17  O         33.5330    0.9110    1.0900 O.2    11  THR11      -0.2714
     18  CB        32.4110    0.5450    4.0090 C.3    11  THR11       0.1808
     19  OG1       31.9000    1.1570    5.1940 O.3    11  THR11      -0.2208
     20  CG2       32.8090   -0.9140    4.3330 C.3    11  THR11       0.0379
     21  N         35.2440    0.0180    2.2840 N.am   12  ARG12      -0.1963
     22  CA        35.8690   -0.7300    1.2020 C.3    12  ARG12       0.1729
     23  C         35.2220   -2.1280    1.1860 C.2    12  ARG12       0.2617
     24  O         35.0950   -2.7660    2.2440 O.2    12  ARG12      -0.2715
     25  CB        37.3810   -0.8610    1.4790 C.3    12  ARG12       0.0348
     26  CG        38.1190    0.4860    1.5730 C.3    12  ARG12       0.0492
     27  CD        39.3590    0.4210    2.4540 C.3    12  ARG12       0.2205
     28  NE        39.1430   -0.4110    3.6430 N.pl3  12  ARG12      -0.0865
     29  CZ        40.0280   -0.5850    4.6170 C.cat  12  ARG12       0.5346
     30  NH1       41.1990    0.0390    4.5810 N.pl3  12  ARG12       0.1354
     31  NH2       39.7420   -1.3720    5.6460 N.pl3  12  ARG12       0.1354
     32  N         34.8010   -2.5900    0.0060 N.am   13  LEU13      -0.1942
     33  CA        34.1670   -3.9020   -0.2180 C.3    13  LEU13       0.1978
     34  C         34.9900   -4.7800   -1.1230 C.2    13  LEU13       0.3842
     35  O         34.6910   -5.9880   -1.1820 O.co2  13  LEU13      -0.2437
     36  CB        32.7640   -3.7570   -0.8910 C.3    13  LEU13       0.0333
     37  CG        31.5410   -3.2490   -0.0780 C.3    13  LEU13       0.0023
     38  CD1       31.3590   -3.9600    1.2350 C.3    13  LEU13       0.0001
     39  CD2       31.5180   -1.7510    0.0550 C.3    13  LEU13       0.0001
     40  OXT       35.8550   -4.2430   -1.8480 O.co2  13  LEU13      -0.2437
@<TRIPOS>BOND
     1    40    34   ar
     2    35    34   ar
     3    34    33    1
     4    36    33    1
     5    36    37    1
     6    13    11   ar
     7    33    32    1
     8    37    39    1
     9    37    38    1
    10    32    23   am
    11    11    12   ar
    12    11    10    1
    13    17    16    2
    14    23    22    1
    15    23    24    2
    16    22    25    1
    17    22    21    1
    18    10     9    1
    19    25    26    1
    20    26    27    1
    21    16    21   am
    22    16    15    1
    23    27    28    1
    24     9     6    1
    25    14    15    1
    26    14     7   am
    27    15    18    1
    28     6     7    1
    29     6     5    1
    30    28    29    2
    31     7     8    2
    32    18    20    1
    33    18    19    1
    34     4     3    2
    35    30    29    1
    36    29    31    1
    37     5     3   am
    38     3     2    1
    39     2     1    1
