@<TRIPOS>MOLECULE
3nfl_III_E_1.pdb
 39 38 0 0 0
SMALL
GASTEIGER

@<TRIPOS>ATOM
      1  N        -13.6860   31.0230   31.9030 N.3    12  ILE12      -0.1231
      2  CA       -12.6190   31.7810   32.5590 C.3    12  ILE12       0.1692
      3  C        -11.2350   31.0980   32.4620 C.2    12  ILE12       0.2592
      4  O        -11.1210   29.8760   32.6280 O.2    12  ILE12      -0.2718
      5  CB       -12.9690   32.3020   33.9930 C.3    12  ILE12       0.0266
      6  CG1      -13.0330   31.1800   35.0550 C.3    12  ILE12       0.0019
      7  CG2      -14.2380   33.1580   33.9750 C.3    12  ILE12       0.0020
      8  CD1      -12.5480   31.5860   36.4850 C.3    12  ILE12       0.0001
      9  N        -10.2090   31.8980   32.1110 N.am   13  GLU13      -0.1966
     10  CA        -8.8340   31.4350   31.9800 C.3    13  GLU13       0.1733
     11  C         -7.9350   32.1030   32.9650 C.2    13  GLU13       0.2617
     12  O         -8.0660   33.3010   33.2150 O.2    13  GLU13      -0.2715
     13  CB        -8.2510   31.4740   30.5570 C.3    13  GLU13       0.0429
     14  CG        -8.7770   32.5280   29.6080 C.3    13  GLU13       0.1163
     15  CD        -7.9730   32.6540   28.3270 C.2    13  GLU13       0.3649
     16  OE1       -8.6050   32.8590   27.2660 O.co2  13  GLU13      -0.2457
     17  OE2       -6.7250   32.5180   28.3730 O.co2  13  GLU13      -0.2457
     18  N         -7.0460   31.3060   33.5560 N.am   14  SER14      -0.1936
     19  CA        -6.1130   31.7660   34.5790 C.3    14  SER14       0.2055
     20  C         -4.6710   31.6420   34.0930 C.2    14  SER14       0.2643
     21  O         -4.3240   30.6890   33.3860 O.2    14  SER14      -0.2714
     22  CB        -6.2890   30.9450   35.8510 C.3    14  SER14       0.2130
     23  OG        -7.5980   31.0420   36.3860 O.3    14  SER14      -0.2179
     24  N         -3.8580   32.6240   34.4590 N.am   15  ASP15      -0.1957
     25  CA        -2.4160   32.7440   34.2090 C.3    15  ASP15       0.1840
     26  C         -1.6700   31.9630   35.2730 C.2    15  ASP15       0.2623
     27  O         -1.9520   32.1790   36.4360 O.2    15  ASP15      -0.2715
     28  CB        -1.9890   34.2310   34.3330 C.3    15  ASP15       0.1450
     29  CG        -2.0710   35.0540   33.0600 C.2    15  ASP15       0.3671
     30  OD1       -2.7260   34.6080   32.1050 O.co2  15  ASP15      -0.2456
     31  OD2       -1.5300   36.1700   33.0460 O.co2  15  ASP15      -0.2456
     32  N         -0.7500   31.0340   34.8960 N.am   16  VAL16      -0.1941
     33  CA         0.0810   30.3010   35.8560 C.3    16  VAL16       0.1977
     34  C          1.5710   30.4280   35.5300 C.2    16  VAL16       0.3842
     35  O          1.9270   30.8450   34.3920 O.co2  16  VAL16      -0.2437
     36  CB        -0.3450   28.8420   36.1860 C.3    16  VAL16       0.0311
     37  CG1       -1.6670   28.7880   36.9560 C.3    16  VAL16       0.0023
     38  CG2       -0.3750   27.9630   34.9400 C.3    16  VAL16       0.0023
     39  OXT        2.3870   30.0630   36.3950 O.co2  16  VAL16      -0.2437
@<TRIPOS>BOND
     1    16    15   ar
     2    15    17   ar
     3    15    14    1
     4    14    13    1
     5    13    10    1
     6     1     2    1
     7    10     9    1
     8    10    11    1
     9    30    29   ar
    10     9     3   am
    11     3     2    1
    12     3     4    2
    13     2     5    1
    14    11    12    2
    15    11    18   am
    16    31    29   ar
    17    29    28    1
    18    21    20    2
    19    18    19    1
    20     7     5    1
    21     5     6    1
    22    20    24   am
    23    20    19    1
    24    25    28    1
    25    25    24    1
    26    25    26    1
    27    35    34   ar
    28    19    22    1
    29    32    26   am
    30    32    33    1
    31    38    36    1
    32     6     8    1
    33    26    27    2
    34    34    33    1
    35    34    39   ar
    36    22    23    1
    37    33    36    1
    38    36    37    1
