@<TRIPOS>MOLECULE
3nfm_FRU_A_1.pdb
 12 12 0 0 0
SMALL
GASTEIGER

@<TRIPOS>ATOM
      1  C1        -3.9280   22.2870    4.5280 C.3   693  FRU693      0.2434
      2  C2        -5.2720   21.6960    4.9620 C.3   693  FRU693      0.2807
      3  C3        -6.4430   22.6780    5.0690 C.3   693  FRU693      0.2409
      4  C4        -7.0810   22.3790    6.4190 C.3   693  FRU693      0.2168
      5  C5        -5.9250   21.8050    7.2140 C.3   693  FRU693      0.1836
      6  C6        -6.4440   20.9950    8.3870 C.3   693  FRU693      0.2142
      7  O1        -3.5640   23.4990    5.1990 O.3   693  FRU693     -0.2148
      8  O2        -5.5850   20.7300    3.9650 O.3   693  FRU693     -0.1896
      9  O3        -7.3950   22.4610    4.0150 O.3   693  FRU693     -0.2149
     10  O4        -7.6340   23.5220    7.0870 O.3   693  FRU693     -0.2175
     11  O5        -5.1620   21.0590    6.2420 O.3   693  FRU693     -0.3253
     12  O6        -5.3500   20.5890    9.1840 O.3   693  FRU693     -0.2176
@<TRIPOS>BOND
     1     8     2    1
     2     9     3    1
     3     1     2    1
     4     1     7    1
     5     2     3    1
     6     2    11    1
     7     3     4    1
     8    11     5    1
     9     4    10    1
    10     4     5    1
    11     5     6    1
    12     6    12    1
