@<TRIPOS>MOLECULE
3nfr_EWQ_A_1.pdb
 17 18 0 0 0
SMALL
GASTEIGER

@<TRIPOS>ATOM
      1  C1        -2.5390   -6.5270  -16.5710 C.ar  232  EWQ232      0.0382
      2  C2        -3.2890   -7.5940  -16.0440 C.ar  232  EWQ232      0.0181
      3  C3        -4.5050   -7.2790  -15.2750 C.ar  232  EWQ232      0.0965
      4  C4        -4.7880   -5.8980  -14.9190 C.ar  232  EWQ232      0.1574
      5  C5        -3.9890   -4.8810  -15.4260 C.ar  232  EWQ232      0.0752
      6  C6        -2.9240   -5.2050  -16.2380 C.ar  232  EWQ232      0.1419
      7  C7        -2.9930   -8.9960  -16.3470 C.ar  232  EWQ232     -0.0155
      8  C8        -3.7780   -9.9830  -15.7590 C.ar  232  EWQ232      0.0566
      9  C9        -4.9310   -9.6310  -15.0270 C.ar  232  EWQ232      0.2608
     10  N10       -5.3320   -8.3310  -14.7920 N.ar  232  EWQ232     -0.2908
     11  C11       -6.5280   -8.0360  -13.9930 C.3   232  EWQ232      0.1336
     12  O12       -5.6600  -10.5230  -14.5990 O.2   232  EWQ232     -0.2670
     13  C13       -1.7490   -9.3610  -17.1410 C.3   232  EWQ232      0.0312
     14  O14       -5.8830   -5.6480  -14.1570 O.3   232  EWQ232     -0.4699
     15  C15       -6.0280   -4.3520  -13.6020 C.3   232  EWQ232      0.2525
     16  O16       -2.1690   -4.1370  -16.6810 O.3   232  EWQ232     -0.4713
     17  C17       -1.1420   -4.3470  -17.6880 C.3   232  EWQ232      0.2525
@<TRIPOS>BOND
     1    17    16    1
     2    13     7    1
     3    16     6    1
     4     1     6   ar
     5     1     2   ar
     6     7     2   ar
     7     7     8   ar
     8     6     5   ar
     9     2     3   ar
    10     8     9   ar
    11     5     4   ar
    12     3     4   ar
    13     3    10   ar
    14     9    10   ar
    15     9    12    2
    16     4    14    1
    17    10    11    1
    18    14    15    1
