@<TRIPOS>MOLECULE
3nfz_3NF_A_1.pdb
 16 16 0 0 0
SMALL
GASTEIGER

@<TRIPOS>ATOM
      1  O1        12.8320  -34.5680   10.0650 O.2   322  3NF322     -0.2733
      2  C2        12.4670  -34.9430    8.9600 C.2   322  3NF322      0.2423
      3  C3        13.2700  -35.8810    8.1050 C.3   322  3NF322      0.0964
      4  N4        11.3140  -34.5360    8.4460 N.am  322  3NF322     -0.1952
      5  C5        10.5110  -33.5530    9.1460 C.3   322  3NF322      0.2020
      6  C6         9.9120  -34.1350   10.4080 C.2   322  3NF322      0.3845
      7  O7         9.5060  -35.3200   10.3910 O.co2 322  3NF322     -0.2437
      8  OXT        9.8430  -33.4310   11.4450 O.co2 322  3NF322     -0.2437
      9  C9         9.4930  -33.0150    8.1350 C.3   322  3NF322      0.0596
     10  C10        8.3230  -32.2820    8.7430 C.ar  322  3NF322     -0.0197
     11  C11        7.2670  -33.0250    9.2400 C.ar  322  3NF322     -0.0009
     12  C12        6.1720  -32.3820    9.7940 C.ar  322  3NF322      0.0417
     13  C13        6.1300  -30.9980    9.8370 C.ar  322  3NF322      0.1957
     14  C14        7.1780  -30.2380    9.3320 C.ar  322  3NF322      0.0417
     15  C15        8.2830  -30.8880    8.7810 C.ar  322  3NF322     -0.0009
     16  O16        5.0400  -30.4060   10.3830 O.3   322  3NF322     -0.2866
@<TRIPOS>BOND
     1     3     2    1
     2     9    10    1
     3     9     5    1
     4     4     2   am
     5     4     5    1
     6    10    15   ar
     7    10    11   ar
     8    15    14   ar
     9     2     1    2
    10     5     6    1
    11    11    12   ar
    12    14    13   ar
    13    12    13   ar
    14    13    16    1
    15     7     6   ar
    16     6     8   ar
