@<TRIPOS>MOLECULE
3ng0_ANP_A_1.pdb
 31 33 0 0 0
SMALL
GASTEIGER

@<TRIPOS>ATOM
      1  PG       -15.1420  -43.2380   75.0720 P.3   474  ANP474      0.4884
      2  O1G      -14.9070  -44.5390   75.8490 O.3   474  ANP474     -0.1240
      3  O2G      -14.2520  -42.1080   75.7250 O.3   474  ANP474     -0.1240
      4  O3G      -16.5350  -42.8250   75.1490 O.2   474  ANP474     -0.2331
      5  PB       -15.5920  -44.6690   72.7560 P.3   474  ANP474      0.4669
      6  O1B      -15.6300  -45.9560   73.5860 O.3   474  ANP474     -0.1253
      7  O2B      -17.0700  -44.2220   72.5940 O.2   474  ANP474     -0.2351
      8  N3B      -14.7100  -43.4770   73.4750 N.3   474  ANP474     -0.0163
      9  PA       -14.5140  -43.8350   70.3170 P.3   474  ANP474      0.2220
     10  O1A      -14.9110  -44.1390   68.9240 O.2   474  ANP474     -0.5170
     11  O2A      -15.1010  -42.5300   70.7210 O.3   474  ANP474     -0.4370
     12  O3A      -15.0530  -45.0230   71.3460 O.3   474  ANP474     -0.2360
     13  O5'      -12.9800  -43.7410   70.3780 O.3   474  ANP474     -0.3111
     14  C5'      -12.2900  -44.9770   70.5260 C.3   474  ANP474      0.1813
     15  C4'      -10.9530  -45.1670   70.0590 C.3   474  ANP474      0.1821
     16  O4'      -10.8370  -46.5750   69.6920 O.3   474  ANP474     -0.3135
     17  C3'      -10.6720  -44.4050   68.8300 C.3   474  ANP474      0.2184
     18  O3'       -9.3000  -44.1720   68.8470 O.3   474  ANP474     -0.2174
     19  C2'      -11.0490  -45.3480   67.7680 C.3   474  ANP474      0.2570
     20  O2'      -10.4420  -45.0810   66.5940 O.3   474  ANP474     -0.2130
     21  C1'      -10.5590  -46.6390   68.3220 C.3   474  ANP474      0.3186
     22  N9       -11.0440  -47.7890   67.5630 N.pl3 474  ANP474     -0.1439
     23  C8       -12.1550  -47.8950   66.8080 C.3   474  ANP474      0.3377
     24  N7       -12.1730  -49.1220   66.2640 N.2   474  ANP474     -0.2095
     25  C5       -11.0660  -49.7930   66.6670 C.2   474  ANP474      0.2526
     26  C6       -10.5560  -51.0760   66.4190 C.2   474  ANP474      0.4393
     27  N6       -11.2830  -52.0080   65.5770 N.pl3 474  ANP474      0.2180
     28  N1        -9.4070  -51.4440   67.0150 N.2   474  ANP474      0.0021
     29  C2        -8.7300  -50.6020   67.8240 C.3   474  ANP474      0.5254
     30  N3        -9.2020  -49.3730   68.0780 N.2   474  ANP474     -0.0055
     31  C4       -10.3540  -48.9490   67.5250 C.2   474  ANP474      0.3518
@<TRIPOS>BOND
     1    27    26    1
     2    24    25    2
     3    24    23    1
     4    26    25    1
     5    26    28    2
     6    20    19    1
     7    25    31    1
     8    23    22    1
     9    28    29    1
    10    31    22    1
    11    31    30    2
    12    22    21    1
    13    19    21    1
    14    19    17    1
    15    29    30    1
    16    21    16    1
    17    17    18    1
    18    17    15    1
    19    10     9    2
    20    16    15    1
    21    15    14    1
    22     9    13    1
    23     9    11    1
    24     9    12    1
    25    13    14    1
    26    12     5    1
    27     7     5    2
    28     5     8    1
    29     5     6    1
    30     8     1    1
    31     1     4    2
    32     1     3    1
    33     1     2    1
