@<TRIPOS>MOLECULE
3ng4_MAL_D_1.pdb
 23 24 0 0 0
SMALL
GASTEIGER

@<TRIPOS>ATOM
      1  C1       -19.9920  -20.5030  -17.7940 C.3   173  MAL173      0.2695
      2  C2       -18.9850  -19.7820  -16.9110 C.3   173  MAL173      0.2406
      3  C3       -18.4450  -18.5110  -17.5010 C.3   173  MAL173      0.2198
      4  C4       -17.9410  -18.7780  -18.9230 C.3   173  MAL173      0.2144
      5  C5       -19.0480  -19.4240  -19.7420 C.3   173  MAL173      0.1835
      6  C6       -18.6060  -19.9370  -21.0950 C.3   173  MAL173      0.2142
      7  O1       -21.3290  -20.0190  -17.7000 O.3   173  MAL173     -0.3257
      8  O2       -19.5940  -19.5290  -15.6790 O.3   173  MAL173     -0.2149
      9  O3       -17.4570  -18.0970  -16.5620 O.3   173  MAL173     -0.2174
     10  O4       -17.5480  -17.5810  -19.5930 O.3   173  MAL173     -0.2176
     11  O5       -19.4700  -20.6110  -19.1050 O.3   173  MAL173     -0.3256
     12  O6       -18.5040  -21.3720  -21.0430 O.3   173  MAL173     -0.2176
     13  C1'      -24.1380  -23.1970  -17.8410 C.3   173  MAL173      0.3023
     14  C2'      -23.3450  -22.9220  -16.5470 C.3   173  MAL173      0.2433
     15  C3'      -22.4230  -21.7470  -16.4500 C.3   173  MAL173      0.2168
     16  C4'      -22.0620  -21.2430  -17.8230 C.3   173  MAL173      0.1804
     17  C5'      -23.2880  -21.0850  -18.6940 C.3   173  MAL173      0.1804
     18  C6'      -22.8950  -20.4820  -20.0490 C.3   173  MAL173      0.2141
     19  O1'      -25.5030  -23.4610  -17.4890 O.3   173  MAL173     -0.1869
     20  O2'      -24.1600  -22.9090  -15.4040 O.3   173  MAL173     -0.2148
     21  O3'      -21.2780  -22.1800  -15.7080 O.3   173  MAL173     -0.2175
     22  O5'      -23.9380  -22.3330  -18.9570 O.3   173  MAL173     -0.3237
     23  O6'      -23.3010  -21.3600  -21.1180 O.3   173  MAL173     -0.2176
@<TRIPOS>BOND
     1    23    18    1
     2     6    12    1
     3     6     5    1
     4    18    17    1
     5     5    11    1
     6     5     4    1
     7    10     4    1
     8    11     1    1
     9    22    17    1
    10    22    13    1
    11     4     3    1
    12    17    16    1
    13    13    19    1
    14    13    14    1
    15    16     7    1
    16    16    15    1
    17     1     7    1
    18     1     2    1
    19     3     2    1
    20     3     9    1
    21     2     8    1
    22    14    15    1
    23    14    20    1
    24    15    21    1
