@<TRIPOS>MOLECULE
3ng4_NAG_C_1.pdb
 15 15 0 0 0
SMALL
GASTEIGER

@<TRIPOS>ATOM
      1  C1       -25.1730  -31.4280  -21.8380 C.3   173  NAG173      0.2917
      2  C2       -24.6320  -30.1050  -21.3660 C.3   173  NAG173      0.1871
      3  C3       -25.7470  -29.4520  -20.5510 C.3   173  NAG173      0.2095
      4  C4       -26.6490  -29.1170  -21.7360 C.3   173  NAG173      0.2136
      5  C5       -27.3310  -30.3890  -22.1750 C.3   173  NAG173      0.1835
      6  C6       -27.9120  -30.3400  -23.5890 C.3   173  NAG173      0.2142
      7  C7       -22.2110  -29.5920  -20.5920 C.2   173  NAG173      0.2421
      8  C8       -20.8600  -30.2300  -20.3750 C.3   173  NAG173      0.0964
      9  N2       -23.2460  -30.3270  -20.9880 N.am  173  NAG173     -0.1991
     10  O1       -24.5890  -31.7980  -23.0420 O.3   173  NAG173     -0.1879
     11  O3       -25.4810  -28.2810  -19.8270 O.3   173  NAG173     -0.2183
     12  O4       -27.6480  -28.2020  -21.4440 O.3   173  NAG173     -0.2176
     13  O5       -26.5760  -31.5030  -21.9310 O.3   173  NAG173     -0.3242
     14  O6       -27.1190  -30.9390  -24.5400 O.3   173  NAG173     -0.2176
     15  O7       -22.3190  -28.4390  -20.3960 O.2   173  NAG173     -0.2733
@<TRIPOS>BOND
     1    14     6    1
     2     6     5    1
     3    10     1    1
     4     5    13    1
     5     5     4    1
     6    13     1    1
     7     1     2    1
     8     4    12    1
     9     4     3    1
    10     2     9    1
    11     2     3    1
    12     9     7   am
    13     7    15    2
    14     7     8    1
    15     3    11    1
