@<TRIPOS>MOLECULE
3ng5_KDH_A_1.pdb
 33 36 0 0 0
SMALL
GASTEIGER

@<TRIPOS>ATOM
      1  O1         3.6370   16.1030  -11.0470 O.3   128  KDH128     -0.2830
      2  C3         3.5210   17.3360  -11.5860 C.ar  128  KDH128      0.2373
      3  C6         4.5530   18.2250  -11.3940 C.ar  128  KDH128      0.2727
      4  O7         5.6310   17.8230  -10.6610 O.3   128  KDH128     -0.2797
      5  C9         4.4690   19.5050  -11.9210 C.ar  128  KDH128      0.2373
      6  O10        5.4930   20.3840  -11.7370 O.3   128  KDH128     -0.2830
      7  C12        3.3440   19.8760  -12.6540 C.ar  128  KDH128      0.0449
      8  C14        2.3030   18.9700  -12.8590 C.ar  128  KDH128      0.0274
      9  C15        1.1070   19.4020  -13.6250 C.3   128  KDH128      0.2283
     10  C20       -0.7620   18.6640  -14.9270 C.ar  128  KDH128      0.1414
     11  C21       -1.1970   17.8330  -15.9500 C.ar  128  KDH128      0.0788
     12  C24       -2.3530   18.1700  -16.6470 C.ar  128  KDH128      0.2019
     13  C26       -3.0680   19.3200  -16.3370 C.ar  128  KDH128      0.0839
     14  C29       -2.6270   20.1530  -15.3150 C.ar  128  KDH128      0.1979
     15  C31       -1.4690   19.8350  -14.6270 C.ar  128  KDH128      0.0546
     16  C33        0.1210   20.1190  -12.7090 C.3   128  KDH128      0.2175
     17  C36       -1.2100   19.6980  -10.7340 C.2   128  KDH128      0.3414
     18  C38       -1.8360   18.6840   -9.8510 C.ar  128  KDH128      0.0822
     19  C39       -2.1140   17.4770  -10.4620 C.ar  128  KDH128      0.0520
     20  C41       -2.0780   18.9170   -8.5000 C.ar  128  KDH128      0.0520
     21  C01       -1.0180   20.7480  -13.5090 C.3   128  KDH128      0.0805
     22  O01        0.3840   18.3390  -14.2470 O.3   128  KDH128     -0.4711
     23  O02       -2.7950   17.3730  -17.6480 O.3   128  KDH128     -0.2864
     24  O03       -3.3230   21.2960  -15.0080 O.3   128  KDH128     -0.2867
     25  C4         2.3890   17.6970  -12.3120 C.ar  128  KDH128      0.0449
     26  O35       -0.3640   19.1660  -11.7660 O.3   128  KDH128     -0.4447
     27  O37       -1.3770   20.8940  -10.5830 O.2   128  KDH128     -0.2449
     28  C43       -2.6410   17.8970   -7.7600 C.ar  128  KDH128      0.2377
     29  O44       -2.9180   18.0770   -6.4390 O.3   128  KDH128     -0.2830
     30  C46       -2.9220   16.6940   -8.3790 C.ar  128  KDH128      0.2727
     31  O47       -3.4780   15.6980   -7.6490 O.3   128  KDH128     -0.2797
     32  C49       -2.6790   16.4700   -9.7210 C.ar  128  KDH128      0.2377
     33  O50       -2.9600   15.2610  -10.2950 O.3   128  KDH128     -0.2830
@<TRIPOS>BOND
     1    23    12    1
     2    12    13   ar
     3    12    11   ar
     4    13    14   ar
     5    11    10   ar
     6    14    24    1
     7    14    15   ar
     8    10    15   ar
     9    10    22    1
    10    15    21    1
    11    22     9    1
    12     9     8    1
    13     9    16    1
    14    21    16    1
    15     8     7   ar
    16     8    25   ar
    17    16    26    1
    18     7     5   ar
    19    25     2   ar
    20     5     6    1
    21     5     3   ar
    22    26    17    1
    23     2     3   ar
    24     2     1    1
    25     3     4    1
    26    17    27    2
    27    17    18    1
    28    19    18   ar
    29    19    32   ar
    30    33    32    1
    31    18    20   ar
    32    32    30   ar
    33    20    28   ar
    34    30    28   ar
    35    30    31    1
    36    28    29    1
