@<TRIPOS>MOLECULE
3ng6_HEM_A_1.pdb
 43 50 0 0 0
SMALL
GASTEIGER

@<TRIPOS>ATOM
      1  CHA       56.4070   24.4660   19.3220 C.2   200  HEM200      0.0000
      2  CHB       55.9590   22.1120   15.1320 C.2   200  HEM200      0.0000
      3  CHC       57.3780   26.0760   12.7600 C.2   200  HEM200      0.0000
      4  CHD       58.1260   28.3220   16.9710 C.2   200  HEM200      0.0000
      5  C1A       56.2150   23.4590   18.4000 C.ar  200  HEM200      0.0000
      6  C2A       55.9580   22.0670   18.7050 C.ar  200  HEM200      0.0000
      7  C3A       55.8140   21.4250   17.5430 C.ar  200  HEM200      0.0000
      8  C4A       55.9920   22.3930   16.4790 C.ar  200  HEM200      0.0000
      9  CMA       55.5600   19.9250   17.2790 C.3   200  HEM200      0.0000
     10  CAA       55.9070   21.4960   20.1330 C.2   200  HEM200      0.0000
     11  CBA       54.9880   22.1270   21.1630 C.2   200  HEM200      0.0000
     12  CGA       55.3240   21.8390   22.6040 C.2   200  HEM200      0.0000
     13  O1A       54.3860   21.9170   23.4370 O.co2 200  HEM200      0.0000
     14  O2A       56.5220   21.5440   22.8620 O.co2 200  HEM200      0.0000
     15  C1B       56.2980   22.9830   14.1200 C.2   200  HEM200      0.0000
     16  C2B       56.2130   22.6970   12.7020 C.2   200  HEM200      0.0000
     17  C3B       56.5850   23.7980   12.0470 C.2   200  HEM200      0.0000
     18  C4B       56.9620   24.7900   13.0350 C.2   200  HEM200      0.0000
     19  CMB       55.7610   21.3290   12.1440 C.3   200  HEM200      0.0000
     20  CAB       56.7080   24.0280   10.5260 C.2   200  HEM200      0.0000
     21  CBB       57.3390   23.1240    9.7650 C.2   200  HEM200      0.0000
     22  C1C       57.7220   27.0310   13.6950 C.ar  200  HEM200      0.0000
     23  C2C       58.2590   28.3460   13.4000 C.ar  200  HEM200      0.0000
     24  C3C       58.4770   28.9630   14.5620 C.ar  200  HEM200      0.0000
     25  C4C       58.0850   28.0500   15.6200 C.ar  200  HEM200      0.0000
     26  CMC       58.4930   28.8520   11.9620 C.3   200  HEM200      0.0000
     27  CAC       59.0590   30.3650   14.8370 C.2   200  HEM200      0.0000
     28  CBC       58.7670   31.3950   14.0390 C.2   200  HEM200      0.0000
     29  C1D       57.7330   27.4700   17.9810 C.2   200  HEM200      0.0000
     30  C2D       57.8830   27.7180   19.3990 C.2   200  HEM200      0.0000
     31  C3D       57.4040   26.6550   20.0480 C.2   200  HEM200      0.0000
     32  C4D       56.9730   25.6950   19.0540 C.2   200  HEM200      0.0000
     33  CMD       58.4670   29.0240   19.9760 C.3   200  HEM200      0.0000
     34  CAD       57.3700   26.3660   21.5630 C.3   200  HEM200      0.0000
     35  CBD       58.3590   25.3400   22.1130 C.3   200  HEM200      0.0000
     36  CGD       57.8480   23.9350   22.2600 C.2   200  HEM200      0.0000
     37  O1D       57.3530   23.6150   23.3760 O.co2 200  HEM200      0.0000
     38  O2D       57.9540   23.1770   21.2610 O.co2 200  HEM200      0.0000
     39  NA        56.2400   23.6380   17.0270 N.ar  200  HEM200      0.0000
     40  NB        56.7510   24.2770   14.3030 N.2   200  HEM200      0.0000
     41  NC        57.6210   26.8740   15.0630 N.ar  200  HEM200      0.0000
     42  ND        57.1650   26.2200   17.7890 N.2   200  HEM200      0.0000
     43 FE         56.8220   25.2870   16.0270 Fe    200  HEM200      0.0000
@<TRIPOS>BOND
     1    21    20    2
     2    20    17    1
     3    26    23    1
     4    17    16    2
     5    17    18    1
     6    19    16    1
     7    16    15    1
     8     3    18    2
     9     3    22    1
    10    18    40    1
    11    23    22   ar
    12    23    24   ar
    13    22    41   ar
    14    28    27    2
    15    15    40    2
    16    15     2    1
    17    40    43    1
    18    24    27    1
    19    24    25   ar
    20    41    25   ar
    21    41    43    1
    22     2     8    2
    23    25     4    1
    24    43    39    1
    25    43    42    1
    26     8    39   ar
    27     8     7   ar
    28     4    29    2
    29    39     5   ar
    30     9     7    1
    31     7     6   ar
    32    42    29    1
    33    42    32    2
    34    29    30    1
    35     5     6   ar
    36     5     1    2
    37     6    10    1
    38    32     1    1
    39    32    31    1
    40    30    33    1
    41    30    31    2
    42    31    34    1
    43    10    11    2
    44    11    12    1
    45    38    36   ar
    46    34    35    1
    47    35    36    1
    48    36    37   ar
    49    12    14   ar
    50    12    13   ar
