@<TRIPOS>MOLECULE
3ng7_HNK_X_1.pdb
 13 14 0 0 0
SMALL
GASTEIGER

@<TRIPOS>ATOM
      1  N1       -52.9530   16.5790   73.4540 N.2   436  HNK436     -0.1750
      2  C2       -52.3460   15.7560   74.4050 C.2   436  HNK436      0.1081
      3  C3       -51.0020   15.3910   74.1840 C.2   436  HNK436      0.0129
      4  C4       -50.2500   15.8690   73.1030 C.2   436  HNK436      0.0110
      5  C5       -50.8590   16.7200   72.1460 C.2   436  HNK436      0.0938
      6  C6       -52.1990   17.0660   72.4030 C.1   436  HNK436      0.1551
      7  O6       -52.7640   17.8640   71.5390 O.2   436  HNK436     -0.2219
      8  C7       -50.3580   14.4950   75.1350 C.3   436  HNK436      0.0817
      9  C8       -49.4300   13.4230   74.4890 C.3   436  HNK436      0.0220
     10  C9       -48.4580   13.1780   75.6250 C.3   436  HNK436      0.0191
     11  C10      -48.7520   14.1950   76.7480 C.3   436  HNK436      0.0724
     12  N11      -49.5910   15.2570   76.1440 N.3   436  HNK436     -0.2691
     13  C12      -50.5070   15.7650   77.2100 C.3   436  HNK436      0.0899
@<TRIPOS>BOND
     1     7     6    2
     2     5     6    1
     3     5     4    2
     4     6     1    2
     5     4     3    1
     6     1     2    1
     7     3     2    2
     8     3     8    1
     9     9     8    1
    10     9    10    1
    11     8    12    1
    12    10    11    1
    13    12    11    1
    14    12    13    1
