@<TRIPOS>MOLECULE
3ng7_HNL_X_1.pdb
 13 14 0 0 0
SMALL
GASTEIGER

@<TRIPOS>ATOM
      1  N1       -44.5700   15.1790   67.0620 N.2   433  HNL433     -0.1750
      2  C2       -44.7820   17.8900   67.6720 C.2   433  HNL433      0.0110
      3  C3       -43.5470   17.3220   67.2700 C.2   433  HNL433      0.0129
      4  C4       -43.4370   15.9520   66.9330 C.2   433  HNL433      0.1081
      5  C5       -45.9600   17.0970   67.7990 C.2   433  HNL433      0.0938
      6  C6       -45.7430   15.6850   67.4800 C.1   433  HNL433      0.1551
      7  O6       -46.6640   14.8280   67.5200 O.2   433  HNL433     -0.2219
      8  C7       -42.3410   18.2280   67.1780 C.3   433  HNL433      0.0817
      9  C8       -41.4940   18.0990   65.9370 C.3   433  HNL433      0.0220
     10  C9       -40.1580   18.7540   66.4270 C.3   433  HNL433      0.0191
     11  C10      -40.2210   19.0260   67.9210 C.3   433  HNL433      0.0724
     12  N11      -41.3830   18.1410   68.2530 N.3   433  HNL433     -0.2691
     13  C12      -41.9900   18.3980   69.5390 C.3   433  HNL433      0.0899
@<TRIPOS>BOND
     1     9    10    1
     2     9     8    1
     3    10    11    1
     4     4     1    1
     5     4     3    2
     6     1     6    2
     7     8     3    1
     8     8    12    1
     9     3     2    1
    10     6     7    2
    11     6     5    1
    12     2     5    2
    13    11    12    1
    14    12    13    1
