@<TRIPOS>MOLECULE
3ng7_GP7_X_1.pdb
 43 42 0 0 0
SMALL
GASTEIGER

@<TRIPOS>ATOM
      1  P        -53.2620    5.9760   84.5130 P.3   435  GP7435      0.5327
      2  C1       -53.6850    5.0760   82.0200 C.3   435  GP7435      0.2010
      3  C2       -52.2060    5.4690   81.8430 C.3   435  GP7435      0.2422
      4  O2       -52.1100    6.5860   80.9360 O.3   435  GP7435     -0.4457
      5  C3       -51.3640    4.2510   81.4560 C.3   435  GP7435      0.2543
      6  O3       -50.0950    4.4420   82.0990 O.3   435  GP7435     -0.4444
      7  C11      -49.1760    3.3960   82.5160 C.2   435  GP7435      0.3171
      8  O11      -49.3550    2.2720   82.1490 O.2   435  GP7435     -0.2501
      9  C12      -48.0000    3.6780   83.3800 C.3   435  GP7435      0.1096
     10  C13      -47.0260    2.5090   83.3370 C.3   435  GP7435      0.0117
     11  C14      -45.8680    2.7100   82.3360 C.3   435  GP7435      0.0009
     12  C15      -44.4140    2.3670   82.7420 C.3   435  GP7435      0.0047
     13  C16      -43.5570    2.3500   81.4410 C.3   435  GP7435      0.0257
     14  C17      -42.1190    2.0890   81.7940 C.2   435  GP7435     -0.0307
     15  C18      -41.1530    2.0830   80.6130 C.2   435  GP7435     -0.0307
     16  C19      -41.7840    2.0610   79.2470 C.3   435  GP7435      0.0257
     17  O1P      -52.6760    7.1440   83.7710 O.2   435  GP7435     -0.2224
     18  C20      -40.8920    2.7550   78.2690 C.3   435  GP7435      0.0047
     19  C21      -41.6550    2.7180   76.9700 C.3   435  GP7435      0.0003
     20  C22      -41.0390    1.9820   75.8040 C.3   435  GP7435      0.0000
     21  C23      -42.0270    1.9590   74.6280 C.3   435  GP7435      0.0000
     22  C24      -41.9290    0.8210   73.5970 C.3   435  GP7435      0.0000
     23  C25      -40.5490    0.1540   73.4980 C.3   435  GP7435      0.0000
     24  O2P      -54.1750    6.4360   85.6560 O.3   435  GP7435     -0.1145
     25  C31      -50.8070    7.1950   80.6310 C.2   435  GP7435      0.3171
     26  O31      -50.7400    8.4250   80.6590 O.2   435  GP7435     -0.2501
     27  C32      -49.6130    6.3430   80.2630 C.3   435  GP7435      0.1096
     28  C33      -48.3040    7.0910   80.0210 C.3   435  GP7435      0.0120
     29  C34      -48.3780    7.7440   78.6410 C.3   435  GP7435      0.0052
     30  C35      -47.1380    7.5060   77.8160 C.3   435  GP7435      0.0257
     31  C36      -47.3220    8.0090   76.3950 C.2   435  GP7435     -0.0307
     32  C37      -46.3750    7.5420   75.2550 C.2   435  GP7435     -0.0307
     33  C38      -45.2330    6.5890   75.4520 C.3   435  GP7435      0.0257
     34  C39      -44.3070    6.8070   74.3000 C.3   435  GP7435      0.0047
     35  O3P      -54.1510    5.2290   83.3810 O.3   435  GP7435     -0.2662
     36  C40      -43.0710    5.8790   74.1900 C.3   435  GP7435      0.0003
     37  C41      -42.5840    5.6410   72.7090 C.3   435  GP7435      0.0000
     38  C42      -41.6930    6.8460   72.3060 C.3   435  GP7435      0.0000
     39  C43      -40.7450    6.5870   71.1880 C.3   435  GP7435      0.0000
     40  C44      -39.9510    7.9120   70.9350 C.3   435  GP7435      0.0000
     41  C45      -39.0480    7.6880   69.7250 C.3   435  GP7435      0.0000
     42  C46      -38.1180    8.8750   69.3970 C.3   435  GP7435      0.0000
     43  O4P      -52.3420    4.8520   84.8620 O.3   435  GP7435     -0.1145
@<TRIPOS>BOND
     1    42    41    1
     2    41    40    1
     3    40    39    1
     4    39    38    1
     5    38    37    1
     6    37    36    1
     7    23    22    1
     8    22    21    1
     9    36    34    1
    10    34    33    1
    11    21    20    1
    12    32    33    1
    13    32    31    2
    14    20    19    1
    15    31    30    1
    16    19    18    1
    17    30    29    1
    18    18    16    1
    19    29    28    1
    20    16    15    1
    21    28    27    1
    22    27    25    1
    23    15    14    2
    24    25    26    2
    25    25     4    1
    26     4     3    1
    27    13    14    1
    28    13    12    1
    29     5     3    1
    30     5     6    1
    31     3     2    1
    32     2    35    1
    33     6     7    1
    34     8     7    2
    35    11    12    1
    36    11    10    1
    37     7     9    1
    38    10     9    1
    39    35     1    1
    40    17     1    2
    41     1    43    1
    42     1    24    1
