@<TRIPOS>MOLECULE
3ng9_ADE_A_1.pdb
 10 11 0 0 0
SMALL
GASTEIGER

@<TRIPOS>ATOM
      1  N9       228.3020  -81.1250  652.7690 N.2   737  ADE737     -0.1914
      2  C8       227.0680  -81.3370  653.2880 C.3   737  ADE737      0.2618
      3  N7       227.0340  -80.8960  654.5790 N.2   737  ADE737     -0.2267
      4  C5       228.2590  -80.4010  654.8920 C.2   737  ADE737      0.2303
      5  C6       228.8620  -79.8100  656.0200 C.2   737  ADE737      0.4393
      6  N6       228.2020  -79.6040  657.1990 N.pl3 737  ADE737      0.2185
      7  N1       230.1570  -79.4320  655.9140 N.2   737  ADE737     -0.0265
      8  C2       230.8600  -79.6110  654.7750 C.3   737  ADE737      0.4008
      9  N3       230.3100  -80.1630  653.6840 N.2   737  ADE737     -0.1640
     10  C4       229.0220  -80.5570  653.7510 C.1   737  ADE737      0.0579
@<TRIPOS>BOND
     1     1     2    1
     2     1    10    2
     3     2     3    1
     4     9    10    2
     5     9     8    1
     6    10     4    1
     7     3     4    2
     8     8     7    1
     9     4     5    1
    10     7     5    2
    11     5     6    1
