@<TRIPOS>MOLECULE
3nga_3NG_A_1.pdb
 25 28 0 0 0
SMALL
GASTEIGER

@<TRIPOS>ATOM
      1  C1        46.1870   -4.7190   37.6310 C.2   1000  3NG1000     0.1187
      2  C2        45.1510   -5.5530   38.1220 C.3   1000  3NG1000     0.0981
      3  C3        44.8110   -5.5150   39.4980 C.2   1000  3NG1000    -0.0148
      4  C4        45.4650   -4.6550   40.3640 C.2   1000  3NG1000     0.0028
      5  C5        46.4950   -3.8370   39.8860 C.2   1000  3NG1000     0.0817
      6  C6        46.8650   -3.8890   38.5440 C.2   1000  3NG1000     0.0348
      7  C7        44.9200   -6.3450   35.8230 C.ar  1000  3NG1000     0.0455
      8  C8        44.5090   -6.3910   37.1880 C.ar  1000  3NG1000     0.0112
      9  N9        46.5700   -4.6750   36.3350 N.2   1000  3NG1000    -0.3889
     10  C10       45.9740   -5.4540   35.4490 C.2   1000  3NG1000     0.2026
     11  C11       43.2420   -8.0080   35.3480 C.ar  1000  3NG1000     0.0990
     12  N12       42.8430   -8.0850   36.6370 N.ar  1000  3NG1000    -0.2426
     13  C13       43.4650   -7.2710   37.5140 C.ar  1000  3NG1000     0.0954
     14  C14       44.2670   -7.1940   34.8990 C.ar  1000  3NG1000     0.0243
     15  N15       46.3750   -5.3960   34.1650 N.pl3 1000  3NG1000    -0.1836
     16  C16       47.3540   -4.6250   33.5300 C.ar  1000  3NG1000     0.0739
     17  C17       48.5820   -4.2830   34.0910 C.ar  1000  3NG1000     0.0280
     18  C18       49.4850   -3.5240   33.3330 C.ar  1000  3NG1000     0.0590
     19  C19       49.2020   -3.1360   32.0280 C.ar  1000  3NG1000     0.0115
     20  C20       47.9790   -3.4730   31.4750 C.ar  1000  3NG1000     0.0022
     21  C21       47.0670   -4.2180   32.2160 C.ar  1000  3NG1000     0.0166
     22 CL22       50.9880   -3.0520   34.0070 Cl    1000  3NG1000    -0.0822
     23  C23       47.1780   -2.8820   40.7760 C.2   1000  3NG1000     0.3878
     24  O24       48.3020   -2.4380   40.3510 O.co2 1000  3NG1000    -0.2406
     25  O25       46.5560   -2.5460   41.8450 O.co2 1000  3NG1000    -0.2406
@<TRIPOS>BOND
     1    20    19   ar
     2    20    21   ar
     3    19    18   ar
     4    21    16   ar
     5    18    22    1
     6    18    17   ar
     7    16    17   ar
     8    16    15    1
     9    15    10    1
    10    14    11   ar
    11    14     7   ar
    12    11    12   ar
    13    10     7    1
    14    10     9    2
    15     7     8   ar
    16     9     1    2
    17    12    13   ar
    18     8    13   ar
    19     8     2    1
    20     1     2    1
    21     1     6    1
    22     2     3    1
    23     6     5    2
    24     3     4    2
    25     5     4    1
    26     5    23    1
    27    24    23   ar
    28    23    25   ar
