@<TRIPOS>MOLECULE
3ngb_BGC_A_1.pdb
 12 12 0 0 0
SMALL
GASTEIGER

@<TRIPOS>ATOM
      1  C2       -32.2490   62.7540  -59.3500 C.3   494  BGC494      0.2434
      2  C3       -32.0120   62.9450  -60.8420 C.3   494  BGC494      0.2199
      3  C4       -33.2500   63.5140  -61.5280 C.3   494  BGC494      0.2144
      4  C5       -33.8310   64.6950  -60.7540 C.3   494  BGC494      0.1836
      5  C6       -35.1540   65.1460  -61.3630 C.3   494  BGC494      0.2142
      6  C1       -32.8470   64.0120  -58.7320 C.3   494  BGC494      0.3024
      7  O1       -33.1250   63.7860  -57.3680 O.3   494  BGC494     -0.1869
      8  O2       -31.0260   62.4490  -58.7160 O.3   494  BGC494     -0.2148
      9  O3       -31.6770   61.7080  -61.4290 O.3   494  BGC494     -0.2174
     10  O4       -32.9080   63.9310  -62.8310 O.3   494  BGC494     -0.2176
     11  O5       -34.0430   64.3450  -59.4030 O.3   494  BGC494     -0.3236
     12  O6       -36.0750   64.0780  -61.3260 O.3   494  BGC494     -0.2176
@<TRIPOS>BOND
     1    10     3    1
     2     3     2    1
     3     3     4    1
     4     9     2    1
     5     5    12    1
     6     5     4    1
     7     2     1    1
     8     4    11    1
     9    11     6    1
    10     1     6    1
    11     1     8    1
    12     6     7    1
