@<TRIPOS>MOLECULE
3ngc_HNL_X_1.pdb
 13 14 0 0 0
SMALL
GASTEIGER

@<TRIPOS>ATOM
      1  N1       -44.0480   15.2250   66.2520 N.2   433  HNL433     -0.1750
      2  C2       -44.1980   17.8020   67.1530 C.2   433  HNL433      0.0110
      3  C3       -43.0170   17.3060   66.6340 C.2   433  HNL433      0.0129
      4  C4       -42.9680   16.0020   66.1870 C.2   433  HNL433      0.1081
      5  C5       -45.3060   16.9830   67.2150 C.2   433  HNL433      0.0938
      6  C6       -45.2080   15.6750   66.7580 C.1   433  HNL433      0.1551
      7  O6       -46.1940   14.9350   66.8100 O.2   433  HNL433     -0.2219
      8  C7       -41.8460   18.1930   66.5870 C.3   433  HNL433      0.0817
      9  C8       -41.0360   18.1520   65.3130 C.3   433  HNL433      0.0220
     10  C9       -39.6640   18.6360   65.7500 C.3   433  HNL433      0.0191
     11  C10      -39.6820   18.6330   67.2690 C.3   433  HNL433      0.0724
     12  N11      -40.8880   17.9010   67.6400 N.3   433  HNL433     -0.2691
     13  C12      -41.4000   18.3240   68.9340 C.3   433  HNL433      0.0899
@<TRIPOS>BOND
     1     9    10    1
     2     9     8    1
     3    10    11    1
     4     4     1    1
     5     4     3    2
     6     1     6    2
     7     8     3    1
     8     8    12    1
     9     3     2    1
    10     6     7    2
    11     6     5    1
    12     2     5    2
    13    11    12    1
    14    12    13    1
