@<TRIPOS>MOLECULE
3ngc_HNH_X_1.pdb
 13 14 0 0 0
SMALL
GASTEIGER

@<TRIPOS>ATOM
      1  N1       -50.4220   15.7520   73.5000 N.2   436  HNH436     -0.1746
      2  C2       -50.0630   14.5270   73.8560 C.2   436  HNH436      0.1125
      3  C3       -49.8470   13.5530   72.9000 C.2   436  HNH436      0.0365
      4  C4       -50.0150   13.8560   71.5640 C.2   436  HNH436      0.0154
      5  C5       -50.3930   15.1380   71.2160 C.2   436  HNH436      0.0941
      6  C6       -50.5970   16.0780   72.2110 C.1   436  HNH436      0.1552
      7  O6       -50.9690   17.3370   71.8920 O.2   436  HNH436     -0.2219
      8  C7       -49.4420   12.1820   73.3220 C.ar  436  HNH436      0.0615
      9  C8       -48.2730   11.6170   73.0740 C.ar  436  HNH436      0.0188
     10  C9       -48.2360   10.2280   73.6610 C.ar  436  HNH436      0.0201
     11  C10      -49.6000   10.0580   74.3110 C.ar  436  HNH436      0.0760
     12  N11      -50.1920   11.3420   74.0010 N.ar  436  HNH436     -0.3240
     13  C12      -51.5430   11.6010   74.4520 C.3   436  HNH436      0.1305
@<TRIPOS>BOND
     1     5     4    2
     2     5     6    1
     3     4     3    1
     4     7     6    2
     5     6     1    2
     6     3     8    1
     7     3     2    2
     8     9     8   ar
     9     9    10   ar
    10     8    12   ar
    11     1     2    1
    12    10    11   ar
    13    12    11   ar
    14    12    13    1
