@<TRIPOS>MOLECULE
3ngc_GP7_X_1.pdb
 43 42 0 0 0
SMALL
GASTEIGER

@<TRIPOS>ATOM
      1  P        -53.0250    6.3160   84.0170 P.3   435  GP7435      0.5327
      2  C1       -53.2820    5.9530   81.4240 C.3   435  GP7435      0.2010
      3  C2       -51.7820    6.2320   81.3870 C.3   435  GP7435      0.2422
      4  O2       -51.5470    7.5380   80.8720 O.3   435  GP7435     -0.4457
      5  C3       -51.0640    5.1730   80.5670 C.3   435  GP7435      0.2543
      6  O3       -50.9810    4.0270   81.3950 O.3   435  GP7435     -0.4444
      7  C11      -49.8280    3.1520   81.4100 C.2   435  GP7435      0.3171
      8  O11      -49.9900    1.9840   81.1280 O.2   435  GP7435     -0.2501
      9  C12      -48.4600    3.6590   81.7900 C.3   435  GP7435      0.1096
     10  C13      -47.5890    2.4930   82.2330 C.3   435  GP7435      0.0116
     11  C14      -46.1840    2.9660   82.5870 C.3   435  GP7435      0.0006
     12  C15      -45.1470    2.2800   81.7200 C.3   435  GP7435      0.0000
     13  C16      -43.7260    2.6780   82.0730 C.3   435  GP7435      0.0000
     14  C17      -42.7630    1.8170   81.2700 C.3   435  GP7435      0.0000
     15  C18      -41.4900    2.5310   80.8620 C.3   435  GP7435      0.0000
     16  C19      -40.8570    1.8580   79.6570 C.3   435  GP7435      0.0000
     17  O1P      -52.2910    5.0240   83.7960 O.2   435  GP7435     -0.2224
     18  C20      -40.6210    2.8440   78.5280 C.3   435  GP7435      0.0000
     19  C21      -41.3530    2.4250   77.2720 C.3   435  GP7435      0.0000
     20  C22      -40.3880    2.0960   76.1520 C.3   435  GP7435      0.0000
     21  C23      -40.9570    2.5420   74.8200 C.3   435  GP7435      0.0000
     22  C24      -41.4800    1.3900   73.9830 C.3   435  GP7435      0.0000
     23  C25      -40.3450    0.5880   73.3960 C.3   435  GP7435      0.0000
     24  O2P      -52.1670    7.5450   84.0760 O.3   435  GP7435     -0.1145
     25  C31      -50.2080    7.7570   80.3550 C.2   435  GP7435      0.3171
     26  O31      -49.8540    8.9030   80.1700 O.2   435  GP7435     -0.2501
     27  C32      -49.2770    6.6220   80.0350 C.3   435  GP7435      0.1096
     28  C33      -47.9700    7.1810   79.4850 C.3   435  GP7435      0.0116
     29  C34      -48.1240    7.5970   78.0350 C.3   435  GP7435      0.0006
     30  C35      -46.8310    7.4400   77.2530 C.3   435  GP7435      0.0000
     31  C36      -47.1040    7.4970   75.7600 C.3   435  GP7435      0.0000
     32  C37      -45.8440    7.7270   74.9490 C.3   435  GP7435      0.0000
     33  C38      -44.9810    6.4850   74.8600 C.3   435  GP7435      0.0000
     34  C39      -43.9440    6.6330   73.7610 C.3   435  GP7435      0.0000
     35  O3P      -53.8440    6.4600   82.6400 O.3   435  GP7435     -0.2662
     36  C40      -42.7730    5.6860   73.9430 C.3   435  GP7435      0.0000
     37  C41      -42.1110    5.3530   72.6160 C.3   435  GP7435      0.0000
     38  C42      -41.5520    6.6060   71.9700 C.3   435  GP7435      0.0000
     39  C43      -40.4140    6.3090   71.0260 C.3   435  GP7435      0.0000
     40  C44      -39.7720    7.5920   70.5460 C.3   435  GP7435      0.0000
     41  C45      -38.6940    7.3220   69.5110 C.3   435  GP7435      0.0000
     42  C46      -37.9710    8.5810   69.1010 C.3   435  GP7435      0.0000
     43  O4P      -54.0520    6.2950   85.1160 O.3   435  GP7435     -0.1145
@<TRIPOS>BOND
     1    42    41    1
     2    41    40    1
     3    40    39    1
     4    39    38    1
     5    38    37    1
     6    37    36    1
     7    23    22    1
     8    34    36    1
     9    34    33    1
    10    22    21    1
    11    21    20    1
    12    33    32    1
    13    32    31    1
    14    31    30    1
    15    20    19    1
    16    30    29    1
    17    19    18    1
    18    29    28    1
    19    18    16    1
    20    28    27    1
    21    16    15    1
    22    27    25    1
    23    26    25    2
    24    25     4    1
    25     5     3    1
    26     5     6    1
    27    15    14    1
    28     4     3    1
    29     8     7    2
    30    14    13    1
    31     3     2    1
    32     6     7    1
    33     7     9    1
    34     2    35    1
    35    12    13    1
    36    12    11    1
    37     9    10    1
    38    10    11    1
    39    35     1    1
    40    17     1    2
    41     1    24    1
    42     1    43    1
