@<TRIPOS>MOLECULE
3ngd_DCP_A_1.pdb
 28 29 0 0 0
SMALL
GASTEIGER

@<TRIPOS>ATOM
      1  N1        -1.1920  -25.4190   19.2710 N.am  875  DCP875     -0.1802
      2  C2        -0.2430  -26.3570   19.7300 C.1   875  DCP875      0.2756
      3  N3         0.4460  -27.2020   18.7810 N.2   875  DCP875     -0.3024
      4  C4         0.1710  -27.0870   17.3660 C.2   875  DCP875      0.2346
      5  C5        -0.7620  -26.1550   16.9520 C.2   875  DCP875      0.0687
      6  C6        -1.4200  -25.3470   17.8850 C.2   875  DCP875      0.0835
      7  O2        -0.0390  -26.4330   20.9470 O.2   875  DCP875     -0.1925
      8  N4         0.7750  -27.8240   16.4070 N.pl3 875  DCP875     -0.0921
      9  C1'       -1.9150  -24.5240   20.2250 C.3   875  DCP875      0.2090
     10  C2'       -1.1890  -23.1540   20.3020 C.3   875  DCP875      0.0874
     11  C3'       -2.1550  -22.1170   19.6940 C.3   875  DCP875      0.1857
     12  C4'       -3.4490  -22.8940   19.3240 C.3   875  DCP875      0.1773
     13  O4'       -3.3180  -24.2640   19.8580 O.3   875  DCP875     -0.3339
     14  O3'       -2.4680  -21.0240   20.6030 O.3   875  DCP875     -0.2203
     15  C5'       -3.7440  -22.8890   17.7760 C.3   875  DCP875      0.1812
     16  O5'       -2.5510  -22.8690   16.8850 O.3   875  DCP875     -0.3112
     17  PA        -2.5250  -22.2440   15.2640 P.3   875  DCP875      0.2189
     18  O1A       -3.9320  -22.0640   14.7220 O.3   875  DCP875     -0.4371
     19  O2A       -1.5520  -23.1030   14.5020 O.2   875  DCP875     -0.5170
     20  O3A       -1.7860  -20.7350   15.5070 O.3   875  DCP875     -0.2700
     21  PB        -2.4000  -19.4300   16.4240 P.3   875  DCP875      0.2277
     22  O1B       -1.9780  -19.6940   17.8600 O.3   875  DCP875     -0.4368
     23  O2B       -3.8830  -19.2320   16.1170 O.2   875  DCP875     -0.5168
     24  O3B       -1.4300  -18.1240   15.6480 O.3   875  DCP875     -0.2258
     25  PG        -1.6120  -17.6940   14.0350 P.3   875  DCP875      0.5373
     26  O1G       -2.9570  -18.0630   13.4910 O.3   875  DCP875     -0.1143
     27  O2G       -0.4080  -18.4470   13.2460 O.2   875  DCP875     -0.2221
     28  O3G       -1.3640  -16.1410   13.7870 O.3   875  DCP875     -0.1143
@<TRIPOS>BOND
     1    27    25    2
     2    26    25    1
     3    28    25    1
     4    25    24    1
     5    19    17    2
     6    18    17    1
     7    17    20    1
     8    17    16    1
     9    20    21    1
    10    24    21    1
    11    23    21    2
    12     8     4    1
    13    21    22    1
    14    16    15    1
    15     5     4    1
    16     5     6    2
    17     4     3    2
    18    15    12    1
    19     6     1    1
    20     3     2    2
    21     1     2   am
    22     1     9    1
    23    12    11    1
    24    12    13    1
    25    11    10    1
    26    11    14    1
    27     2     7    2
    28    13     9    1
    29     9    10    1
