@<TRIPOS>MOLECULE
3ngi_TTP_A_1.pdb
 29 30 0 0 0
SMALL
GASTEIGER

@<TRIPOS>ATOM
      1  PA         0.0210   49.7720   16.1050 P.3   904  TTP904      0.2189
      2  O1A       -0.6240   48.9020   17.1490 O.3   904  TTP904     -0.4371
      3  O2A       -0.4220   49.3760   14.7150 O.2   904  TTP904     -0.5170
      4  O3A        1.6100   49.6550   16.3080 O.3   904  TTP904     -0.2700
      5  PB         2.7790   50.1120   15.3080 P.3   904  TTP904      0.2277
      6  O1B        3.5730   51.2080   15.9830 O.3   904  TTP904     -0.4368
      7  O2B        2.2600   50.5660   13.9680 O.2   904  TTP904     -0.5168
      8  O3B        3.7270   48.8170   15.2030 O.3   904  TTP904     -0.2258
      9  PG         3.4500   47.5200   14.2810 P.3   904  TTP904      0.5373
     10  O1G        2.1350   47.6530   13.5540 O.3   904  TTP904     -0.1143
     11  O2G        4.6060   47.4110   13.3300 O.2   904  TTP904     -0.2221
     12  O3G        3.3990   46.3140   15.1880 O.3   904  TTP904     -0.1143
     13  O5'       -0.3540   51.2970   16.4550 O.3   904  TTP904     -0.3112
     14  C5'       -0.2610   52.3440   15.4930 C.3   904  TTP904      0.1812
     15  C4'        0.1940   53.6080   16.1970 C.3   904  TTP904      0.1773
     16  O4'       -0.6560   53.8800   17.3240 O.3   904  TTP904     -0.3339
     17  C3'        1.5920   53.5010   16.7860 C.3   904  TTP904      0.1857
     18  O3'        2.6540   53.6940   15.8420 O.3   904  TTP904     -0.2203
     19  C2'        1.5330   54.5740   17.8570 C.3   904  TTP904      0.0874
     20  C1'        0.1130   54.4120   18.4080 C.3   904  TTP904      0.2090
     21  N1         0.2000   53.4990   19.5700 N.am  904  TTP904     -0.1794
     22  C2         0.5730   54.0400   20.8270 C.1   904  TTP904      0.2844
     23  O2         0.7840   55.2690   20.9290 O.2   904  TTP904     -0.1918
     24  N3         0.6970   53.2630   21.9170 N.2   904  TTP904     -0.2455
     25  C4         0.4830   51.9420   21.8520 C.1   904  TTP904      0.2134
     26  O4         0.6120   51.2470   22.8830 O.2   904  TTP904     -0.2088
     27  C5         0.0990   51.3350   20.5460 C.2   904  TTP904      0.0891
     28  C5M       -0.1550   49.8540   20.3930 C.3   904  TTP904      0.0462
     29  C6        -0.0220   52.1770   19.4450 C.2   904  TTP904      0.0877
@<TRIPOS>BOND
     1    11     9    2
     2    10     9    1
     3     7     5    2
     4     9    12    1
     5     9     8    1
     6     3     1    2
     7     8     5    1
     8     5     6    1
     9     5     4    1
    10    14    15    1
    11    14    13    1
    12    18    17    1
    13     1     4    1
    14     1    13    1
    15     1     2    1
    16    15    17    1
    17    15    16    1
    18    17    19    1
    19    16    20    1
    20    19    20    1
    21    20    21    1
    22    29    21    1
    23    29    27    2
    24    21    22   am
    25    28    27    1
    26    27    25    1
    27    22    23    2
    28    22    24    2
    29    25    24    2
    30    25    26    2
