@<TRIPOS>MOLECULE
3ngl_NAP_A_1.pdb
 48 52 0 0 0
SMALL
GASTEIGER

@<TRIPOS>ATOM
      1  PA         2.3890  -11.6440   23.3880 P.3   305  NAP305      0.2189
      2  O1A        3.1780  -12.7670   23.9430 O.2   305  NAP305     -0.5170
      3  O2A        1.4040  -11.0380   24.3000 O.3   305  NAP305     -0.4371
      4  O5B        1.5850  -12.2800   22.1570 O.3   305  NAP305     -0.3112
      5  C5B        1.9650  -13.4360   21.5010 C.3   305  NAP305      0.1813
      6  C4B        0.7620  -13.7210   20.6470 C.3   305  NAP305      0.1820
      7  O4B        1.1530  -14.6980   19.7180 O.3   305  NAP305     -0.3136
      8  C3B       -0.4210  -14.2870   21.4460 C.3   305  NAP305      0.2157
      9  O3B       -1.6720  -13.8310   20.9230 O.3   305  NAP305     -0.2175
     10  C2B       -0.2860  -15.7780   21.2060 C.3   305  NAP305      0.2314
     11  O2B       -1.5210  -16.4240   21.2790 O.3   305  NAP305     -0.2630
     12  C1B        0.2800  -15.8070   19.7980 C.3   305  NAP305      0.3158
     13  N9A        1.0140  -17.0500   19.5790 N.pl3 305  NAP305     -0.1439
     14  C8A        2.2140  -17.4320   20.1680 C.3   305  NAP305      0.3377
     15  N7A        2.5280  -18.6650   19.6820 N.2   305  NAP305     -0.2095
     16  C5A        1.5640  -19.0560   18.8020 C.2   305  NAP305      0.2526
     17  C6A        1.3820  -20.2040   18.0360 C.2   305  NAP305      0.4393
     18  N6A        2.2830  -21.1650   18.0810 N.pl3 305  NAP305      0.2180
     19  N1A        0.2870  -20.3280   17.1990 N.2   305  NAP305      0.0021
     20  C2A       -0.6220  -19.3040   17.1500 C.3   305  NAP305      0.5254
     21  N3A       -0.4620  -18.1870   17.9200 N.2   305  NAP305     -0.0055
     22  C4A        0.6090  -18.0530   18.7260 C.2   305  NAP305      0.3518
     23  O3         3.4090  -10.6000   22.7030 O.3   305  NAP305     -0.2703
     24  PN         3.2880   -9.1760   21.9260 P.3   305  NAP305      0.2189
     25  O1N        3.5910   -8.1330   22.9640 O.3   305  NAP305     -0.4371
     26  O2N        2.0160   -9.1430   21.1740 O.2   305  NAP305     -0.5170
     27  O5D        4.4570   -9.2080   20.8390 O.3   305  NAP305     -0.3112
     28  C5D        4.5880  -10.4170   20.0990 C.3   305  NAP305      0.1813
     29  C4D        5.8530  -10.4620   19.2300 C.3   305  NAP305      0.1799
     30  O4D        6.0070   -9.2320   18.5480 O.3   305  NAP305     -0.3327
     31  C3D        7.1380  -10.6690   20.0390 C.3   305  NAP305      0.2158
     32  O3D        8.0950  -11.2700   19.1750 O.3   305  NAP305     -0.2175
     33  C2D        7.5120   -9.2240   20.3940 C.3   305  NAP305      0.2309
     34  O2D        8.8720   -9.0330   20.7670 O.3   305  NAP305     -0.2158
     35  C1D        7.1130   -8.5110   19.0810 C.3   305  NAP305      0.2263
     36  N1N        6.9170   -7.0360   19.1890 N.pl3 305  NAP305     -0.2787
     37  C2N        7.7460   -6.2560   18.4220 C.3   305  NAP305      0.1244
     38  C3N        7.6820   -4.8610   18.4470 C.2   305  NAP305      0.0544
     39  C7N        8.3580   -4.0870   17.3250 C.2   305  NAP305      0.2818
     40  O7N        9.1160   -2.9280   17.6110 O.2   305  NAP305     -0.2670
     41  N7N        8.2620   -4.5370   16.0640 N.am  305  NAP305     -0.0839
     42  C4N        6.7450   -4.2690   19.3040 C.2   305  NAP305      0.0033
     43  C5N        5.8950   -5.0630   20.0930 C.2   305  NAP305      0.0157
     44  C6N        5.9920   -6.4520   20.0360 C.2   305  NAP305      0.0633
     45  P2B       -2.3460  -16.3910   22.6590 P.3   305  NAP305      0.5328
     46  O1X       -3.0100  -15.0550   22.8010 O.3   305  NAP305     -0.1145
     47  O2X       -3.3910  -17.4840   22.6390 O.2   305  NAP305     -0.2224
     48  O3X       -1.4740  -16.5610   23.8650 O.3   305  NAP305     -0.1145
@<TRIPOS>BOND
     1    41    39   am
     2    20    19    1
     3    20    21    1
     4    19    17    2
     5    39    40    2
     6    39    38    1
     7    21    22    2
     8    17    18    1
     9    17    16    1
    10    37    38    1
    11    37    36    1
    12    38    42    2
    13    30    35    1
    14    30    29    1
    15    22    16    1
    16    22    13    1
    17    16    15    2
    18    35    36    1
    19    35    33    1
    20    32    31    1
    21    36    44    1
    22    29    31    1
    23    29    28    1
    24    42    43    1
    25    13    12    1
    26    13    14    1
    27    15    14    1
    28     7    12    1
    29     7     6    1
    30    12    10    1
    31    44    43    2
    32    31    33    1
    33    28    27    1
    34    33    34    1
    35     6     8    1
    36     6     5    1
    37    27    24    1
    38     9     8    1
    39    26    24    2
    40    10    11    1
    41    10     8    1
    42    11    45    1
    43     5     4    1
    44    24    23    1
    45    24    25    1
    46     4     1    1
    47    47    45    2
    48    45    46    1
    49    45    48    1
    50    23     1    1
    51     1     2    2
    52     1     3    1
