@<TRIPOS>MOLECULE
3ngn_AMP_A_1.pdb
 23 25 0 0 0
SMALL
GASTEIGER

@<TRIPOS>ATOM
      1  P         32.3230  -13.2920   11.3130 P.3   556  AMP556      0.5327
      2  O1P       33.7950  -13.2390   11.6930 O.3   556  AMP556     -0.1145
      3  O2P       31.7070  -11.9010   11.0320 O.3   556  AMP556     -0.1145
      4  O3P       31.9290  -14.4090   10.3260 O.2   556  AMP556     -0.2224
      5  O5'       31.5690  -13.7270   12.6850 O.3   556  AMP556     -0.2675
      6  C5'       32.2730  -13.6260   13.9140 C.3   556  AMP556      0.1860
      7  C4'       31.3270  -13.9210   15.0590 C.3   556  AMP556      0.1823
      8  O4'       31.1380  -15.3340   15.2790 O.3   556  AMP556     -0.3135
      9  C3'       31.9020  -13.3800   16.3650 C.3   556  AMP556      0.2184
     10  O3'       31.4280  -12.0460   16.5390 O.3   556  AMP556     -0.2174
     11  C2'       31.3150  -14.3310   17.3920 C.3   556  AMP556      0.2570
     12  O2'       29.8940  -14.1080   17.6010 O.3   556  AMP556     -0.2130
     13  C1'       31.3860  -15.6270   16.6510 C.3   556  AMP556      0.3186
     14  N9        32.7210  -16.2350   16.7120 N.pl3 556  AMP556     -0.1439
     15  C8        33.5700  -16.3150   15.6710 C.3   556  AMP556      0.3377
     16  N7        34.6950  -16.9870   16.0320 N.2   556  AMP556     -0.2095
     17  C5        34.5440  -17.3430   17.3250 C.2   556  AMP556      0.2526
     18  C6        35.3230  -18.1120   18.2890 C.2   556  AMP556      0.4393
     19  N6        36.5270  -18.5890   17.9540 N.pl3 556  AMP556      0.2180
     20  N1        34.8190  -18.2890   19.5090 N.2   556  AMP556      0.0021
     21  C2        33.6100  -17.7920   19.8860 C.3   556  AMP556      0.5254
     22  N3        32.8160  -17.1290   19.0350 N.2   556  AMP556     -0.0055
     23  C4        33.2310  -16.8760   17.7630 C.2   556  AMP556      0.3518
@<TRIPOS>BOND
     1     4     1    2
     2     3     1    1
     3     1     2    1
     4     1     5    1
     5     5     6    1
     6     6     7    1
     7     7     8    1
     8     7     9    1
     9     8    13    1
    10    15    16    1
    11    15    14    1
    12    16    17    2
    13     9    10    1
    14     9    11    1
    15    13    14    1
    16    13    11    1
    17    14    23    1
    18    17    23    1
    19    17    18    1
    20    11    12    1
    21    23    22    2
    22    19    18    1
    23    18    20    2
    24    22    21    1
    25    20    21    1
