@<TRIPOS>MOLECULE
3ngq_1PS_A_1.pdb
 13 13 0 0 0
SMALL
GASTEIGER

@<TRIPOS>ATOM
      1  N1        -6.8570   51.5580   16.0820 N.pl3 556  1PS556     -0.3026
      2  C1        -7.6320   52.0480   17.0790 C.3   556  1PS556      0.1175
      3  C2        -8.2380   53.3120   16.9670 C.2   556  1PS556     -0.0047
      4  C3        -6.6730   52.2800   14.9510 C.2   556  1PS556      0.0616
      5  C4        -7.2580   53.5470   14.7880 C.2   556  1PS556      0.0155
      6  C5        -8.0540   54.0770   15.8080 C.2   556  1PS556     -0.0016
      7  C6        -6.2370   50.2280   16.2130 C.3   556  1PS556      0.0928
      8  C7        -4.9040   50.2550   16.9550 C.3   556  1PS556      0.0429
      9  C8        -5.0200   49.6010   18.3370 C.3   556  1PS556      0.1070
     10  S1        -3.9090   48.3620   18.5900 S.3   556  1PS556     -0.1960
     11  O1        -2.5630   48.7940   18.1610 O.3   556  1PS556     -0.3075
     12  O2        -4.3140   47.1950   17.7820 O.3   556  1PS556     -0.3075
     13  O3        -3.8420   47.9880   20.0170 O.3   556  1PS556     -0.3075
@<TRIPOS>BOND
     1     5     4    2
     2     5     6    1
     3     4     1    1
     4     6     3    2
     5     1     7    1
     6     1     2    1
     7     7     8    1
     8     8     9    1
     9     3     2    1
    10    12    10    1
    11    11    10    1
    12     9    10    1
    13    10    13    1
