@<TRIPOS>MOLECULE
3ngt_AMP_A_1.pdb
 23 25 0 0 0
SMALL
GASTEIGER

@<TRIPOS>ATOM
      1  P        -19.3650  -55.7220  -42.5190 P.3   152  AMP152      0.5327
      2  O1P      -20.2940  -55.4260  -43.6720 O.2   152  AMP152     -0.2224
      3  O2P      -19.1100  -57.2000  -42.2800 O.3   152  AMP152     -0.1145
      4  O3P      -18.1640  -54.8130  -42.5540 O.3   152  AMP152     -0.1145
      5  O5'      -20.0780  -55.3000  -41.1300 O.3   152  AMP152     -0.2675
      6  C5'      -19.6550  -55.7730  -39.8380 C.3   152  AMP152      0.1860
      7  C4'      -18.5700  -54.8740  -39.1960 C.3   152  AMP152      0.1823
      8  O4'      -18.4860  -53.5400  -39.7200 O.3   152  AMP152     -0.3135
      9  C3'      -18.6560  -54.6530  -37.6740 C.3   152  AMP152      0.2184
     10  O3'      -18.1640  -55.7550  -36.8720 O.3   152  AMP152     -0.2174
     11  C2'      -17.8990  -53.3360  -37.4490 C.3   152  AMP152      0.2570
     12  O2'      -16.7540  -53.4320  -36.5840 O.3   152  AMP152     -0.2130
     13  C1'      -17.5090  -52.9510  -38.8640 C.3   152  AMP152      0.3186
     14  N9       -17.2420  -51.5280  -39.1830 N.pl3 152  AMP152     -0.1439
     15  C8       -17.5690  -50.9640  -40.3480 C.3   152  AMP152      0.3377
     16  N7       -17.1470  -49.6740  -40.4200 N.2   152  AMP152     -0.2095
     17  C5       -16.4950  -49.3810  -39.2840 C.2   152  AMP152      0.2526
     18  C6       -15.7920  -48.1610  -38.7410 C.2   152  AMP152      0.4393
     19  N6       -15.7020  -46.9770  -39.4440 N.pl3 152  AMP152      0.2180
     20  N1       -15.2320  -48.2930  -37.5170 N.2   152  AMP152      0.0021
     21  C2       -15.3120  -49.4740  -36.8300 C.3   152  AMP152      0.5254
     22  N3       -15.9290  -50.6210  -37.2520 N.2   152  AMP152     -0.0055
     23  C4       -16.5470  -50.6280  -38.4680 C.2   152  AMP152      0.3518
@<TRIPOS>BOND
     1     2     1    2
     2     4     1    1
     3     1     3    1
     4     1     5    1
     5     5     6    1
     6    16    15    1
     7    16    17    2
     8    15    14    1
     9     6     7    1
    10     8     7    1
    11     8    13    1
    12    19    18    1
    13    17    18    1
    14    17    23    1
    15     7     9    1
    16    14    13    1
    17    14    23    1
    18    13    11    1
    19    18    20    2
    20    23    22    2
    21     9    11    1
    22     9    10    1
    23    20    21    1
    24    11    12    1
    25    22    21    1
