@<TRIPOS>MOLECULE
3ngu_ADP_A_1.pdb
 27 29 0 0 0
SMALL
GASTEIGER

@<TRIPOS>ATOM
      1  PB       -15.8850   -9.1920   -5.7320 P.3   152  ADP152      0.5373
      2  O1B      -15.3600  -10.5010   -5.1020 O.3   152  ADP152     -0.1143
      3  O2B      -14.7330   -8.1780   -5.8550 O.3   152  ADP152     -0.1143
      4  O3B      -16.5090   -9.2080   -7.1430 O.2   152  ADP152     -0.2221
      5  PA       -18.2540   -9.3450   -3.9750 P.3   152  ADP152      0.2231
      6  O1A      -18.1710   -8.8770   -2.4430 O.3   152  ADP152     -0.4370
      7  O2A      -18.1560  -10.8430   -4.2040 O.2   152  ADP152     -0.5169
      8  O3A      -16.9470   -8.5830   -4.6930 O.3   152  ADP152     -0.2261
      9  O5'      -19.4500   -8.6020   -4.8180 O.3   152  ADP152     -0.3111
     10  C5'      -19.8080   -9.2180   -6.1180 C.3   152  ADP152      0.1813
     11  C4'      -20.3520   -8.1630   -7.0900 C.3   152  ADP152      0.1821
     12  O4'      -21.4790   -7.5240   -6.4560 O.3   152  ADP152     -0.3135
     13  C3'      -19.5260   -6.8680   -7.2090 C.3   152  ADP152      0.2184
     14  O3'      -18.4550   -7.2190   -8.0050 O.3   152  ADP152     -0.2174
     15  C2'      -20.5220   -5.8440   -7.7550 C.3   152  ADP152      0.2570
     16  O2'      -20.8330   -6.0780   -9.1550 O.3   152  ADP152     -0.2130
     17  C1'      -21.7580   -6.2480   -6.8880 C.3   152  ADP152      0.3186
     18  N9       -21.6910   -5.4950   -5.6420 N.pl3 152  ADP152     -0.1439
     19  C8       -20.8670   -5.7030   -4.5620 C.3   152  ADP152      0.3377
     20  N7       -20.9560   -4.7020   -3.6130 N.2   152  ADP152     -0.2095
     21  C5       -21.9150   -3.8300   -4.0980 C.2   152  ADP152      0.2526
     22  C6       -22.5790   -2.5710   -3.6530 C.2   152  ADP152      0.4393
     23  N6       -22.2810   -1.9600   -2.4540 N.pl3 152  ADP152      0.2180
     24  N1       -23.4710   -2.0530   -4.5600 N.2   152  ADP152      0.0021
     25  C2       -23.8430   -2.5830   -5.7440 C.3   152  ADP152      0.5254
     26  N3       -23.2840   -3.6890   -6.1810 N.2   152  ADP152     -0.0055
     27  C4       -22.3510   -4.3320   -5.4520 C.2   152  ADP152      0.3518
@<TRIPOS>BOND
     1    16    15    1
     2    14    13    1
     3    15    13    1
     4    15    17    1
     5    13    11    1
     6     4     1    2
     7    11    12    1
     8    11    10    1
     9    17    12    1
    10    17    18    1
    11    26    25    1
    12    26    27    2
    13    10     9    1
    14     3     1    1
    15    25    24    1
    16     1     2    1
    17     1     8    1
    18    18    27    1
    19    18    19    1
    20    27    21    1
    21     9     5    1
    22     8     5    1
    23    19    20    1
    24    24    22    2
    25     7     5    2
    26    21    22    1
    27    21    20    2
    28     5     6    1
    29    22    23    1
