@<TRIPOS>MOLECULE
3ngz_NUC_C_1.pdb
 41 45 0 0 0
SMALL
GASTEIGER

@<TRIPOS>ATOM
      1  P        -20.8630  -27.5930    7.0790 P.3     1  DG1         0.3942
      2  OP1      -21.9100  -26.5420    6.9710 O.3     1  DG1        -0.1425
      3  OP2      -21.2410  -29.0280    7.1110 O.3     1  DG1        -0.1425
      4  O5'      -19.7780  -27.3800    5.9190 O.3     1  DG1        -0.2926
      5  C5'      -20.2130  -27.3360    4.5680 C.3     1  DG1         0.1828
      6  C4'      -21.5850  -26.6830    4.5090 C.3     1  DG1         0.1745
      7  O4'      -21.4420  -25.2540    4.2940 O.3     1  DG1        -0.3348
      8  C3'      -22.5110  -27.2510    3.4440 C.3     1  DG1         0.1555
      9  O3'      -23.5310  -28.0150    4.1130 O.3     1  DG1        -0.3139
     10  C2'      -23.0450  -26.0170    2.7050 C.3     1  DG1         0.0836
     11  C1'      -22.1830  -24.8320    3.1720 C.3     1  DG1         0.1980
     12  N9       -21.2420  -24.3450    2.1670 N.pl3   1  DG1        -0.2374
     13  C8       -21.2260  -23.1180    1.5500 C.3     1  DG1         0.2245
     14  N7       -20.2580  -22.9890    0.6800 N.2     1  DG1        -0.2322
     15  C5       -19.5950  -24.2100    0.7280 C.2     1  DG1         0.2182
     16  C6       -18.4630  -24.6670    0.0120 C.1     1  DG1         0.2372
     17  O6       -17.8050  -24.0550   -0.8380 O.2     1  DG1        -0.2069
     18  N1       -18.1140  -25.9750    0.3670 N.2     1  DG1        -0.2485
     19  C2       -18.7800  -26.7450    1.2980 C.1     1  DG1         0.2531
     20  N2       -18.3080  -27.9820    1.5180 N.pl3   1  DG1        -0.0226
     21  N3       -19.8430  -26.3240    1.9700 N.2     1  DG1        -0.3074
     22  C4       -20.1900  -25.0550    1.6360 C.2     1  DG1         0.2299
     23  P        -23.6170  -29.6300    3.9920 P.3     2  DC2         0.2141
     24  OP1      -24.6550  -30.0700    4.9470 O.3     2  DC2        -0.4373
     25  OP2      -22.2720  -30.2200    4.0230 O.2     2  DC2        -0.5172
     26  O5'      -24.1760  -29.8340    2.5090 O.3     2  DC2        -0.3114
     27  C5'      -25.3610  -29.1720    2.0720 C.3     2  DC2         0.1812
     28  C4'      -25.4430  -29.3250    0.5740 C.3     2  DC2         0.1773
     29  O4'      -24.1910  -28.8740    0.0090 O.3     2  DC2        -0.3339
     30  C3'      -25.4980  -30.7700    0.1140 C.3     2  DC2         0.1857
     31  O3'      -26.8140  -31.2750    0.2260 O.3     2  DC2        -0.2203
     32  C2'      -25.0560  -30.6000   -1.3310 C.3     2  DC2         0.0874
     33  C1'      -23.9080  -29.6050   -1.1620 C.3     2  DC2         0.2090
     34  N1       -22.5640  -30.2530   -1.0090 N.am    2  DC2        -0.1802
     35  C2       -21.8830  -30.6670   -2.1580 C.1     2  DC2         0.2756
     36  O2       -22.3870  -30.4860   -3.2800 O.2     2  DC2        -0.1925
     37  N3       -20.6770  -31.2550   -2.0130 N.2     2  DC2        -0.3024
     38  C4       -20.1580  -31.4350   -0.8040 C.2     2  DC2         0.2346
     39  N4       -18.9610  -32.0290   -0.7470 N.pl3   2  DC2        -0.0921
     40  C5       -20.8430  -31.0290    0.3820 C.2     2  DC2         0.0687
     41  C6       -22.0350  -30.4470    0.2290 C.2     2  DC2         0.0835
@<TRIPOS>BOND
     1    36    35    2
     2    35    37    2
     3    35    34   am
     4    37    38    2
     5    32    33    1
     6    32    30    1
     7    33    34    1
     8    33    29    1
     9    34    41    1
    10    17    16    2
    11    38    39    1
    12    38    40    1
    13    29    28    1
    14    16    18    2
    15    16    15    1
    16    30    31    1
    17    30    28    1
    18    41    40    2
    19    18    19    2
    20    28    27    1
    21    14    15    2
    22    14    13    1
    23    15    22    1
    24    19    20    1
    25    19    21    2
    26    13    12    1
    27    22    21    2
    28    22    12    1
    29    27    26    1
    30    12    11    1
    31    26    23    1
    32    10    11    1
    33    10     8    1
    34    11     7    1
    35     8     9    1
    36     8     6    1
    37    23    25    2
    38    23     9    1
    39    23    24    1
    40     7     6    1
    41     6     5    1
    42     5     4    1
    43     4     1    1
    44     2     1    1
    45     1     3    1
