@<TRIPOS>MOLECULE
3nh3_GP7_X_1.pdb
 43 42 0 0 0
SMALL
GASTEIGER

@<TRIPOS>ATOM
      1  P        -54.1270    7.4970   84.4100 P.3   435  GP7435      0.5327
      2  C1       -53.5100    6.4270   81.8980 C.3   435  GP7435      0.2010
      3  C2       -52.0640    5.9860   81.5640 C.3   435  GP7435      0.2422
      4  O2       -51.5930    6.4500   80.2940 O.3   435  GP7435     -0.4457
      5  C3       -51.8240    4.4860   81.4890 C.3   435  GP7435      0.2543
      6  O3       -50.4010    4.4450   81.3290 O.3   435  GP7435     -0.4444
      7  C11      -49.5120    3.4510   81.8860 C.2   435  GP7435      0.3171
      8  O11      -49.8530    2.2960   81.7500 O.2   435  GP7435     -0.2501
      9  C12      -48.2240    3.8260   82.5790 C.3   435  GP7435      0.1096
     10  C13      -47.2840    2.6310   82.7730 C.3   435  GP7435      0.0120
     11  C14      -46.0280    2.6890   81.8710 C.3   435  GP7435      0.0052
     12  C15      -44.6480    2.7270   82.5540 C.3   435  GP7435      0.0257
     13  C16      -43.5900    1.9990   81.7220 C.2   435  GP7435     -0.0307
     14  C17      -42.2060    2.6510   81.6890 C.2   435  GP7435     -0.0307
     15  C18      -41.1170    2.0430   80.7710 C.3   435  GP7435      0.0257
     16  C19      -41.5090    2.2000   79.3270 C.3   435  GP7435      0.0047
     17  O1P      -55.2130    8.3900   83.8230 O.2   435  GP7435     -0.2224
     18  C20      -40.4550    2.5360   78.2920 C.3   435  GP7435      0.0003
     19  C21      -41.1900    2.5380   76.9500 C.3   435  GP7435      0.0000
     20  C22      -40.5340    2.0520   75.6600 C.3   435  GP7435      0.0000
     21  C23      -41.5890    2.0860   74.5300 C.3   435  GP7435      0.0000
     22  C24      -41.6910    0.8940   73.5280 C.3   435  GP7435      0.0000
     23  C25      -40.3720    0.0950   73.3810 C.3   435  GP7435      0.0000
     24  O2P      -54.5370    6.8460   85.7180 O.3   435  GP7435     -0.1145
     25  C31      -50.3020    7.1390   80.2320 C.2   435  GP7435      0.3171
     26  O31      -50.3040    8.3370   80.3630 O.2   435  GP7435     -0.2501
     27  C32      -49.0270    6.3830   79.9730 C.3   435  GP7435      0.1096
     28  C33      -47.8740    7.2440   79.4730 C.3   435  GP7435      0.0116
     29  C34      -48.0650    7.5830   78.0080 C.3   435  GP7435      0.0006
     30  C35      -46.7620    7.3410   77.2490 C.3   435  GP7435      0.0000
     31  C36      -47.0340    7.5930   75.7840 C.3   435  GP7435      0.0000
     32  C37      -45.8230    7.6440   74.8560 C.3   435  GP7435      0.0000
     33  C38      -44.8420    6.5050   74.8860 C.3   435  GP7435      0.0000
     34  C39      -43.7760    6.7220   73.8320 C.3   435  GP7435      0.0000
     35  O3P      -53.9160    6.2820   83.2970 O.3   435  GP7435     -0.2662
     36  C40      -42.5940    5.7310   73.8670 C.3   435  GP7435      0.0000
     37  C41      -42.0650    5.4450   72.4350 C.3   435  GP7435      0.0000
     38  C42      -41.4510    6.7510   71.9070 C.3   435  GP7435      0.0000
     39  C43      -40.3790    6.4590   70.9030 C.3   435  GP7435      0.0000
     40  C44      -39.5430    7.7110   70.6120 C.3   435  GP7435      0.0000
     41  C45      -38.6580    7.6980   69.3660 C.3   435  GP7435      0.0000
     42  C46      -37.7910    8.9600   69.2230 C.3   435  GP7435      0.0000
     43  O4P      -52.7380    8.1190   84.4930 O.3   435  GP7435     -0.1145
@<TRIPOS>BOND
     1    42    41    1
     2    41    40    1
     3    40    39    1
     4    39    38    1
     5    38    37    1
     6    37    36    1
     7    23    22    1
     8    22    21    1
     9    34    36    1
    10    34    33    1
    11    21    20    1
    12    32    33    1
    13    32    31    1
    14    20    19    1
    15    31    30    1
    16    19    18    1
    17    30    29    1
    18    29    28    1
    19    18    16    1
    20    16    15    1
    21    28    27    1
    22    27    25    1
    23    25     4    1
    24    25    26    2
    25     4     3    1
    26    15    14    1
    27     6     5    1
    28     6     7    1
    29     5     3    1
    30     3     2    1
    31    14    13    2
    32    13    12    1
    33     8     7    2
    34    11    12    1
    35    11    10    1
    36     7     9    1
    37     2    35    1
    38     9    10    1
    39    35     1    1
    40    17     1    2
    41     1    43    1
    42     1    24    1
