@<TRIPOS>MOLECULE
3nh3_HNL_X_1.pdb
 13 14 0 0 0
SMALL
GASTEIGER

@<TRIPOS>ATOM
      1  N1       -44.2120   15.2300   66.4890 N.2   433  HNL433     -0.1750
      2  C2       -44.2840   17.8840   67.2810 C.2   433  HNL433      0.0110
      3  C3       -43.1170   17.3760   66.6980 C.2   433  HNL433      0.0129
      4  C4       -43.0660   16.0290   66.3040 C.2   433  HNL433      0.1081
      5  C5       -45.4150   17.0710   67.4170 C.2   433  HNL433      0.0938
      6  C6       -45.3700   15.6970   66.9940 C.1   433  HNL433      0.1551
      7  O6       -46.3450   14.8720   67.1040 O.2   433  HNL433     -0.2219
      8  C7       -41.9170   18.2730   66.6280 C.3   433  HNL433      0.0817
      9  C8       -41.0230   18.0690   65.4520 C.3   433  HNL433      0.0220
     10  C9       -39.6210   18.6220   65.9000 C.3   433  HNL433      0.0191
     11  C10      -39.7190   18.7380   67.4340 C.3   433  HNL433      0.0724
     12  N11      -40.9760   18.0010   67.7200 N.3   433  HNL433     -0.2691
     13  C12      -41.5330   18.0810   69.1080 C.3   433  HNL433      0.0899
@<TRIPOS>BOND
     1     9    10    1
     2     9     8    1
     3    10    11    1
     4     4     1    1
     5     4     3    2
     6     1     6    2
     7     8     3    1
     8     8    12    1
     9     3     2    1
    10     6     7    2
    11     6     5    1
    12     2     5    2
    13    11    12    1
    14    12    13    1
