@<TRIPOS>MOLECULE
3nh3_HNM_X_1.pdb
 14 14 0 0 0
SMALL
GASTEIGER

@<TRIPOS>ATOM
      1  N1       -50.6510   16.2130   73.5240 N.2   436  HNM436     -0.1746
      2  C2       -50.0730   15.0990   73.9490 C.2   436  HNM436      0.1139
      3  C3       -49.7530   14.0850   73.0640 C.2   436  HNM436      0.0554
      4  C4       -50.0460   14.2340   71.7180 C.2   436  HNM436      0.0168
      5  C5       -50.6520   15.4120   71.3000 C.2   436  HNM436      0.0942
      6  C6       -50.9490   16.3970   72.2290 C.1   436  HNM436      0.1552
      7  O6       -51.5500   17.5460   71.8610 O.2   436  HNM436     -0.2219
      8  C7       -49.0820   12.8610   73.6050 C.2   436  HNM436      0.1746
      9  O7       -48.7420   12.8460   74.7700 O.2   436  HNM436     -0.2913
     10  C8       -48.8010   11.6620   72.7500 C.3   436  HNM436      0.0707
     11  C9       -49.0750   10.4340   73.6000 C.3   436  HNM436      0.0269
     12  C10      -50.2250   10.7480   74.5310 C.3   436  HNM436      0.0892
     13  N11      -49.7270   11.0710   75.8510 N.3   436  HNM436     -0.2165
     14  C12      -50.1400   12.2920   76.5100 C.3   436  HNM436      0.1075
@<TRIPOS>BOND
     1     5     4    2
     2     5     6    1
     3     4     3    1
     4     7     6    2
     5     6     1    2
     6    10    11    1
     7    10     8    1
     8     3     8    1
     9     3     2    2
    10     1     2    1
    11    11    12    1
    12     8     9    2
    13    12    13    1
    14    13    14    1
