@<TRIPOS>MOLECULE
3nh8_DC2_A_1.pdb
 14 13 0 0 0
SMALL
GASTEIGER

@<TRIPOS>ATOM
      1  O1       -10.3030  -33.7700   -9.5750 O.co2 322  DC2322     -0.2437
      2 CL1        -6.4240  -30.4500   -8.1260 Cl    322  DC2322     -0.1017
      3  C2       -10.6520  -34.2800   -8.4760 C.2   322  DC2322      0.3851
      4 CL2        -6.8340  -34.6870   -6.9940 Cl    322  DC2322     -0.1114
      5  C4       -11.2210  -33.3560   -7.3920 C.3   322  DC2322      0.2084
      6  N        -12.0600  -34.1190   -6.4710 N.am  322  DC2322     -0.1946
      7  C6       -12.8670  -35.0530   -7.2190 C.2   322  DC2322      0.2423
      8  O7       -13.5720  -34.6040   -8.3510 O.2   322  DC2322     -0.2733
      9  C8       -13.0250  -36.4780   -6.7340 C.3   322  DC2322      0.0964
     10  C9       -10.1630  -32.6630   -6.5080 C.3   322  DC2322      0.0920
     11  S10       -8.9330  -31.4390   -7.1690 S.3   322  DC2322     -0.1211
     12  C11       -7.3720  -31.9980   -8.0210 C.3   322  DC2322      0.1432
     13  C12       -6.3570  -33.0020   -7.3920 C.3   322  DC2322      0.1220
     14  OXT      -10.5860  -35.4880   -8.1890 O.co2 322  DC2322     -0.2437
@<TRIPOS>BOND
     1     1     3   ar
     2     3    14   ar
     3     3     5    1
     4     8     7    2
     5     2    12    1
     6    12    13    1
     7    12    11    1
     8     5    10    1
     9     5     6    1
    10    13     4    1
    11     7     9    1
    12     7     6   am
    13    11    10    1
