@<TRIPOS>MOLECULE
3nh9_ATP_A_1.pdb
 31 33 0 0 0
SMALL
GASTEIGER

@<TRIPOS>ATOM
      1  PG       -18.3230  -25.0500    6.8130 P.3     1  ATP1        0.5373
      2  O1G      -18.5280  -24.9650    8.2760 O.3     1  ATP1       -0.1143
      3  O2G      -18.6950  -26.3740    6.1790 O.3     1  ATP1       -0.1143
      4  O3G      -18.7830  -23.8110    6.1040 O.2     1  ATP1       -0.2221
      5  PB       -15.5200  -24.8640    7.5750 P.3     1  ATP1        0.2277
      6  O1B      -14.3080  -25.2580    6.8100 O.2     1  ATP1       -0.5168
      7  O2B      -15.6500  -23.5870    8.3520 O.3     1  ATP1       -0.4368
      8  O3B      -16.7160  -25.0960    6.5230 O.3     1  ATP1       -0.2258
      9  PA       -15.4770  -26.2520   10.0750 P.3     1  ATP1        0.2189
     10  O1A      -16.4640  -25.4920   10.9000 O.3     1  ATP1       -0.4371
     11  O2A      -14.0420  -26.0370   10.3310 O.2     1  ATP1       -0.5170
     12  O3A      -15.8360  -26.0970    8.5470 O.3     1  ATP1       -0.2700
     13  O5'      -15.7580  -27.8450   10.2210 O.3     1  ATP1       -0.3112
     14  C5'      -14.7910  -28.8390    9.9050 C.3     1  ATP1        0.1813
     15  C4'      -15.5510  -30.1760    9.9540 C.3     1  ATP1        0.1821
     16  O4'      -15.7110  -30.5300   11.3190 O.3     1  ATP1       -0.3135
     17  C3'      -16.9650  -30.0560    9.3840 C.3     1  ATP1        0.2184
     18  O3'      -17.3470  -31.2040    8.6270 O.3     1  ATP1       -0.2174
     19  C2'      -17.8710  -29.9240   10.5760 C.3     1  ATP1        0.2570
     20  O2'      -19.2110  -30.3690   10.2860 O.3     1  ATP1       -0.2130
     21  C1'      -17.0920  -30.7210   11.6130 C.3     1  ATP1        0.3186
     22  N9       -17.2630  -30.0790   12.9020 N.pl3   1  ATP1       -0.1439
     23  C8       -17.2840  -28.7530   13.1640 C.3     1  ATP1        0.3377
     24  N7       -17.5000  -28.5710   14.4590 N.2     1  ATP1       -0.2095
     25  C5       -17.6130  -29.8100   15.0250 C.2     1  ATP1        0.2526
     26  C6       -17.8200  -30.3250   16.3880 C.2     1  ATP1        0.4393
     27  N6       -17.9470  -29.4090   17.3740 N.pl3   1  ATP1        0.2180
     28  N1       -17.8500  -31.6640   16.5800 N.2     1  ATP1        0.0021
     29  C2       -17.7250  -32.5580   15.5590 C.3     1  ATP1        0.5254
     30  N3       -17.5210  -32.1530   14.2850 N.2     1  ATP1       -0.0055
     31  C4       -17.4500  -30.8090   14.0030 C.2     1  ATP1        0.3518
@<TRIPOS>BOND
     1     4     1    2
     2     3     1    1
     3     8     1    1
     4     8     5    1
     5     6     5    2
     6     1     2    1
     7     5     7    1
     8     5    12    1
     9    12     9    1
    10    18    17    1
    11    17    15    1
    12    17    19    1
    13    14    15    1
    14    14    13    1
    15    15    16    1
    16     9    13    1
    17     9    11    2
    18     9    10    1
    19    20    19    1
    20    19    21    1
    21    16    21    1
    22    21    22    1
    23    22    23    1
    24    22    31    1
    25    23    24    1
    26    31    30    2
    27    31    25    1
    28    30    29    1
    29    24    25    2
    30    25    26    1
    31    29    28    1
    32    26    28    2
    33    26    27    1
