@<TRIPOS>MOLECULE
3nha_ADP_A_1.pdb
 27 29 0 0 0
SMALL
GASTEIGER

@<TRIPOS>ATOM
      1  PB        24.1050  -13.7190  -10.2900 P.3     2  ADP2        0.5373
      2  O1B       23.9190  -12.4190   -9.5240 O.3     2  ADP2       -0.1143
      3  O2B       25.4470  -14.3740  -10.1730 O.2     2  ADP2       -0.2221
      4  O3B       23.0120  -14.7570  -10.1500 O.3     2  ADP2       -0.1143
      5  PA        24.1970  -11.9590  -12.6320 P.3     2  ADP2        0.2231
      6  O1A       25.4260  -11.3520  -12.0190 O.3     2  ADP2       -0.4370
      7  O2A       22.8950  -11.1790  -12.5960 O.2     2  ADP2       -0.5169
      8  O3A       23.9270  -13.3260  -11.8510 O.3     2  ADP2       -0.2261
      9  O5'       24.5540  -12.4430  -14.0950 O.3     2  ADP2       -0.3111
     10  C5'       23.4920  -12.8730  -14.9470 C.3     2  ADP2        0.1813
     11  C4'       24.0370  -13.2100  -16.3280 C.3     2  ADP2        0.1821
     12  O4'       24.2580  -11.9840  -17.0250 O.3     2  ADP2       -0.3135
     13  C3'       25.3670  -13.9560  -16.2450 C.3     2  ADP2        0.2184
     14  O3'       25.3660  -14.8920  -17.3010 O.3     2  ADP2       -0.2174
     15  C2'       26.4100  -12.9220  -16.5490 C.3     2  ADP2        0.2570
     16  O2'       27.4960  -13.5130  -17.2430 O.3     2  ADP2       -0.2130
     17  C1'       25.6490  -11.9240  -17.4140 C.3     2  ADP2        0.3186
     18  N9        26.0800  -10.5440  -17.1750 N.pl3   2  ADP2       -0.1439
     19  C8        26.1720   -9.9300  -15.9760 C.3     2  ADP2        0.3377
     20  N7        26.5740   -8.6530  -16.1400 N.2     2  ADP2       -0.2095
     21  C5        26.7330   -8.4730  -17.4670 C.2     2  ADP2        0.2526
     22  C6        27.1730   -7.3650  -18.2950 C.2     2  ADP2        0.4393
     23  N6        27.4720   -6.2150  -17.6370 N.pl3   2  ADP2        0.2180
     24  N1        27.2220   -7.5370  -19.6480 N.2     2  ADP2        0.0021
     25  C2        26.9040   -8.7160  -20.2320 C.3     2  ADP2        0.5254
     26  N3        26.5050   -9.8010  -19.5320 N.2     2  ADP2       -0.0055
     27  C4        26.4160   -9.7110  -18.1620 C.2     2  ADP2        0.3518
@<TRIPOS>BOND
     1    25    24    1
     2    25    26    1
     3    24    22    2
     4    26    27    2
     5    22    23    1
     6    22    21    1
     7    27    21    1
     8    27    18    1
     9    21    20    2
    10    17    18    1
    11    17    12    1
    12    17    15    1
    13    14    13    1
    14    16    15    1
    15    18    19    1
    16    12    11    1
    17    15    13    1
    18    11    13    1
    19    11    10    1
    20    20    19    1
    21    10     9    1
    22     9     5    1
    23     5     7    2
    24     5     6    1
    25     5     8    1
    26     8     1    1
    27     1     3    2
    28     1     4    1
    29     1     2    1
