@<TRIPOS>MOLECULE
3nhb_ADP_A_1.pdb
 27 29 0 0 0
SMALL
GASTEIGER

@<TRIPOS>ATOM
      1  PB       -10.1620   28.1530   -4.0820 P.3     1  ADP1        0.5373
      2  O1B      -11.4000   28.0810   -3.3040 O.3     1  ADP1       -0.1143
      3  O2B       -9.0130   28.0060   -3.1030 O.3     1  ADP1       -0.1143
      4  O3B       -9.9800   27.3230   -5.3400 O.2     1  ADP1       -0.2221
      5  PA       -10.0740   30.4010   -5.9310 P.3     1  ADP1        0.2231
      6  O1A      -11.2630   29.8220   -6.5920 O.2     1  ADP1       -0.5169
      7  O2A       -8.6990   30.4380   -6.5670 O.3     1  ADP1       -0.4370
      8  O3A      -10.0120   29.7090   -4.4710 O.3     1  ADP1       -0.2261
      9  O5'      -10.3420   31.8850   -5.3860 O.3     1  ADP1       -0.3111
     10  C5'       -9.2940   32.6590   -4.8050 C.3     1  ADP1        0.1813
     11  C4'       -9.8550   34.0310   -4.4870 C.3     1  ADP1        0.1821
     12  O4'      -10.0830   34.6960   -5.7330 O.3     1  ADP1       -0.3135
     13  C3'      -11.2150   33.8680   -3.8380 C.3     1  ADP1        0.2184
     14  O3'      -11.3780   34.8910   -2.8860 O.3     1  ADP1       -0.2174
     15  C2'      -12.2190   34.1870   -4.8970 C.3     1  ADP1        0.2570
     16  O2'      -13.2900   34.9040   -4.3090 O.3     1  ADP1       -0.2130
     17  C1'      -11.4380   35.1360   -5.7830 C.3     1  ADP1        0.3186
     18  N9       -11.8770   34.9830   -7.1570 N.pl3   1  ADP1       -0.1439
     19  C8       -11.9910   33.8060   -7.7930 C.3     1  ADP1        0.3377
     20  N7       -12.3980   33.9930   -9.0470 N.2     1  ADP1       -0.2095
     21  C5       -12.5460   35.3000   -9.2020 C.2     1  ADP1        0.2526
     22  C6       -12.9860   36.1330  -10.3220 C.2     1  ADP1        0.4393
     23  N6       -13.2900   35.4950  -11.4800 N.pl3   1  ADP1        0.2180
     24  N1       -13.0200   37.4740  -10.1280 N.2     1  ADP1        0.0021
     25  C2       -12.6900   38.0460   -8.9620 C.3     1  ADP1        0.5254
     26  N3       -12.2870   37.3460   -7.8770 N.2     1  ADP1       -0.0055
     27  C4       -12.2260   35.9800   -7.9590 C.2     1  ADP1        0.3518
@<TRIPOS>BOND
     1    23    22    1
     2    22    24    2
     3    22    21    1
     4    24    25    1
     5    21    20    2
     6    21    27    1
     7    20    19    1
     8    25    26    1
     9    27    26    2
    10    27    18    1
    11    19    18    1
    12    18    17    1
    13     6     5    2
    14     7     5    1
    15     5     9    1
    16     5     8    1
    17    17    12    1
    18    17    15    1
    19    12    11    1
    20     9    10    1
    21     4     1    2
    22    15    16    1
    23    15    13    1
    24    10    11    1
    25    11    13    1
    26     8     1    1
    27     1     2    1
    28     1     3    1
    29    13    14    1
