@<TRIPOS>MOLECULE
3nhf_VVV_A_1.pdb
 18 19 0 0 0
SMALL
GASTEIGER

@<TRIPOS>ATOM
      1  C1        -3.9670   -5.1640  -15.5130 C.2   232  VVV232      0.1740
      2  C2        -4.6580   -6.4320  -15.1520 C.2   232  VVV232      0.0629
      3  C3        -4.1050   -7.6850  -15.6090 C.2   232  VVV232      0.1559
      4  C4        -2.9010   -7.7420  -16.4570 C.3   232  VVV232      0.1931
      5  C5        -2.2870   -6.5410  -16.7920 C.2   232  VVV232      0.0501
      6  C6        -2.7760   -5.2880  -16.3520 C.2   232  VVV232      0.1710
      7  C7        -5.9280   -6.4680  -14.3380 C.2   232  VVV232     -0.0039
      8  C8        -6.4820   -7.7070  -14.0250 C.2   232  VVV232      0.1025
      9  C9        -5.8280   -8.8610  -14.5510 C.1   232  VVV232      0.2048
     10  N10       -4.7080   -8.8190  -15.2950 N.2   232  VVV232     -0.3344
     11  O11       -4.3770   -3.8870  -15.2030 O.2   232  VVV232     -0.4683
     12  C12       -5.1670   -3.3230  -14.1440 C.3   232  VVV232      0.2526
     13  O13       -2.1620   -4.1400  -16.6910 O.2   232  VVV232     -0.4686
     14  C14       -1.1300   -4.2310  -17.6540 C.3   232  VVV232      0.2526
     15  C15       -6.5130   -5.1880  -13.8390 C.3   232  VVV232      0.0320
     16  O16       -6.2630  -10.0370  -14.3240 O.2   232  VVV232     -0.2093
     17  O17       -2.4670   -9.0030  -16.8120 O.3   232  VVV232     -0.3419
     18  C18       -1.2630   -9.2400  -17.5310 C.3   232  VVV232      0.1750
@<TRIPOS>BOND
     1    14    13    1
     2    18    17    1
     3    17     4    1
     4     5     4    1
     5     5     6    2
     6    13     6    1
     7     4     3    1
     8     6     1    1
     9     3    10    2
    10     3     2    1
    11     1    11    1
    12     1     2    2
    13    10     9    2
    14    11    12    1
    15     2     7    1
    16     9    16    2
    17     9     8    1
    18     7     8    2
    19     7    15    1
