@<TRIPOS>MOLECULE
3nhg_TTP_A_1.pdb
 29 30 0 0 0
SMALL
GASTEIGER

@<TRIPOS>ATOM
      1  PA         0.0860  -10.5780   49.3770 P.3   904  TTP904      0.2189
      2  O1A        0.7560  -11.3930   48.3010 O.2   904  TTP904     -0.5170
      3  O2A        0.6410  -10.9540   50.7270 O.3   904  TTP904     -0.4371
      4  O3A       -1.4950  -10.8570   49.3600 O.3   904  TTP904     -0.2700
      5  PB        -2.6100  -10.0610   50.2130 P.3   904  TTP904      0.2277
      6  O1B       -3.1420   -8.9240   49.3900 O.2   904  TTP904     -0.5168
      7  O2B       -2.1540   -9.5760   51.5570 O.3   904  TTP904     -0.4368
      8  O3B       -3.7230  -11.1950   50.3630 O.3   904  TTP904     -0.2258
      9  PG        -3.4360  -12.5940   51.0870 P.3   904  TTP904      0.5373
     10  O1G       -2.1030  -12.5340   51.7870 O.3   904  TTP904     -0.1143
     11  O2G       -4.5390  -12.8560   52.0830 O.3   904  TTP904     -0.1143
     12  O3G       -3.4610  -13.6920   50.0550 O.2   904  TTP904     -0.2221
     13  O5'        0.2390   -9.0150   49.0230 O.3   904  TTP904     -0.3112
     14  C5'        0.1580   -7.9820   50.0030 C.3   904  TTP904      0.1812
     15  C4'       -0.2070   -6.6810   49.3110 C.3   904  TTP904      0.1773
     16  O4'        0.6430   -6.4540   48.1820 O.3   904  TTP904     -0.3339
     17  C3'       -1.5970   -6.7090   48.7150 C.3   904  TTP904      0.1857
     18  O3'       -2.6040   -6.3390   49.6580 O.3   904  TTP904     -0.2203
     19  C2'       -1.4970   -5.7320   47.5600 C.3   904  TTP904      0.0874
     20  C1'       -0.0640   -5.8730   47.0650 C.3   904  TTP904      0.2090
     21  N1        -0.1210   -6.7570   45.8770 N.am  904  TTP904     -0.1794
     22  C2        -0.4600   -6.2010   44.6160 C.1   904  TTP904      0.2844
     23  O2        -0.6770   -4.9680   44.5220 O.2   904  TTP904     -0.1918
     24  N3        -0.5490   -6.9730   43.5230 N.2   904  TTP904     -0.2455
     25  C4        -0.3240   -8.2960   43.5930 C.1   904  TTP904      0.2134
     26  O4        -0.4140   -9.0270   42.5750 O.2   904  TTP904     -0.2088
     27  C5         0.0240   -8.9080   44.9010 C.2   904  TTP904      0.0891
     28  C5M        0.2800  -10.3960   45.0380 C.3   904  TTP904      0.0462
     29  C6         0.0980   -8.0760   46.0030 C.2   904  TTP904      0.0877
@<TRIPOS>BOND
     1    26    25    2
     2    24    25    2
     3    24    22    2
     4    25    27    1
     5    23    22    2
     6    22    21   am
     7    27    28    1
     8    27    29    2
     9    21    29    1
    10    21    20    1
    11    20    19    1
    12    20    16    1
    13    19    17    1
    14    16    15    1
    15     2     1    2
    16    17    15    1
    17    17    18    1
    18    13     1    1
    19    13    14    1
    20    15    14    1
    21     4     1    1
    22     4     5    1
    23     1     3    1
    24     6     5    2
    25    12     9    2
    26     5     8    1
    27     5     7    1
    28     8     9    1
    29     9    10    1
    30     9    11    1
