@<TRIPOS>MOLECULE
3nhh_THP_A_1.pdb
 25 26 0 0 0
SMALL
GASTEIGER

@<TRIPOS>ATOM
      1  P2        17.8630   11.2570    4.8150 P.3   150  THP150      0.5327
      2  O4P       17.8620    9.7960    5.1010 O.2   150  THP150     -0.2224
      3  O5P       16.6050   12.0060    5.2290 O.3   150  THP150     -0.1145
      4  O6P       19.1550   11.9270    5.1570 O.3   150  THP150     -0.1145
      5  P1        21.2750   14.6970    1.0640 P.3   150  THP150      0.5326
      6  O1P       22.2000   15.2880    0.0600 O.2   150  THP150     -0.2224
      7  O2P       21.8850   13.5550    1.8420 O.3   150  THP150     -0.1145
      8  O3P       20.4640   15.6780    1.8560 O.3   150  THP150     -0.1145
      9  O5'       17.8130   11.3310    3.2120 O.3   150  THP150     -0.2675
     10  C5'       17.8620   12.5920    2.5280 C.3   150  THP150      0.1857
     11  C4'       18.8550   12.5280    1.3690 C.3   150  THP150      0.1748
     12  O4'       18.5090   11.3880    0.5790 O.3   150  THP150     -0.3340
     13  C3'       18.7930   13.7420    0.4410 C.3   150  THP150      0.1600
     14  O3'       20.1350   14.1000    0.0650 O.3   150  THP150     -0.2700
     15  C2'       18.0360   13.2320   -0.7810 C.3   150  THP150      0.0847
     16  C1'       18.2090   11.7220   -0.7590 C.3   150  THP150      0.2089
     17  N1        16.9250   11.1090   -1.1050 N.am  150  THP150     -0.1794
     18  C2        16.6030   10.9180   -2.4790 C.1   150  THP150      0.2844
     19  O2        17.4630   11.1920   -3.3490 O.2   150  THP150     -0.1918
     20  N3        15.4160   10.4020   -2.8560 N.2   150  THP150     -0.2455
     21  C4        14.4450   10.1580   -1.9550 C.1   150  THP150      0.2134
     22  O4        13.3210    9.7410   -2.3350 O.2   150  THP150     -0.2088
     23  C5        14.7260   10.4130   -0.5280 C.2   150  THP150      0.0891
     24  C5M       13.6920   10.1110    0.5290 C.3   150  THP150      0.0462
     25  C6        15.9940   10.8850   -0.1580 C.2   150  THP150      0.0877
@<TRIPOS>BOND
     1    19    18    2
     2    20    18    2
     3    20    21    2
     4    18    17   am
     5    22    21    2
     6    21    23    1
     7    17    16    1
     8    17    25    1
     9    15    16    1
    10    15    13    1
    11    16    12    1
    12    23    25    2
    13    23    24    1
    14     6     5    2
    15    14    13    1
    16    14     5    1
    17    13    11    1
    18    12    11    1
    19     5     7    1
    20     5     8    1
    21    11    10    1
    22    10     9    1
    23     9     1    1
    24     1     2    2
    25     1     4    1
    26     1     3    1
