@<TRIPOS>MOLECULE
3nhi_EAH_A_1.pdb
 23 22 0 0 0
SMALL
GASTEIGER

@<TRIPOS>ATOM
      1  O1        -0.6050   -5.8570   22.7740 O.co2   1  EAH1       -0.2457
      2  C1        -1.4870   -4.9750   22.6150 C.2     1  EAH1        0.3649
      3  O2        -1.5320   -3.9300   23.3090 O.co2   1  EAH1       -0.2457
      4  C2        -2.5300   -5.1860   21.5350 C.3     1  EAH1        0.1141
      5  C3        -3.7070   -4.2230   21.7060 C.3     1  EAH1        0.0144
      6  C4        -3.5220   -2.9580   20.8710 C.3     1  EAH1        0.0335
      7  C5        -4.6810   -2.0080   21.0890 C.3     1  EAH1        0.1520
      8  O3        -5.7670   -2.5060   20.4960 O.3     1  EAH1       -0.2232
      9  C6        -4.3550   -0.6360   20.5050 C.3     1  EAH1        0.0329
     10  C7        -5.5560    0.2940   20.5670 C.3     1  EAH1        0.0026
     11  C8        -6.1240    0.5090   19.1800 C.3     1  EAH1        0.0004
     12  C9        -7.3970    1.2140   19.2750 C.3     1  EAH1        0.0047
     13  C10       -8.0020    1.2610   18.0890 C.3     1  EAH1        0.0257
     14  C11       -9.2700    1.9700   18.2410 C.2     1  EAH1       -0.0304
     15  C12      -10.1590    2.1170   17.2550 C.2     1  EAH1       -0.0260
     16  C13       -9.9510    1.5850   15.8560 C.3     1  EAH1        0.0513
     17  C14       -9.3680    2.6990   15.0140 C.2     1  EAH1       -0.0260
     18  C15       -9.7440    2.9740   13.7630 C.2     1  EAH1       -0.0304
     19  C16      -10.7970    2.1920   13.0160 C.3     1  EAH1        0.0257
     20  C17      -10.1080    1.2150   12.0760 C.3     1  EAH1        0.0047
     21  C18       -9.9750   -0.1550   12.7260 C.3     1  EAH1        0.0003
     22  C19       -9.7060   -1.2180   11.6740 C.3     1  EAH1        0.0000
     23  C20       -9.4770   -2.5650   12.3200 C.3     1  EAH1        0.0000
@<TRIPOS>BOND
     1    22    23    1
     2    22    21    1
     3    20    21    1
     4    20    19    1
     5    19    18    1
     6    18    17    2
     7    17    16    1
     8    16    15    1
     9    15    14    2
    10    13    14    1
    11    13    12    1
    12    11    12    1
    13    11    10    1
    14     8     7    1
    15     9    10    1
    16     9     7    1
    17     6     7    1
    18     6     5    1
    19     4     5    1
    20     4     2    1
    21     2     1   ar
    22     2     3   ar
