@<TRIPOS>MOLECULE
3nhj_A2Z_B_1.pdb
 16 18 0 0 0
SMALL
GASTEIGER

@<TRIPOS>ATOM
      1  C1        -1.8930   -6.5670  -17.1520 C.ar  231  A2Z231      0.0044
      2  N1        -4.8890   -7.8670  -15.1200 N.ar  231  A2Z231     -0.2907
      3  O1        -3.3530   -3.3960  -15.9820 O.3   231  A2Z231     -0.4346
      4  C2        -2.8020   -7.4530  -16.5400 C.ar  231  A2Z231      0.0153
      5  O2        -4.9230   -4.7350  -14.9250 O.3   231  A2Z231     -0.4331
      6  C3        -3.9550   -6.9640  -15.7220 C.ar  231  A2Z231      0.0995
      7  O3        -5.5000  -10.0630  -14.7660 O.2   231  A2Z231     -0.2670
      8  C4        -4.0210   -5.5120  -15.5980 C.ar  231  A2Z231      0.1921
      9  C5        -3.0300   -4.6790  -16.2660 C.ar  231  A2Z231      0.1779
     10  C6        -1.9950   -5.1720  -17.0370 C.ar  231  A2Z231      0.0403
     11  C8        -4.6890   -9.2610  -15.3040 C.ar  231  A2Z231      0.2608
     12  C9        -3.6260   -9.7630  -16.0770 C.ar  231  A2Z231      0.0566
     13  C10       -2.6810   -8.9320  -16.6920 C.ar  231  A2Z231     -0.0156
     14  C12       -4.5280   -3.3490  -15.1300 C.3   231  A2Z231      0.4294
     15  C15       -1.5540   -9.5330  -17.5010 C.3   231  A2Z231      0.0312
     16  C16       -6.0210   -7.4260  -14.3010 C.3   231  A2Z231      0.1336
@<TRIPOS>BOND
     1    15    13    1
     2     1    10   ar
     3     1     4   ar
     4    10     9   ar
     5    13     4   ar
     6    13    12   ar
     7     4     6   ar
     8     9     3    1
     9     9     8   ar
    10    12    11   ar
    11     3    14    1
    12     6     8   ar
    13     6     2   ar
    14     8     5    1
    15    11     2   ar
    16    11     7    2
    17    14     5    1
    18     2    16    1
