@<TRIPOS>MOLECULE
3nhk_VAP_A_1.pdb
 19 20 0 0 0
SMALL
GASTEIGER

@<TRIPOS>ATOM
      1  C1        -2.5220   -5.9770  -16.4240 C.ar  233  VAP233      0.0414
      2  C2        -3.2980   -7.0340  -15.9630 C.ar  233  VAP233      0.0183
      3  C3        -4.3820   -6.7560  -15.1110 C.ar  233  VAP233      0.0995
      4  C4        -4.6820   -5.4380  -14.7000 C.ar  233  VAP233      0.1911
      5  C5        -3.8910   -4.4090  -15.1860 C.ar  233  VAP233      0.2075
      6  C6        -2.8350   -4.6850  -16.0330 C.ar  233  VAP233      0.1755
      7  C7        -2.9750   -8.4540  -16.3530 C.ar  233  VAP233     -0.0155
      8  C8        -3.7830   -9.4800  -15.8670 C.ar  233  VAP233      0.0566
      9  C9        -4.8430   -9.1640  -15.0050 C.ar  233  VAP233      0.2608
     10  N10       -5.1880   -7.8310  -14.6930 N.ar  233  VAP233     -0.2907
     11  O11       -5.5870  -10.0810  -14.5580 O.2   233  VAP233     -0.2670
     12  C12       -6.3610   -7.6340  -13.8120 C.3   233  VAP233      0.1336
     13  O13       -5.7390   -5.2140  -13.7970 O.3   233  VAP233     -0.4668
     14  O14       -4.1790   -3.1320  -14.7770 O.3   233  VAP233     -0.4653
     15  O15       -2.0670   -3.6760  -16.5060 O.3   233  VAP233     -0.4683
     16  C16       -1.8040   -8.8330  -17.2410 C.3   233  VAP233      0.0312
     17  C17       -1.1030   -3.8720  -17.5340 C.3   233  VAP233      0.2526
     18  C18       -4.6010   -2.0830  -15.6270 C.3   233  VAP233      0.2528
     19  C19       -6.7250   -4.1760  -13.7230 C.3   233  VAP233      0.2527
@<TRIPOS>BOND
     1    17    15    1
     2    16     7    1
     3    15     6    1
     4     1     6   ar
     5     1     2   ar
     6     7     2   ar
     7     7     8   ar
     8     6     5   ar
     9     2     3   ar
    10     8     9   ar
    11    18    14    1
    12     5    14    1
    13     5     4   ar
    14     3     4   ar
    15     3    10   ar
    16     9    10   ar
    17     9    11    2
    18     4    13    1
    19    10    12    1
    20    13    19    1
