@<TRIPOS>MOLECULE
3nhl_YTR_A_1.pdb
 17 18 0 0 0
SMALL
GASTEIGER

@<TRIPOS>ATOM
      1  C1        21.3210  -15.5150  -12.9100 C.ar  233  YTR233      0.0044
      2  C2        21.5210  -16.7410  -13.5690 C.ar  233  YTR233      0.0153
      3  C3        22.7480  -16.9880  -14.3690 C.ar  233  YTR233      0.0993
      4  C4        23.7080  -15.8950  -14.4560 C.ar  233  YTR233      0.1880
      5  C5        23.4020  -14.6310  -13.7380 C.ar  233  YTR233      0.1738
      6  C6        22.2270  -14.4880  -13.0040 C.ar  233  YTR233      0.0401
      7  C7        20.5300  -17.8500  -13.4620 C.ar  233  YTR233     -0.0156
      8  C8        20.7920  -19.0900  -14.1380 C.ar  233  YTR233      0.0566
      9  C9        21.9790  -19.2690  -14.9210 C.ar  233  YTR233      0.2608
     10  N10       22.9560  -18.2400  -15.0400 N.ar  233  YTR233     -0.2907
     11  O11       22.2350  -20.3650  -15.5400 O.2   233  YTR233     -0.2670
     12  C12       24.1580  -18.5040  -15.8530 C.3   233  YTR233      0.1336
     13  C13       19.2870  -17.5980  -12.6250 C.3   233  YTR233      0.0312
     14  O14       24.8700  -16.0300  -15.1880 O.3   233  YTR233     -0.4669
     15  C15       26.1530  -16.2400  -14.5520 C.3   233  YTR233      0.2527
     16  O16       24.3590  -13.6450  -13.8880 O.3   233  YTR233     -0.4683
     17  C17       24.3050  -12.3270  -13.3080 C.3   233  YTR233      0.2526
@<TRIPOS>BOND
     1    12    10    1
     2    11     9    2
     3    14    15    1
     4    14     4    1
     5    10     9   ar
     6    10     3   ar
     7     9     8   ar
     8     4     3   ar
     9     4     5   ar
    10     3     2   ar
    11     8     7   ar
    12    16     5    1
    13    16    17    1
    14     5     6   ar
    15     2     7   ar
    16     2     1   ar
    17     7    13    1
    18     6     1   ar
