@<TRIPOS>MOLECULE
3nho_GP7_X_1.pdb
 43 42 0 0 0
SMALL
GASTEIGER

@<TRIPOS>ATOM
      1  P        -53.5710    6.5350   85.1000 P.3   435  GP7435      0.5327
      2  C1       -54.0270    5.4490   82.6630 C.3   435  GP7435      0.2010
      3  C2       -52.5710    5.8450   82.3720 C.3   435  GP7435      0.2422
      4  O2       -52.4980    6.9970   81.4910 O.3   435  GP7435     -0.4457
      5  C3       -51.8380    4.6120   81.8430 C.3   435  GP7435      0.2543
      6  O3       -50.4520    4.7150   82.1600 O.3   435  GP7435     -0.4444
      7  C11      -49.7030    3.5460   82.5710 C.2   435  GP7435      0.3171
      8  O11      -50.2900    2.6080   83.0740 O.2   435  GP7435     -0.2501
      9  C12      -48.2110    3.5210   82.3740 C.3   435  GP7435      0.1096
     10  C13      -47.5890    2.6760   83.4830 C.3   435  GP7435      0.0116
     11  C14      -46.0920    2.9570   83.7160 C.3   435  GP7435      0.0006
     12  C15      -45.1470    2.3500   82.6650 C.3   435  GP7435      0.0000
     13  C16      -43.6870    2.6810   82.9670 C.3   435  GP7435      0.0000
     14  C17      -42.7560    1.8240   82.1060 C.3   435  GP7435      0.0000
     15  C18      -41.9500    2.5980   81.0700 C.3   435  GP7435      0.0000
     16  C19      -41.5910    1.6960   79.9100 C.3   435  GP7435      0.0000
     17  O1P      -53.4640    7.8750   84.3920 O.2   435  GP7435     -0.2224
     18  C20      -41.2340    2.5340   78.7010 C.3   435  GP7435      0.0000
     19  C21      -42.1320    2.1340   77.5600 C.3   435  GP7435      0.0000
     20  C22      -41.4240    2.4750   76.2590 C.3   435  GP7435      0.0000
     21  C23      -42.3590    2.3180   75.0500 C.3   435  GP7435      0.0000
     22  C24      -42.3690    0.8710   74.5240 C.3   435  GP7435      0.0000
     23  C25      -41.0990    0.4380   73.7990 C.3   435  GP7435      0.0000
     24  O2P      -54.4490    6.5940   86.3270 O.3   435  GP7435     -0.1145
     25  C31      -51.1620    7.4580   81.0290 C.2   435  GP7435      0.3171
     26  O31      -50.8760    8.6430   81.2160 O.2   435  GP7435     -0.2501
     27  C32      -50.1870    6.5280   80.2920 C.3   435  GP7435      0.1096
     28  C33      -48.6690    7.0100   80.2610 C.3   435  GP7435      0.0117
     29  C34      -48.4160    7.6900   78.8940 C.3   435  GP7435      0.0009
     30  C35      -47.3720    7.0650   77.9190 C.3   435  GP7435      0.0047
     31  C36      -47.4160    7.8410   76.4510 C.3   435  GP7435      0.0257
     32  C37      -45.9980    7.9180   75.8330 C.2   435  GP7435     -0.0307
     33  C38      -45.3290    6.7770   74.8900 C.2   435  GP7435     -0.0307
     34  C39      -43.9190    7.0570   74.3170 C.3   435  GP7435      0.0257
     35  O3P      -54.3140    5.4940   84.0790 O.3   435  GP7435     -0.2662
     36  C40      -43.0950    5.7380   74.1210 C.3   435  GP7435      0.0047
     37  C41      -42.0780    5.9360   72.8310 C.3   435  GP7435      0.0003
     38  C42      -41.4530    7.2820   72.4800 C.3   435  GP7435      0.0000
     39  C43      -40.2380    7.0520   71.5940 C.3   435  GP7435      0.0000
     40  C44      -39.9130    8.2700   70.7050 C.3   435  GP7435      0.0000
     41  C45      -38.4010    8.2820   70.2790 C.3   435  GP7435      0.0000
     42  C46      -37.8520    9.7390   70.1740 C.3   435  GP7435      0.0000
     43  O4P      -52.2570    5.8350   85.3180 O.3   435  GP7435     -0.1145
@<TRIPOS>BOND
     1    42    41    1
     2    41    40    1
     3    40    39    1
     4    39    38    1
     5    38    37    1
     6    37    36    1
     7    23    22    1
     8    36    34    1
     9    34    33    1
    10    22    21    1
    11    33    32    2
    12    21    20    1
    13    32    31    1
    14    20    19    1
    15    31    30    1
    16    19    18    1
    17    30    29    1
    18    18    16    1
    19    29    28    1
    20    16    15    1
    21    28    27    1
    22    27    25    1
    23    25    26    2
    24    25     4    1
    25    15    14    1
    26     4     3    1
    27     5     6    1
    28     5     3    1
    29    14    13    1
    30     6     7    1
    31     3     2    1
    32     9     7    1
    33     9    10    1
    34     7     8    2
    35     2    35    1
    36    12    13    1
    37    12    11    1
    38    10    11    1
    39    35     1    1
    40    17     1    2
    41     1    43    1
    42     1    24    1
