@<TRIPOS>MOLECULE
3nho_HNM_X_1.pdb
 14 14 0 0 0
SMALL
GASTEIGER

@<TRIPOS>ATOM
      1  N1       -43.6140   16.2530   66.7620 N.2   433  HNM433     -0.1746
      2  C2       -42.3380   16.6710   66.6290 C.2   433  HNM433      0.1139
      3  C3       -41.8290   17.7180   67.4020 C.2   433  HNM433      0.0554
      4  C4       -42.6100   18.3270   68.3550 C.2   433  HNM433      0.0168
      5  C5       -43.9300   17.8940   68.4620 C.2   433  HNM433      0.0942
      6  C6       -44.4180   16.8540   67.6710 C.1   433  HNM433      0.1552
      7  O6       -45.7140   16.4960   67.8720 O.2   433  HNM433     -0.2219
      8  C7       -40.4130   18.1330   67.3400 C.2   433  HNM433      0.1746
      9  O7       -39.9220   19.0500   67.9570 O.2   433  HNM433     -0.2913
     10  C8       -39.4780   17.2390   66.6580 C.3   433  HNM433      0.0707
     11  C9       -38.8730   16.5020   67.8170 C.3   433  HNM433      0.0269
     12  C10      -37.5850   15.9850   67.2590 C.3   433  HNM433      0.0892
     13  N11      -36.5730   16.9420   67.5660 N.3   433  HNM433     -0.2165
     14  C12      -35.3190   16.4760   67.0130 C.3   433  HNM433      0.1075
@<TRIPOS>BOND
     1     2     1    1
     2     2     3    2
     3    10     8    1
     4    10    11    1
     5     1     6    2
     6    14    13    1
     7    12    13    1
     8    12    11    1
     9     8     3    1
    10     8     9    2
    11     3     4    1
    12     6     7    2
    13     6     5    1
    14     4     5    2
