@<TRIPOS>MOLECULE
3nhp_HGZ_A_1.pdb
 18 19 0 0 0
SMALL
GASTEIGER

@<TRIPOS>ATOM
      1  C1        22.4900  -15.6040  -13.5090 C.ar  233  HGZ233      0.0422
      2  C2        22.3200  -16.8910  -14.0060 C.ar  233  HGZ233      0.0300
      3  C3        23.3200  -17.4630  -14.9660 C.ar  233  HGZ233      0.1804
      4  C4        24.4690  -16.6880  -15.4290 C.ar  233  HGZ233      0.2056
      5  C5        24.6130  -15.3240  -14.9020 C.ar  233  HGZ233      0.2087
      6  C6        23.5710  -14.8420  -13.9420 C.ar  233  HGZ233      0.1756
      7  C7        21.1700  -17.7310  -13.6000 C.2   233  HGZ233     -0.0237
      8  C8        21.1130  -19.0160  -14.1700 C.3   233  HGZ233      0.1569
      9  C9        22.1090  -19.4580  -15.0770 C.1   233  HGZ233      0.1845
     10  N10       23.1620  -18.6940  -15.4440 N.2   233  HGZ233     -0.3329
     11  O11       22.0600  -20.6000  -15.5830 O.2   233  HGZ233     -0.2138
     12  C12       20.0980  -17.2120  -12.6250 C.3   233  HGZ233      0.0276
     13  O13       25.3680  -17.2060  -16.3300 O.3   233  HGZ233     -0.4657
     14  C14       26.3150  -18.2080  -15.9550 C.3   233  HGZ233      0.2528
     15  O15       25.6910  -14.5340  -15.2770 O.3   233  HGZ233     -0.4653
     16  C16       26.3000  -14.4670  -16.5810 C.3   233  HGZ233      0.2528
     17  O17       23.6410  -13.6030  -13.4030 O.3   233  HGZ233     -0.4683
     18  C18       22.6180  -13.2930  -12.4660 C.3   233  HGZ233      0.2526
@<TRIPOS>BOND
     1    16    15    1
     2    13    14    1
     3    13     4    1
     4    11     9    2
     5    10     9    2
     6    10     3    2
     7     4     3   ar
     8     4     5   ar
     9    15     5    1
    10     9     8    1
    11     3     2   ar
    12     5     6   ar
    13     8     7    1
    14     2     7    2
    15     2     1   ar
    16     6     1   ar
    17     6    17    1
    18     7    12    1
    19    17    18    1
