@<TRIPOS>MOLECULE
3nhq_BLA_A_1.pdb
 43 46 0 0 0
SMALL
GASTEIGER

@<TRIPOS>ATOM
      1  CHA      -18.2200   23.9750  106.5810 C.3   900  BLA900      0.1170
      2  NA       -17.5440   25.8790  105.1470 N.2   900  BLA900     -0.4104
      3  C1A      -18.2150   24.7590  105.4330 C.2   900  BLA900      0.1114
      4  C2A      -19.0140   24.4230  104.3390 C.2   900  BLA900      0.0024
      5  C3A      -18.7680   25.3980  103.3930 C.2   900  BLA900      0.0021
      6  C4A      -17.8540   26.2960  103.9190 C.2   900  BLA900      0.1114
      7  CMA      -19.4010   25.4730  102.0020 C.3   900  BLA900      0.0331
      8  CAA      -19.9430   23.2170  104.2210 C.3   900  BLA900      0.0402
      9  CBA      -21.2820   23.4430  104.9290 C.3   900  BLA900      0.1188
     10  CGA      -22.0670   24.6070  104.3270 C.2   900  BLA900      0.3652
     11  O1A      -22.6270   25.4040  105.1160 O.co2 900  BLA900     -0.2456
     12  O2A      -22.1220   24.6460  103.0810 O.co2 900  BLA900     -0.2456
     13  CHB      -17.2980   27.5250  103.2240 C.3   900  BLA900      0.1181
     14  NB       -17.0940   29.1630  101.2990 N.2   900  BLA900     -0.3375
     15  C1B      -17.8380   28.5060  102.1960 C.2   900  BLA900      0.1254
     16  C2B      -19.1700   28.8690  102.0060 C.2   900  BLA900      0.0128
     17  C3B      -19.2060   29.7920  100.9790 C.2   900  BLA900      0.0706
     18  C4B      -17.8960   29.9450  100.5600 C.1   900  BLA900      0.2000
     19  CMB      -20.3740   28.3910  102.8030 C.3   900  BLA900      0.0339
     20  OB       -17.5160   30.6650   99.6500 O.2   900  BLA900     -0.2096
     21  CAB      -20.3450   30.4000  100.4870 C.3   900  BLA900      0.0390
     22  CBB      -20.3060   31.3180   99.4440 C.3   900  BLA900      0.0058
     23  NC       -14.2440   27.4950  107.4170 N.2   900  BLA900     -0.3375
     24  C1C      -13.4560   28.4360  106.9050 C.1   900  BLA900      0.2000
     25  C2C      -12.1440   28.1860  107.2760 C.2   900  BLA900      0.0710
     26  C3C      -12.1450   27.0320  108.0360 C.2   900  BLA900      0.0125
     27  C4C      -13.4800   26.6380  108.1020 C.2   900  BLA900      0.1254
     28  CMC      -10.9170   29.0270  106.9180 C.3   900  BLA900      0.0445
     29  OC       -13.8460   29.3820  106.2240 O.2   900  BLA900     -0.2096
     30  CAC      -10.9480   26.3280  108.6820 C.3   900  BLA900      0.0291
     31  CBC      -10.0650   27.2920  109.4800 C.3   900  BLA900      0.0051
     32  CHD      -13.9960   25.4100  108.8250 C.3   900  BLA900      0.1181
     33  ND       -16.0780   24.9290  107.4080 N.2   900  BLA900     -0.4104
     34  C1D      -15.3050   24.7180  108.4750 C.2   900  BLA900      0.1114
     35  C2D      -15.9040   23.7350  109.2300 C.2   900  BLA900      0.0021
     36  C3D      -17.0660   23.3500  108.6050 C.2   900  BLA900      0.0024
     37  C4D      -17.1450   24.1250  107.4520 C.2   900  BLA900      0.1114
     38  CMD      -15.3670   23.1710  110.5420 C.3   900  BLA900      0.0331
     39  CAD      -18.0310   22.2800  109.1020 C.3   900  BLA900      0.0402
     40  CBD      -18.9770   22.8210  110.1620 C.3   900  BLA900      0.1188
     41  CGD      -19.9080   21.7110  110.6370 C.2   900  BLA900      0.3652
     42  O1D      -19.4830   20.9880  111.5670 O.co2 900  BLA900     -0.2456
     43  O2D      -21.0190   21.6220  110.0620 O.co2 900  BLA900     -0.2456
@<TRIPOS>BOND
     1    22    21    1
     2    20    18    2
     3    21    17    1
     4    18    17    1
     5    18    14    2
     6    17    16    2
     7    14    15    2
     8     7     5    1
     9    16    15    1
    10    16    19    1
    11    15    13    1
    12    12    10   ar
    13    13     6    1
    14     5     6    1
    15     5     4    2
    16     6     2    2
    17     8     4    1
    18     8     9    1
    19    10     9    1
    20    10    11   ar
    21     4     3    1
    22     2     3    2
    23     3     1    1
    24    29    24    2
    25     1    37    1
    26    24    25    1
    27    24    23    2
    28    28    25    1
    29    25    26    2
    30    33    37    2
    31    33    34    2
    32    23    27    2
    33    37    36    1
    34    26    27    1
    35    26    30    1
    36    27    32    1
    37    34    32    1
    38    34    35    1
    39    36    39    1
    40    36    35    2
    41    30    31    1
    42    39    40    1
    43    35    38    1
    44    43    41   ar
    45    40    41    1
    46    41    42   ar
