@<TRIPOS>MOLECULE
3nhr_RZW_A_1.pdb
 19 20 0 0 0
SMALL
GASTEIGER

@<TRIPOS>ATOM
      1  C1        -4.5640   -6.6330  -15.1150 C.ar  233  RZW233      0.0521
      2  C2        -3.8930   -7.8470  -15.6180 C.ar  233  RZW233      0.0994
      3  C3        -2.6460   -7.7880  -16.4220 C.ar  233  RZW233      0.1576
      4  C4        -2.1400   -6.5450  -16.7140 C.ar  233  RZW233      0.0784
      5  C5        -2.7380   -5.3770  -16.2590 C.ar  233  RZW233      0.1755
      6  C6        -3.9210   -5.3480  -15.4260 C.ar  233  RZW233      0.1736
      7  N7        -4.4850   -9.0840  -15.3060 N.ar  233  RZW233     -0.2907
      8  C8        -5.6380   -9.0990  -14.5230 C.ar  233  RZW233      0.2608
      9  C9        -6.2910   -7.9610  -14.0130 C.ar  233  RZW233      0.0567
     10  C10       -5.7970   -6.6890  -14.2810 C.ar  233  RZW233     -0.0126
     11  C11       -6.4840   -5.4350  -13.7260 C.3   233  RZW233      0.0313
     12  O12       -6.0380  -10.2490  -14.2520 O.2   233  RZW233     -0.2670
     13  C13       -3.9360  -10.3580  -15.7500 C.3   233  RZW233      0.1336
     14  O14       -2.0760   -8.9720  -16.8360 O.3   233  RZW233     -0.4699
     15  C15       -0.8210   -9.1080  -17.4930 C.3   233  RZW233      0.2525
     16  O16       -2.2220   -4.1800  -16.5910 O.3   233  RZW233     -0.4683
     17  C17       -1.2440   -4.1920  -17.6460 C.3   233  RZW233      0.2526
     18  O18       -4.4670   -4.1330  -15.0600 O.3   233  RZW233     -0.4683
     19  C19       -5.1730   -3.4030  -16.0760 C.3   233  RZW233      0.2526
@<TRIPOS>BOND
     1    17    16    1
     2    15    14    1
     3    14     3    1
     4     4     3   ar
     5     4     5   ar
     6    16     5    1
     7     3     2   ar
     8     5     6   ar
     9    19    18    1
    10    13     7    1
    11     2     7   ar
    12     2     1   ar
    13     6     1   ar
    14     6    18    1
    15     7     8   ar
    16     1    10   ar
    17     8    12    2
    18     8     9   ar
    19    10     9   ar
    20    10    11    1
