@<TRIPOS>MOLECULE
3nhs_MZX_B_1.pdb
 16 17 0 0 0
SMALL
GASTEIGER

@<TRIPOS>ATOM
      1  C1        -4.8150   -7.6940  -15.0450 C.2   233  MZX233      0.1265
      2  C2        -3.9020   -6.9160  -15.7700 C.3   233  MZX233      0.1320
      3  C3        -3.9780   -5.5230  -15.6760 C.2   233  MZX233      0.1661
      4  C4        -4.9070   -4.8990  -14.8720 C.2   233  MZX233      0.1656
      5  C5        -5.8250   -5.6700  -14.1310 C.2   233  MZX233      0.0420
      6  C6        -5.7700   -7.0620  -14.2270 C.2   233  MZX233      0.0363
      7  C7        -2.8360   -7.4480  -16.6670 C.2   233  MZX233     -0.0178
      8  C8        -2.0430   -6.5600  -17.3390 C.2   233  MZX233      0.0989
      9  C9        -2.1970   -5.2170  -17.1690 C.1   233  MZX233      0.2046
     10  N10       -3.1540   -4.7290  -16.3600 N.2   233  MZX233     -0.3335
     11  O11       -4.7180   -9.0820  -15.1290 O.2   233  MZX233     -0.4750
     12  O12       -4.8490   -3.5250  -14.9270 O.2   233  MZX233     -0.4691
     13  C13       -5.3310   -2.5760  -13.9510 C.3   233  MZX233      0.2526
     14  C14       -5.6240  -10.0210  -14.5620 C.3   233  MZX233      0.2520
     15  C15       -2.5140   -8.8850  -16.9830 C.3   233  MZX233      0.0280
     16  O17       -1.4160   -4.4640  -17.8010 O.2   233  MZX233     -0.2093
@<TRIPOS>BOND
     1    16     9    2
     2     8     9    1
     3     8     7    2
     4     9    10    2
     5    15     7    1
     6     7     2    1
     7    10     3    2
     8     2     3    1
     9     2     1    1
    10     3     4    1
    11    11     1    1
    12    11    14    1
    13     1     6    2
    14    12     4    1
    15    12    13    1
    16     4     5    2
    17     6     5    1
