@<TRIPOS>MOLECULE
3nht_U46_A_1.pdb
 25 27 0 0 0
SMALL
GASTEIGER

@<TRIPOS>ATOM
      1  OAX        0.0280   -6.6550   23.0350 O.co2   1  U461       -0.2457
      2  CAW       -0.6280   -5.5810   23.6480 C.2     1  U461        0.3649
      3  OAY       -0.3200   -5.1720   24.9380 O.co2   1  U461       -0.2457
      4  CAR       -1.7270   -4.7840   22.9180 C.3     1  U461        0.1144
      5  CAQ       -2.3030   -5.6130   21.7680 C.3     1  U461        0.0165
      6  CAP       -3.3340   -4.7500   21.0330 C.3     1  U461        0.0263
      7  CAO       -4.5490   -4.5940   21.9570 C.2     1  U461       -0.0307
      8  CAN       -5.3940   -3.4540   21.7040 C.2     1  U461       -0.0307
      9  CAF       -5.1770   -2.3960   20.6070 C.3     1  U461        0.0262
     10  CAD       -5.4630   -1.0280   21.2470 C.3     1  U461        0.0132
     11  CAC       -4.5160   -0.7030   22.4090 C.3     1  U461        0.0327
     12  CAB       -4.0880    0.7330   22.3090 C.3     1  U461        0.0571
     13  CAT       -3.0730   -0.6040   21.9390 C.3     1  U461        0.1176
     14  OAS       -2.7900    0.4320   20.8820 O.3     1  U461       -0.3582
     15  CAA       -4.1430    1.1440   20.8310 C.3     1  U461        0.1214
     16  CAE       -5.1770    0.1540   20.2990 C.3     1  U461        0.0494
     17  CAG       -6.4650    0.8390   19.8410 C.2     1  U461       -0.0257
     18  CAH       -7.0360    0.4700   18.5840 C.2     1  U461        0.0061
     19  CAI       -8.3400    1.1430   18.1840 C.3     1  U461        0.1958
     20  OAU       -8.6200    2.5210   18.7590 O.3     1  U461       -0.2134
     21  CAJ       -8.6850    1.0450   16.7120 C.2     1  U461        0.0106
     22  CAK      -10.0980    1.4970   16.3430 C.2     1  U461       -0.0021
     23  CAL      -10.4960    1.4760   14.8690 C.2     1  U461       -0.0048
     24  CAM       -9.8180    2.4580   13.9190 C.2     1  U461       -0.0258
     25  CAV      -10.2130    2.3520   12.4380 C.3     1  U461        0.0307
@<TRIPOS>BOND
     1    25    24    1
     2    24    23    2
     3    23    22    1
     4    22    21    2
     5    21    19    1
     6    19    18    1
     7    19    20    1
     8    18    17    2
     9    17    16    1
    10    16    15    1
    11    16    10    1
    12     9    10    1
    13     9     8    1
    14    15    14    1
    15    15    12    1
    16    14    13    1
    17     6     5    1
    18     6     7    1
    19    10    11    1
    20     8     7    2
    21     5     4    1
    22    13    12    1
    23    13    11    1
    24    12    11    1
    25     4     2    1
    26     1     2   ar
    27     2     3   ar
