@<TRIPOS>MOLECULE
3nhu_M42_A_1.pdb
 15 17 0 0 0
SMALL
GASTEIGER

@<TRIPOS>ATOM
      1  C1        21.8110  -15.3470  -13.2160 C.2   233  M42233     -0.0120
      2  C2        21.8660  -16.6110  -13.8720 C.3   233  M42233      0.0976
      3  C3        22.9650  -17.0230  -14.7590 C.2   233  M42233      0.1661
      4  C4        23.9480  -15.9990  -14.9130 C.2   233  M42233      0.2031
      5  C5        23.8270  -14.7240  -14.2140 C.2   233  M42233      0.1784
      6  C6        22.7800  -14.3720  -13.3940 C.2   233  M42233      0.0364
      7  C7        20.8130  -17.6440  -13.7090 C.2   233  M42233     -0.0208
      8  C8        20.9510  -18.8940  -14.3800 C.2   233  M42233      0.0988
      9  C9        22.0660  -19.1660  -15.2180 C.1   233  M42233      0.2046
     10  N10       23.0440  -18.2260  -15.3850 N.2   233  M42233     -0.3335
     11  O11       24.9030  -14.0090  -14.5570 O.2   233  M42233     -0.4346
     12  C12       25.7660  -14.8080  -15.4130 C.3   233  M42233      0.4295
     13  O13       25.0900  -16.0600  -15.6290 O.2   233  M42233     -0.4323
     14  C14       19.6340  -17.3090  -12.8440 C.3   233  M42233      0.0279
     15  O15       22.1880  -20.3100  -15.8060 O.2   233  M42233     -0.2093
@<TRIPOS>BOND
     1    15     9    2
     2    13    12    1
     3    13     4    1
     4    12    11    1
     5    10     9    2
     6    10     3    2
     7     9     8    1
     8     4     3    1
     9     4     5    2
    10     3     2    1
    11    11     5    1
    12     8     7    2
    13     5     6    1
    14     2     7    1
    15     2     1    1
    16     7    14    1
    17     6     1    2
