@<TRIPOS>MOLECULE
3nhw_ZXZ_A_1.pdb
 13 14 0 0 0
SMALL
GASTEIGER

@<TRIPOS>ATOM
      1  C1        -1.8220   -7.1160  -17.3200 C.ar  233  ZXZ233      0.0011
      2  C2        -2.7030   -7.9600  -16.5970 C.ar  233  ZXZ233      0.0121
      3  C3        -3.8080   -7.3790  -15.8660 C.ar  233  ZXZ233      0.0622
      4  C4        -3.9460   -5.9710  -15.8430 C.ar  233  ZXZ233      0.0173
      5  C5        -3.0610   -5.1280  -16.5480 C.ar  233  ZXZ233      0.0015
      6  C6        -2.0020   -5.7340  -17.2890 C.ar  233  ZXZ233      0.0001
      7  C7        -2.5470   -9.4350  -16.6570 C.ar  233  ZXZ233     -0.0157
      8  C8        -3.4560  -10.2520  -16.0110 C.ar  233  ZXZ233      0.0565
      9  C9        -4.4740   -9.6890  -15.2500 C.ar  233  ZXZ233      0.2607
     10  N10       -4.7230   -8.3100  -15.2030 N.ar  233  ZXZ233     -0.2935
     11  C11       -1.3800   -9.9920  -17.4440 C.3   233  ZXZ233      0.0312
     12  C12       -5.8400   -7.7760  -14.4290 C.3   233  ZXZ233      0.1335
     13  O13       -5.2400  -10.4410  -14.6510 O.2   233  ZXZ233     -0.2670
@<TRIPOS>BOND
     1    11     7    1
     2     1     6   ar
     3     1     2   ar
     4     6     5   ar
     5     7     2   ar
     6     7     8   ar
     7     2     3   ar
     8     5     4   ar
     9     8     9   ar
    10     3     4   ar
    11     3    10   ar
    12     9    10   ar
    13     9    13    2
    14    10    12    1
