@<TRIPOS>MOLECULE
3nhx_ASD_A_1.pdb
 21 24 0 0 0
SMALL
GASTEIGER

@<TRIPOS>ATOM
      1  C1        27.6030   -2.8910  -14.4900 C.3   126  ASD126      0.0078
      2  C10       26.9480   -1.4850  -14.4510 C.3   126  ASD126      0.0008
      3  C11       27.4700   -0.7620  -16.8200 C.3   126  ASD126      0.0004
      4  C12       28.5360   -0.0310  -17.6340 C.3   126  ASD126      0.0069
      5  C13       28.3050    1.4250  -17.3080 C.3   126  ASD126      0.0515
      6  C14       28.6400    1.6810  -15.8690 C.3   126  ASD126      0.0070
      7  C15       28.5030    3.2090  -15.8280 C.3   126  ASD126      0.0082
      8  C16       29.2600    3.6680  -17.1080 C.3   126  ASD126      0.0645
      9  C17       29.1650    2.4490  -18.0280 C.2   126  ASD126      0.1498
     10  C18       26.8430    1.8120  -17.6050 C.3   126  ASD126      0.0073
     11  C19       25.5390   -1.5720  -15.0380 C.3   126  ASD126      0.0000
     12  C2        26.7230   -3.7370  -13.6000 C.3   126  ASD126      0.0645
     13  C3        26.5320   -3.1180  -12.1880 C.2   126  ASD126      0.1506
     14  C4        26.3430   -1.7030  -11.8820 C.3   126  ASD126      0.0645
     15  C5        26.8060   -0.9350  -12.9700 C.3   126  ASD126      0.0073
     16  C6        26.8140    0.5480  -12.7970 C.3   126  ASD126      0.0004
     17  C7        27.9480    1.1330  -13.5590 C.3   126  ASD126      0.0000
     18  C8        27.6290    0.9400  -14.9960 C.3   126  ASD126      0.0004
     19  C9        27.7580   -0.5450  -15.3260 C.3   126  ASD126      0.0000
     20  O1        26.2210   -3.9310  -11.4000 O.2   126  ASD126     -0.2961
     21  O2        29.6480    2.3290  -19.1650 O.2   126  ASD126     -0.2961
@<TRIPOS>BOND
     1    21     9    2
     2     9     5    1
     3     9     8    1
     4     4     5    1
     5     4     3    1
     6    10     5    1
     7     5     6    1
     8     8     7    1
     9     3    19    1
    10     6     7    1
    11     6    18    1
    12    19    18    1
    13    19     2    1
    14    11     2    1
    15    18    17    1
    16     1     2    1
    17     1    12    1
    18     2    15    1
    19    12    13    1
    20    17    16    1
    21    15    16    1
    22    15    14    1
    23    13    14    1
    24    13    20    2
