@<TRIPOS>MOLECULE
3nhy_A7B_A_1.pdb
 14 15 0 0 0
SMALL
GASTEIGER

@<TRIPOS>ATOM
      1  C1        -1.8040   -6.5990  -17.2610 C.ar  233  A7B233      0.0022
      2  C2        -2.6380   -7.5120  -16.6060 C.ar  233  A7B233      0.0268
      3  C3        -3.7410   -7.0250  -15.7600 C.ar  233  A7B233      0.1771
      4  C4        -3.8990   -5.5820  -15.6220 C.ar  233  A7B233      0.1690
      5  C5        -2.9970   -4.7320  -16.2800 C.ar  233  A7B233      0.0396
      6  C6        -2.0020   -5.2300  -17.0940 C.ar  233  A7B233      0.0033
      7  C7        -2.5140   -8.9830  -16.7310 C.2   233  A7B233     -0.0238
      8  C8        -3.4700   -9.8020  -16.0360 C.3   233  A7B233      0.1569
      9  C9        -4.4910   -9.2390  -15.2180 C.1   233  A7B233      0.1845
     10  N10       -4.5820   -7.8920  -15.1280 N.2   233  A7B233     -0.3330
     11  O11       -4.9150   -5.1400  -14.8080 O.3   233  A7B233     -0.4688
     12  O12       -5.3570   -9.9880  -14.5690 O.2   233  A7B233     -0.2138
     13  C13       -1.4070   -9.6000  -17.5520 C.3   233  A7B233      0.0276
     14  C14       -5.2370   -3.7480  -14.7030 C.3   233  A7B233      0.2526
@<TRIPOS>BOND
     1    13     7    1
     2     1     6   ar
     3     1     2   ar
     4     6     5   ar
     5     7     2    2
     6     7     8    1
     7     2     3   ar
     8     5     4   ar
     9     8     9    1
    10     3     4   ar
    11     3    10    2
    12     4    11    1
    13     9    10    2
    14     9    12    2
    15    11    14    1
