@<TRIPOS>MOLECULE
3ni2_AYL_A_1.pdb
 33 36 0 0 0
SMALL
GASTEIGER

@<TRIPOS>ATOM
      1  P         -9.3490   14.5180  -22.4080 P.3   537  AYL537      0.2141
      2  N1        -5.0010   11.9120  -31.1800 N.2   537  AYL537      0.0021
      3  C2        -6.2960   11.6880  -31.3150 C.3   537  AYL537      0.5254
      4  N3        -7.1240   11.8180  -30.2950 N.2   537  AYL537     -0.0055
      5  C4        -6.6750   12.1820  -29.0830 C.2   537  AYL537      0.3518
      6  C5        -5.3190   12.4250  -28.8990 C.2   537  AYL537      0.2526
      7  C6        -4.4830   12.2780  -29.9990 C.2   537  AYL537      0.4393
      8  N6        -3.1750   12.4910  -29.8850 N.pl3 537  AYL537      0.2180
      9  N7        -5.0970   12.8660  -27.6620 N.2   537  AYL537     -0.2095
     10  C8        -6.3510   12.7720  -26.9020 C.3   537  AYL537      0.3377
     11  N9        -7.3200   12.4180  -27.9460 N.pl3 537  AYL537     -0.1439
     12  C1'       -8.7780   12.3430  -27.7030 C.3   537  AYL537      0.3186
     13  O1P       -9.8070   13.5900  -21.1750 O.3   537  AYL537     -0.4373
     14  C2'       -9.1520   10.8850  -27.4240 C.3   537  AYL537      0.2570
     15  O2'      -10.5330   10.6700  -27.7270 O.3   537  AYL537     -0.2130
     16  O2P       -7.7460   14.6840  -22.3790 O.3   537  AYL537     -0.3141
     17  C3'       -8.9140   10.8120  -25.9170 C.3   537  AYL537      0.2184
     18  O3'       -9.6510    9.7230  -25.3530 O.3   537  AYL537     -0.2174
     19  O3P      -10.0350   15.9680  -22.2970 O.2   537  AYL537     -0.5172
     20  C4'       -9.5880   12.1300  -25.5430 C.3   537  AYL537      0.1821
     21  O4'       -9.0600   13.0700  -26.4930 O.3   537  AYL537     -0.3135
     22  C5'       -9.2520   12.5290  -24.1060 C.3   537  AYL537      0.1813
     23  O5'       -9.7720   13.8240  -23.7970 O.3   537  AYL537     -0.3114
     24  CAC       -0.6220   14.9360  -23.2470 C.ar  537  AYL537      0.1957
     25  CAD       -1.4010   15.0650  -22.1040 C.ar  537  AYL537      0.0417
     26  CAH       -2.6170   14.6280  -24.5630 C.ar  537  AYL537     -0.0010
     27  CAJ       -2.7870   14.9760  -22.1900 C.ar  537  AYL537     -0.0010
     28  CAK       -3.3970   14.7560  -23.4190 C.ar  537  AYL537     -0.0219
     29  CAP       -4.9200   14.6220  -23.5130 C.3   537  AYL537      0.0289
     30  CAQ       -5.6310   15.8110  -22.8630 C.3   537  AYL537      0.0372
     31  CAR       -7.1440   15.7710  -23.0890 C.3   537  AYL537      0.1495
     32  CAS       -1.2320   14.7170  -24.4790 C.ar  537  AYL537      0.0417
     33  OBF        0.7330   15.0200  -23.1610 O.3   537  AYL537     -0.2866
@<TRIPOS>BOND
     1     3     2    1
     2     3     4    1
     3     2     7    2
     4     4     5    2
     5     7     8    1
     6     7     6    1
     7     5     6    1
     8     5    11    1
     9     6     9    2
    10    11    12    1
    11    11    10    1
    12    15    14    1
    13    12    14    1
    14    12    21    1
    15     9    10    1
    16    14    17    1
    17    21    20    1
    18    17    20    1
    19    17    18    1
    20    20    22    1
    21    26    32   ar
    22    26    28   ar
    23    32    24   ar
    24    22    23    1
    25    23     1    1
    26    29    28    1
    27    29    30    1
    28    28    27   ar
    29    24    33    1
    30    24    25   ar
    31    31    30    1
    32    31    16    1
    33     1    16    1
    34     1    19    2
    35     1    13    1
    36    27    25   ar
