@<TRIPOS>MOLECULE
3ni5_C1H_A_1.pdb
 30 31 0 0 0
SMALL
GASTEIGER

@<TRIPOS>ATOM
      1  OAA        4.0640    9.9060   11.7140 O.2   264  C1H264     -0.0900
      2  NAB        3.0920    9.3570   12.5580 N.pl3 264  C1H264      0.2181
      3  OAC       -2.9470    9.1130    8.2640 O.2   264  C1H264     -0.2449
      4  OAD       -6.5740    5.2820   12.7820 O.2   264  C1H264     -0.1482
      5  OAE        2.0860    8.6000   12.0180 O.2   264  C1H264     -0.3358
      6  CAF        1.0010    8.0460   12.7800 C.3   264  C1H264      0.2433
      7  CAG       -0.0090    9.1060   13.2270 C.3   264  C1H264      0.0543
      8  CAH       -1.2860    9.0800   12.3900 C.3   264  C1H264      0.0514
      9  CAI       -1.0090    9.2470   10.8910 C.3   264  C1H264      0.2089
     10  OAJ       -2.0820    9.9450   10.2570 O.3   264  C1H264     -0.4454
     11  CAK       -3.0980    9.2360    9.4760 C.2   264  C1H264      0.3412
     12  CAL       -4.3300    8.6600   10.1360 C.ar  264  C1H264      0.0770
     13  CAM       -4.2130    7.6810   11.1460 C.ar  264  C1H264      0.0267
     14  CAN       -5.3540    7.1230   11.7410 C.ar  264  C1H264      0.1273
     15  SAO       -5.3510    6.0170   12.9260 S.O2  264  C1H264      0.0947
     16  NAP       -4.1910    5.0330   13.1930 N.pl3 264  C1H264     -0.0684
     17  CAQ       -4.3150    3.9260   14.0450 C.ar  264  C1H264      0.2253
     18  NAR       -3.3090    3.0360   14.3480 N.ar  264  C1H264     -0.1209
     19  NAS       -3.7040    1.9880   15.2520 N.ar  264  C1H264     -0.1188
     20  OAT       -5.3160    1.0230   18.1240 O.2   264  C1H264     -0.1483
     21  CAU       -5.5950    9.0980    9.7130 C.ar  264  C1H264      0.0065
     22  CAV       -6.7400    8.5660   10.2950 C.ar  264  C1H264      0.0016
     23  CAW       -6.6040    7.6050   11.3040 C.ar  264  C1H264      0.0203
     24  OAX       -5.4790    6.7900   14.1280 O.2   264  C1H264     -0.1482
     25  SAY       -5.7530    3.4660   14.8880 S.2   264  C1H264     -0.0075
     26  CAZ       -5.0120    2.1020   15.6590 C.ar  264  C1H264      0.2591
     27  SBA       -5.8430    1.0660   16.7120 S.O2  264  C1H264      0.1178
     28  NBB       -5.7120   -0.3010   16.1660 N.3   264  C1H264      0.0413
     29  OBC       -7.2570    1.5060   16.7620 O.2   264  C1H264     -0.1483
     30  ONA        3.1630    9.5750   13.7630 O.2   264  C1H264     -0.0900
@<TRIPOS>BOND
     1     3    11    2
     2    11    12    1
     3    11    10    1
     4    21    12   ar
     5    21    22   ar
     6    12    13   ar
     7    10     9    1
     8    22    23   ar
     9     9     8    1
    10    13    14   ar
    11    23    14   ar
    12     1     2    2
    13    14    15    1
    14     5     2    1
    15     5     6    1
    16     8     7    1
    17     2    30    2
    18     6     7    1
    19     4    15    2
    20    15    16    1
    21    15    24    2
    22    16    17    1
    23    17    18   ar
    24    17    25   ar
    25    18    19   ar
    26    25    26   ar
    27    19    26   ar
    28    26    27    1
    29    28    27    1
    30    27    29    2
    31    27    20    2
