@<TRIPOS>MOLECULE
3nia_TBE_A_1.pdb
 20 20 0 0 0
SMALL
GASTEIGER

@<TRIPOS>ATOM
      1  S1         2.5870  -21.7660   -7.0710 S.3   288  TBE288     -0.0173
      2  O12        3.6200  -22.7040   -7.4170 O.3   288  TBE288     -0.0781
      3  O13        2.3590  -21.7940   -5.6420 O.3   288  TBE288     -0.0781
      4  C2         3.0920  -20.2110   -7.4560 C.3   288  TBE288      0.1615
      5  C3         4.1850  -19.7620   -6.4660 C.3   288  TBE288      0.2269
      6  N4         5.3410  -20.6440   -6.5200 N.2   288  TBE288     -0.2618
      7  C5         6.4430  -20.3530   -5.8240 C.2   288  TBE288      0.0757
      8  C20        3.5980  -20.1460   -8.8910 C.3   288  TBE288      0.0280
      9  C14        1.9110  -19.2650   -7.2330 C.3   288  TBE288      0.1532
     10  N15        0.8310  -19.4000   -8.2170 N.ar  288  TBE288     -0.2284
     11  N16        0.9730  -18.6340   -9.3760 N.ar  288  TBE288     -0.0637
     12  N17       -0.1770  -18.9170  -10.1320 N.ar  288  TBE288     -0.1271
     13  C18       -0.9380  -19.7850   -9.4290 C.ar  288  TBE288      0.1441
     14  C19       -0.3190  -20.0740   -8.2240 C.ar  288  TBE288      0.1193
     15  C9         4.5990  -18.3290   -6.7030 C.2   288  TBE288      0.3883
     16  O10        5.5550  -18.1060   -7.4760 O.co2 288  TBE288     -0.2434
     17  O11        3.9850  -17.3940   -6.1280 O.co2 288  TBE288     -0.2434
     18  C6         7.5080  -21.1460   -5.9520 C.3   288  TBE288      0.1186
     19  C7         8.6680  -20.9740   -5.0850 C.2   288  TBE288      0.2138
     20  O8         8.7400  -20.0330   -4.3120 O.2   288  TBE288     -0.2879
@<TRIPOS>BOND
     1    12    13   ar
     2    12    11   ar
     3    13    14   ar
     4    11    10   ar
     5     8     4    1
     6    14    10   ar
     7    10     9    1
     8    16    15   ar
     9     4     9    1
    10     4     1    1
    11     4     5    1
    12     2     1    1
    13     1     3    1
    14    15     5    1
    15    15    17   ar
    16     6     5    1
    17     6     7    2
    18    18     7    1
    19    18    19    1
    20    19    20    2
