@<TRIPOS>MOLECULE
3nia_TF7_A_1.pdb
 16 16 0 0 0
SMALL
GASTEIGER

@<TRIPOS>ATOM
      1  S1        10.6930  -16.9790   -9.3030 S.3   289  TF7289     -0.0178
      2  C2         9.1730  -17.1160   -8.5650 C.3   289  TF7289      0.1572
      3  C3         9.3560  -17.9490   -7.2940 C.3   289  TF7289      0.2160
      4  N4         9.5410  -19.3430   -7.5970 N.3   289  TF7289     -0.1190
      5  C9        10.5160  -17.4650   -6.4940 C.2   289  TF7289      0.3836
      6  O10       11.6700  -17.8200   -6.8170 O.co2 289  TF7289     -0.2440
      7  O11       10.2700  -16.7360   -5.5090 O.co2 289  TF7289     -0.2440
      8  O12       10.5520  -16.2790  -10.9540 O.3   289  TF7289     -0.0782
      9  O13       11.7020  -15.8650   -8.3170 O.3   289  TF7289     -0.0782
     10  C14        8.2140  -17.7400   -9.5710 C.3   289  TF7289      0.1527
     11  N15        7.5540  -16.7600  -10.4500 N.ar  289  TF7289     -0.2284
     12  N16        6.1590  -16.8400  -10.5030 N.ar  289  TF7289     -0.0637
     13  N17        5.7700  -15.8280  -11.3980 N.ar  289  TF7289     -0.1271
     14  C18        6.8980  -15.2320  -11.8710 C.ar  289  TF7289      0.1441
     15  C19        8.0040  -15.8190  -11.2890 C.ar  289  TF7289      0.1193
     16  C20        8.6980  -15.7330   -8.1840 C.3   289  TF7289      0.0275
@<TRIPOS>BOND
     1    14    13   ar
     2    14    15   ar
     3    13    12   ar
     4    15    11   ar
     5     8     1    1
     6    12    11   ar
     7    11    10    1
     8    10     2    1
     9     1     2    1
    10     1     9    1
    11     2    16    1
    12     2     3    1
    13     4     3    1
    14     3     5    1
    15     6     5   ar
    16     5     7   ar
