@<TRIPOS>MOLECULE
3nie_ANP_A_1.pdb
 31 33 0 0 0
SMALL
GASTEIGER

@<TRIPOS>ATOM
      1  PG         6.2620   11.4160   12.9850 P.3   430  ANP430      0.4884
      2  O1G        6.8980   11.5270   14.3520 O.3   430  ANP430     -0.1240
      3  O2G        4.8900   11.9830   12.9340 O.3   430  ANP430     -0.1240
      4  O3G        7.1750   11.7090   11.8290 O.2   430  ANP430     -0.2331
      5  PB         4.8310    8.8740   13.7110 P.3   430  ANP430      0.4669
      6  O1B        4.2220    7.7120   13.0030 O.2   430  ANP430     -0.2351
      7  O2B        3.8050    9.8190   14.3230 O.3   430  ANP430     -0.1253
      8  N3B        6.0060    9.6970   12.7470 N.3   430  ANP430     -0.0163
      9  PA         7.1940    8.0960   15.0530 P.3   430  ANP430      0.2220
     10  O1A        7.8000    9.4200   14.7710 O.3   430  ANP430     -0.4370
     11  O2A        7.6610    6.8340   14.3350 O.2   430  ANP430     -0.5170
     12  O3A        5.6110    8.2370   14.9600 O.3   430  ANP430     -0.2360
     13  O5'        7.2450    7.8110   16.6360 O.3   430  ANP430     -0.3111
     14  C5'        6.7560    8.7870   17.5640 C.3   430  ANP430      0.1813
     15  C4'        7.4470    8.6760   18.9100 C.3   430  ANP430      0.1821
     16  O4'        7.1560    7.4230   19.5450 O.3   430  ANP430     -0.3135
     17  C3'        8.9590    8.7170   18.8620 C.3   430  ANP430      0.2184
     18  O3'        9.4660   10.0420   18.7660 O.3   430  ANP430     -0.2174
     19  C2'        9.3380    8.0120   20.1450 C.3   430  ANP430      0.2570
     20  O2'        9.2220    8.8850   21.2800 O.3   430  ANP430     -0.2130
     21  C1'        8.2980    6.9160   20.2250 C.3   430  ANP430      0.3186
     22  N9         8.7250    5.6930   19.5080 N.pl3 430  ANP430     -0.1439
     23  C8         8.5110    5.3920   18.2130 C.3   430  ANP430      0.3377
     24  N7         9.0390    4.1830   17.8850 N.2   430  ANP430     -0.2095
     25  C5         9.5860    3.6790   18.9890 C.2   430  ANP430      0.2526
     26  C6        10.3200    2.4470   19.3640 C.2   430  ANP430      0.4393
     27  N6        10.5990    1.4530   18.5110 N.pl3 430  ANP430      0.2180
     28  N1        10.7070    2.3360   20.6240 N.2   430  ANP430      0.0021
     29  C2        10.4830    3.3040   21.5470 C.3   430  ANP430      0.5254
     30  N3         9.8370    4.4420   21.2780 N.2   430  ANP430     -0.0055
     31  C4         9.3770    4.6830   20.0460 C.2   430  ANP430      0.3518
@<TRIPOS>BOND
     1     4     1    2
     2     8     1    1
     3     8     5    1
     4     3     1    1
     5     1     2    1
     6     6     5    2
     7     5     7    1
     8     5    12    1
     9    11     9    2
    10    10     9    1
    11    12     9    1
    12     9    13    1
    13    13    14    1
    14    14    15    1
    15    24    23    1
    16    24    25    2
    17    23    22    1
    18    27    26    1
    19    18    17    1
    20    17    15    1
    21    17    19    1
    22    15    16    1
    23    25    26    1
    24    25    31    1
    25    26    28    2
    26    22    31    1
    27    22    21    1
    28    16    21    1
    29    31    30    2
    30    19    21    1
    31    19    20    1
    32    28    29    1
    33    30    29    1
