@<TRIPOS>MOLECULE
3nif_NIF_A_1.pdb
 18 20 0 0 0
SMALL
GASTEIGER

@<TRIPOS>ATOM
      1  C1        51.4400  108.9700   73.5070 C.2   455  NIF455      0.1097
      2  N1        52.4310  108.1930   73.0590 N.2   455  NIF455     -0.1667
      3  O1        54.0850  106.1150   72.4120 O.2   455  NIF455     -0.2722
      4  S1        50.1430  107.9760   74.3730 S.3   455  NIF455     -0.0217
      5  C2        51.0660  106.5650   74.0400 C.2   455  NIF455      0.2421
      6  N2        52.2190  106.8240   73.3650 N.am  455  NIF455     -0.1239
      7  C3        51.6520  104.1980   74.0130 C.2   455  NIF455      0.1717
      8  N3        50.7460  105.3490   74.3780 N.2   455  NIF455     -0.3675
      9  C4        52.7910  104.4540   73.3620 C.3   455  NIF455      0.1620
     10  N4        50.0420  100.5010   75.3810 N.3   455  NIF455     -0.2144
     11  C5        53.1030  105.8350   73.0090 C.2   455  NIF455      0.2593
     12  N5        51.1650  102.9160   74.4850 N.pl3 455  NIF455     -0.2836
     13  C6        51.3350  110.4810   73.3740 C.3   455  NIF455      0.0543
     14  C7        49.8680  110.9000   73.5130 C.3   455  NIF455      0.0073
     15  C8        49.9770  102.9380   75.2910 C.3   455  NIF455      0.1116
     16  C9        49.1590  101.6750   75.0930 C.3   455  NIF455      0.1102
     17  C10       51.0100  100.4530   74.2730 C.3   455  NIF455      0.1102
     18  C11       51.8730  101.7200   74.2440 C.3   455  NIF455      0.1116
@<TRIPOS>BOND
     1     3    11    2
     2    11     9    1
     3    11     6   am
     4     2     6    1
     5     2     1    2
     6     9     7    1
     7     6     5    1
     8    13     1    1
     9    13    14    1
    10     1     4    1
    11     7     8    2
    12     7    12    1
    13     5     4    1
    14     5     8    2
    15    18    17    1
    16    18    12    1
    17    17    10    1
    18    12    15    1
    19    16    15    1
    20    16    10    1
