@<TRIPOS>MOLECULE
3nih_III_B_1.pdb
 24 23 0 0 0
SMALL
GASTEIGER

@<TRIPOS>ATOM
      1  N         26.5620   12.1040   -9.0550 N.3     1  ARG1       -0.1231
      2  CA        27.0910   10.8160   -8.5300 C.3     1  ARG1        0.1694
      3  C         27.5080   10.9670   -7.0800 C.2     1  ARG1        0.2592
      4  O         27.7380   12.0790   -6.6120 O.2     1  ARG1       -0.2718
      5  CB        28.2840   10.3230   -9.3600 C.3     1  ARG1        0.0321
      6  CG        28.0820   10.3350  -10.8770 C.3     1  ARG1        0.0489
      7  CD        26.9520    9.4140  -11.3420 C.3     1  ARG1        0.2205
      8  NE        26.9990    9.1960  -12.7900 N.pl3   1  ARG1       -0.0865
      9  CZ        26.5370   10.0480  -13.7040 C.cat   1  ARG1        0.5346
     10  NH1       25.9770   11.1960  -13.3450 N.pl3   1  ARG1        0.1354
     11  NH2       26.6400    9.7510  -14.9940 N.pl3   1  ARG1        0.1354
     12  N         27.5930    9.8460   -6.3720 N.am    2  ILE2       -0.1966
     13  CA        28.0910    9.8520   -5.0020 C.3     2  ILE2        0.1727
     14  C         29.5420    9.3740   -4.9890 C.2     2  ILE2        0.2616
     15  O         29.8960    8.4220   -5.6950 O.2     2  ILE2       -0.2715
     16  CB        27.1770    9.0330   -4.0370 C.3     2  ILE2        0.0290
     17  CG1       27.2580    9.5870   -2.6110 C.3     2  ILE2        0.0022
     18  CG2       27.4830    7.5280   -4.0860 C.3     2  ILE2        0.0023
     19  CD1       26.3720   10.8030   -2.3700 C.3     2  ILE2        0.0001
     20  N         30.3790   10.0580   -4.2100 N.am    3  ALA3       -0.1977
     21  CA        31.8190    9.7770   -4.1850 C.3     3  ALA3        0.1597
     22  C         32.2190    8.8490   -3.0410 C.2     3  ALA3        0.2287
     23  O         31.8260    9.0510   -1.8910 O.2     3  ALA3       -0.2864
     24  CB        32.6200   11.0810   -4.1300 C.3     3  ALA3        0.0319
@<TRIPOS>BOND
     1    11     9    1
     2     9    10    1
     3     9     8    2
     4     8     7    1
     5     7     6    1
     6     6     5    1
     7     5     2    1
     8     1     2    1
     9     2     3    1
    10     3     4    2
    11     3    12   am
    12    12    13    1
    13    15    14    2
    14    13    14    1
    15    13    16    1
    16    14    20   am
    17    20    21    1
    18    21    24    1
    19    21    22    1
    20    18    16    1
    21    16    17    1
    22    22    23    2
    23    17    19    1
