@<TRIPOS>MOLECULE
3nii_III_B_1.pdb
 22 21 0 0 0
SMALL
GASTEIGER

@<TRIPOS>ATOM
      1  N         26.2120   12.5890   -9.1830 N.3     1  LYS1       -0.1231
      2  CA        26.8690   11.3030   -8.8120 C.3     1  LYS1        0.1693
      3  C         27.4260   11.3720   -7.3980 C.2     1  LYS1        0.2592
      4  O         27.5140   12.4510   -6.8160 O.2     1  LYS1       -0.2718
      5  CB        27.9890   10.9600   -9.8020 C.3     1  LYS1        0.0285
      6  CG        27.5730   10.9590  -11.2700 C.3     1  LYS1        0.0035
      7  CD        26.7090    9.7570  -11.6270 C.3     1  LYS1        0.0206
      8  CE        26.3760    9.7440  -13.1100 C.3     1  LYS1        0.1093
      9  NZ        27.5670    9.4470  -13.9540 N.3     1  LYS1       -0.1314
     10  N         27.7910   10.2140   -6.8520 N.am    2  ILE2       -0.1966
     11  CA        28.4030   10.1360   -5.5280 C.3     2  ILE2        0.1727
     12  C         29.9110    9.9260   -5.6410 C.2     2  ILE2        0.2616
     13  O         30.3730    9.0360   -6.3610 O.2     2  ILE2       -0.2715
     14  CB        27.7360    9.0330   -4.6470 C.3     2  ILE2        0.0290
     15  CG1       26.4370    9.5560   -4.0110 C.3     2  ILE2        0.0022
     16  CG2       28.6950    8.4920   -3.5740 C.3     2  ILE2        0.0023
     17  CD1       26.5810   10.7880   -3.1160 C.3     2  ILE2        0.0001
     18  N         30.6660   10.7660   -4.9350 N.am    3  ALA3       -0.1977
     19  CA        32.1230   10.6680   -4.8930 C.3     3  ALA3        0.1597
     20  C         32.6000   10.1640   -3.5320 C.2     3  ALA3        0.2287
     21  O         32.0000    9.2610   -2.9440 O.2     3  ALA3       -0.2864
     22  CB        32.7570   12.0140   -5.2180 C.3     3  ALA3        0.0319
@<TRIPOS>BOND
     1     9     8    1
     2     8     7    1
     3     7     6    1
     4     6     5    1
     5     5     2    1
     6     1     2    1
     7     2     3    1
     8     3    10   am
     9     3     4    2
    10    10    11    1
    11    13    12    2
    12    12    11    1
    13    12    18   am
    14    11    14    1
    15    22    19    1
    16    18    19    1
    17    19    20    1
    18    14    15    1
    19    14    16    1
    20    15    17    1
    21    20    21    2
