@<TRIPOS>MOLECULE
3nij_III_B_1.pdb
 23 23 0 0 0
SMALL
GASTEIGER

@<TRIPOS>ATOM
      1  N         26.3640   12.4030   -9.0050 N.3     1  HIS1       -0.1227
      2  CA        26.9970   11.1070   -8.6310 C.3     1  HIS1        0.1749
      3  C         27.5570   11.1580   -7.2200 C.2     1  HIS1        0.2596
      4  O         27.7730   12.2360   -6.6730 O.2     1  HIS1       -0.2718
      5  CB        28.0940   10.7320   -9.6300 C.3     1  HIS1        0.0718
      6  CG        27.5820   10.4640  -11.0100 C.2     1  HIS1        0.0650
      7  ND1       27.3800    9.1900  -11.4940 N.2     1  HIS1       -0.2310
      8  CD2       27.2140   11.3070  -12.0030 C.3     1  HIS1        0.1683
      9  CE1       26.9160    9.2590  -12.7290 C.2     1  HIS1        0.1939
     10  NE2       26.8060   10.5330  -13.0620 N.2     1  HIS1       -0.2440
     11  N         27.7870    9.9860   -6.6380 N.am    2  ILE2       -0.1966
     12  CA        28.3130    9.8910   -5.2810 C.3     2  ILE2        0.1727
     13  C         29.7520    9.3590   -5.2880 C.2     2  ILE2        0.2616
     14  O         30.2220    8.8480   -6.3090 O.2     2  ILE2       -0.2715
     15  CB        27.3710    9.0470   -4.3690 C.3     2  ILE2        0.0290
     16  CG1       27.3150    9.6280   -2.9520 C.3     2  ILE2        0.0022
     17  CG2       27.7380    7.5550   -4.3900 C.3     2  ILE2        0.0023
     18  CD1       26.3960   10.8390   -2.8190 C.3     2  ILE2        0.0001
     19  N         30.4420    9.4970   -4.1550 N.am    3  ALA3       -0.1977
     20  CA        31.8510    9.1080   -4.0240 C.3     3  ALA3        0.1597
     21  C         32.1050    7.6380   -4.3700 C.2     3  ALA3        0.2287
     22  O         32.8830    7.3310   -5.2800 O.2     3  ALA3       -0.2864
     23  CB        32.3540    9.4170   -2.6200 C.3     3  ALA3        0.0319
@<TRIPOS>BOND
     1    10     9    2
     2    10     8    1
     3     9     7    1
     4     8     6    1
     5     7     6    2
     6     6     5    1
     7     5     2    1
     8     1     2    1
     9     2     3    1
    10     3     4    2
    11     3    11   am
    12    11    12    1
    13    14    13    2
    14    13    12    1
    15    13    19   am
    16    12    15    1
    17    22    21    2
    18    17    15    1
    19    21    20    1
    20    15    16    1
    21    19    20    1
    22    20    23    1
    23    16    18    1
