@<TRIPOS>MOLECULE
3nik_III_X_1.pdb
 31 30 0 0 0
SMALL
GASTEIGER

@<TRIPOS>ATOM
      1  N        -39.8440   12.8100   -4.7970 N.3     1  ARG1       -0.1231
      2  CA       -40.7610   13.0040   -5.9630 C.3     1  ARG1        0.1694
      3  C        -41.1250   11.6810   -6.6190 C.2     1  ARG1        0.2592
      4  O        -40.4720   10.6650   -6.4060 O.2     1  ARG1       -0.2718
      5  CB       -40.1210   13.9130   -7.0200 C.3     1  ARG1        0.0321
      6  CG       -39.6460   15.2520   -6.5200 C.3     1  ARG1        0.0489
      7  CD       -40.7960   16.1910   -6.1360 C.3     1  ARG1        0.2205
      8  NE       -40.3220   17.5750   -6.0820 N.pl3   1  ARG1       -0.0865
      9  CZ       -39.5240   18.0620   -5.1350 C.cat   1  ARG1        0.5346
     10  NH1      -39.1440   19.3330   -5.1800 N.pl3   1  ARG1        0.1354
     11  NH2      -39.1090   17.2890   -4.1340 N.pl3   1  ARG1        0.1354
     12  N        -42.1840   11.7010   -7.4190 N.am    2  GLU2       -0.1966
     13  CA       -42.5140   10.5730   -8.2690 C.3     2  GLU2        0.1733
     14  C        -43.1450   11.1080   -9.5360 C.2     2  GLU2        0.2616
     15  O        -44.1390   11.8430   -9.4930 O.2     2  GLU2       -0.2715
     16  CB       -43.4690    9.5950   -7.5780 C.3     2  GLU2        0.0429
     17  CG       -43.4940    8.1960   -8.2220 C.3     2  GLU2        0.1163
     18  CD       -44.3970    8.0940   -9.4530 C.2     2  GLU2        0.3649
     19  OE1      -45.4740    8.7210   -9.4620 O.co2   2  GLU2       -0.2457
     20  OE2      -44.0380    7.3680  -10.4080 O.co2   2  GLU2       -0.2457
     21  N        -42.5590   10.7340  -10.6620 N.am    3  ALA3       -0.1963
     22  CA       -43.1050   11.1090  -11.9550 C.3     3  ALA3        0.1728
     23  C        -43.0680    9.8990  -12.8640 C.2     3  ALA3        0.2617
     24  O        -42.0270    9.5950  -13.4480 O.2     3  ALA3       -0.2715
     25  CB       -42.3070   12.2730  -12.5520 C.3     3  ALA3        0.0334
     26  N        -44.1990    9.1990  -12.9520 N.am    4  ALA4       -0.1942
     27  CA       -44.3430    8.0190  -13.8100 C.3     4  ALA4        0.1979
     28  C        -44.0730    8.3400  -15.2780 C.2     4  ALA4        0.3842
     29  O        -44.4680    9.3860  -15.7960 O.co2   4  ALA4       -0.2437
     30  CB       -45.7350    7.4100  -13.6530 C.3     4  ALA4        0.0356
     31  OXT      -43.4460    7.5530  -15.9840 O.co2   4  ALA4       -0.2437
@<TRIPOS>BOND
     1    31    28   ar
     2    29    28   ar
     3    28    27    1
     4    27    30    1
     5    27    26    1
     6    24    23    2
     7    26    23   am
     8    23    22    1
     9    25    22    1
    10    22    21    1
    11    21    14   am
    12    20    18   ar
    13    14    15    2
    14    14    13    1
    15    19    18   ar
    16    18    17    1
    17    13    16    1
    18    13    12    1
    19    17    16    1
    20    12     3   am
    21     5     6    1
    22     5     2    1
    23     3     4    2
    24     3     2    1
    25     6     7    1
    26     7     8    1
    27     8     9    2
    28     2     1    1
    29    10     9    1
    30     9    11    1
