@<TRIPOS>MOLECULE
3nil_III_X_1.pdb
 24 23 0 0 0
SMALL
GASTEIGER

@<TRIPOS>ATOM
      1  N        -39.3400   13.1910   -5.4950 N.3     1  ARG1       -0.1231
      2  CA       -40.2600   13.2810   -6.6670 C.3     1  ARG1        0.1694
      3  C        -40.5660   11.8930   -7.2280 C.2     1  ARG1        0.2592
      4  O        -39.8790   10.9220   -6.9030 O.2     1  ARG1       -0.2718
      5  CB       -39.6590   14.1760   -7.7680 C.3     1  ARG1        0.0321
      6  CG       -39.0440   15.5010   -7.3000 C.3     1  ARG1        0.0489
      7  CD       -40.0760   16.4260   -6.6710 C.3     1  ARG1        0.2205
      8  NE       -39.6500   17.8270   -6.6870 N.pl3   1  ARG1       -0.0865
      9  CZ       -38.9100   18.4170   -5.7510 C.cat   1  ARG1        0.5346
     10  NH1      -38.4840   17.7410   -4.6820 N.pl3   1  ARG1        0.1354
     11  NH2      -38.5930   19.6970   -5.8840 N.pl3   1  ARG1        0.1354
     12  N        -41.6010   11.8020   -8.0630 N.am    2  ASP2       -0.1960
     13  CA       -41.9140   10.5600   -8.7710 C.3     2  ASP2        0.1840
     14  C        -41.4030   10.5990  -10.2170 C.2     2  ASP2        0.2621
     15  O        -41.6270   11.5730  -10.9420 O.2     2  ASP2       -0.2715
     16  CB       -43.4220   10.2790   -8.7270 C.3     2  ASP2        0.1450
     17  CG       -43.8220    9.0170   -9.4950 C.2     2  ASP2        0.3671
     18  OD1      -42.9690    8.3810  -10.1500 O.co2   2  ASP2       -0.2456
     19  OD2      -45.0100    8.6550   -9.4490 O.co2   2  ASP2       -0.2456
     20  N        -40.7230    9.5240  -10.6190 N.am    3  ALA3       -0.1977
     21  CA       -40.1560    9.3960  -11.9610 C.3     3  ALA3        0.1597
     22  C        -40.7710    8.2290  -12.7410 C.2     3  ALA3        0.2287
     23  O        -41.4300    7.3560  -12.1690 O.2     3  ALA3       -0.2864
     24  CB       -38.6420    9.2540  -11.8840 C.3     3  ALA3        0.0319
@<TRIPOS>BOND
     1    22    23    2
     2    22    21    1
     3    21    24    1
     4    21    20    1
     5    15    14    2
     6    20    14   am
     7    14    13    1
     8    18    17   ar
     9    17    19   ar
    10    17    16    1
    11    13    16    1
    12    13    12    1
    13    12     3   am
    14     5     6    1
    15     5     2    1
    16     6     7    1
    17     3     4    2
    18     3     2    1
    19     8     7    1
    20     8     9    2
    21     2     1    1
    22    11     9    1
    23     9    10    1
