@<TRIPOS>MOLECULE
3nim_III_X_1.pdb
 33 32 0 0 0
SMALL
GASTEIGER

@<TRIPOS>ATOM
      1  N        -30.4490   -2.7610   -4.9540 N.3     1  ARG1       -0.1231
      2  CA       -30.9280   -3.6120   -6.0840 C.3     1  ARG1        0.1694
      3  C        -29.8220   -4.5240   -6.6050 C.2     1  ARG1        0.2592
      4  O        -28.6550   -4.3700   -6.2400 O.2     1  ARG1       -0.2718
      5  CB       -31.4510   -2.7430   -7.2330 C.3     1  ARG1        0.0321
      6  CG       -32.2670   -1.5280   -6.8240 C.3     1  ARG1        0.0489
      7  CD       -33.6390   -1.9180   -6.3260 C.3     1  ARG1        0.2205
      8  NE       -34.6040   -0.8280   -6.4530 N.pl3   1  ARG1       -0.0865
      9  CZ       -34.6530    0.2490   -5.6660 C.cat   1  ARG1        0.5346
     10  NH1      -33.7820    0.4120   -4.6730 N.pl3   1  ARG1        0.1354
     11  NH2      -35.5890    1.1700   -5.8720 N.pl3   1  ARG1        0.1354
     12  N        -30.1940   -5.4660   -7.4710 N.am    2  ARG2       -0.1966
     13  CA       -29.2300   -6.3540   -8.1100 C.3     2  ARG2        0.1729
     14  C        -29.0200   -5.8980   -9.5450 C.2     2  ARG2        0.2616
     15  O        -29.9480   -5.3650  -10.1600 O.2     2  ARG2       -0.2715
     16  CB       -29.7270   -7.8020   -8.0760 C.3     2  ARG2        0.0348
     17  CG       -30.8860   -8.0870   -9.0190 C.3     2  ARG2        0.0492
     18  CD       -31.7710   -9.2010   -8.5160 C.3     2  ARG2        0.2205
     19  NE       -31.2890  -10.5320   -8.8820 N.pl3   2  ARG2       -0.0865
     20  CZ       -31.7080  -11.6720   -8.3270 C.cat   2  ARG2        0.5346
     21  NH1      -32.6190  -11.6730   -7.3570 N.pl3   2  ARG2        0.1354
     22  NH2      -31.2030  -12.8250   -8.7460 N.pl3   2  ARG2        0.1354
     23  N        -27.8100   -6.1050  -10.0680 N.am    3  ALA3       -0.1963
     24  CA       -27.4900   -5.7660  -11.4610 C.3     3  ALA3        0.1728
     25  C        -28.2620   -6.6610  -12.4310 C.2     3  ALA3        0.2617
     26  O        -28.0160   -7.8710  -12.5080 O.2     3  ALA3       -0.2715
     27  CB       -25.9770   -5.8480  -11.7190 C.3     3  ALA3        0.0334
     28  N        -29.2070   -6.0420  -13.1450 N.am    4  ALA4       -0.1942
     29  CA       -30.1180   -6.7070  -14.0990 C.3     4  ALA4        0.1979
     30  C        -31.0690   -7.7250  -13.4540 C.2     4  ALA4        0.3842
     31  O        -30.9050   -8.1230  -12.2970 O.co2   4  ALA4       -0.2437
     32  CB       -29.3440   -7.3260  -15.2790 C.3     4  ALA4        0.0356
     33  OXT      -32.0420   -8.1740  -14.0680 O.co2   4  ALA4       -0.2437
@<TRIPOS>BOND
     1    32    29    1
     2    29    30    1
     3    29    28    1
     4    33    30   ar
     5    30    31   ar
     6    28    25   am
     7    26    25    2
     8    25    24    1
     9    27    24    1
    10    24    23    1
    11    15    14    2
    12    23    14   am
    13    14    13    1
    14    17    18    1
    15    17    16    1
    16    19    18    1
    17    19    20    2
    18    22    20    1
    19    20    21    1
    20    13    16    1
    21    13    12    1
    22    12     3   am
    23     5     6    1
    24     5     2    1
    25     6     7    1
    26     3     4    2
    27     3     2    1
    28     8     7    1
    29     8     9    2
    30     2     1    1
    31    11     9    1
    32     9    10    1
