@<TRIPOS>MOLECULE
3nin_III_D_1.pdb
 32 31 0 0 0
SMALL
GASTEIGER

@<TRIPOS>ATOM
      1  N          8.1240  -14.6900    4.2010 N.3     1  ARG1       -0.1231
      2  CA         9.0540  -14.3080    5.2980 C.3     1  ARG1        0.1694
      3  C          9.3350  -15.4900    6.2100 C.2     1  ARG1        0.2592
      4  O          8.5820  -16.4660    6.2220 O.2     1  ARG1       -0.2718
      5  CB         8.4940  -13.1540    6.1410 C.3     1  ARG1        0.0321
      6  CG         8.0290  -11.9360    5.3680 C.3     1  ARG1        0.0489
      7  CD         9.1230  -11.3310    4.4960 C.3     1  ARG1        0.2205
      8  NE         8.7930   -9.9580    4.1170 N.pl3   1  ARG1       -0.0865
      9  CZ         7.9520   -9.6140    3.1430 C.cat   1  ARG1        0.5346
     10  NH1        7.3310  -10.5410    2.4190 N.pl3   1  ARG1        0.1354
     11  NH2        7.7290   -8.3280    2.8980 N.pl3   1  ARG1        0.1354
     12  N         10.4280  -15.3910    6.9650 N.am    2  LEU2       -0.1966
     13  CA        10.7520  -16.3710    7.9950 C.3     2  LEU2        0.1728
     14  C         10.7630  -15.7050    9.3680 C.2     2  LEU2        0.2617
     15  O         11.3150  -14.6140    9.5300 O.2     2  LEU2       -0.2715
     16  CB        12.1030  -17.0310    7.7120 C.3     2  LEU2        0.0311
     17  CG        12.3810  -18.3530    8.4260 C.3     2  LEU2        0.0022
     18  CD1       11.7050  -19.5230    7.7150 C.3     2  LEU2        0.0001
     19  CD2       13.8820  -18.5790    8.5290 C.3     2  LEU2        0.0001
     20  N         10.1470  -16.3640   10.3480 N.am    3  GLY3       -0.1940
     21  CA        10.0930  -15.8430   11.7180 C.3     3  GLY3        0.2014
     22  C          9.8210  -16.9000   12.7720 C.2     3  GLY3        0.2638
     23  O         10.1570  -18.0760   12.5830 O.2     3  GLY3       -0.2714
     24  N          9.2200  -16.4590   13.8830 N.am    4  GLU4       -0.1977
     25  CA         8.7420  -17.3230   14.9810 C.3     4  GLU4        0.1602
     26  C          9.9010  -17.9230   15.7790 C.2     4  GLU4        0.2287
     27  O         11.0220  -18.0430   15.2750 O.2     4  GLU4       -0.2864
     28  CB         7.7650  -18.4070   14.4660 C.3     4  GLU4        0.0415
     29  CG         7.0300  -19.2350   15.5410 C.3     4  GLU4        0.1163
     30  CD         7.5810  -20.6500   15.6960 C.2     4  GLU4        0.3649
     31  OE1        7.8370  -21.3140   14.6660 O.co2   4  GLU4       -0.2457
     32  OE2        7.7430  -21.1080   16.8520 O.co2   4  GLU4       -0.2457
@<TRIPOS>BOND
     1    10     9    1
     2    11     9    1
     3     9     8    2
     4     8     7    1
     5     1     2    1
     6     7     6    1
     7     2     5    1
     8     2     3    1
     9     6     5    1
    10     3     4    2
    11     3    12   am
    12    12    13    1
    13    16    13    1
    14    16    17    1
    15    18    17    1
    16    13    14    1
    17    17    19    1
    18    14    15    2
    19    14    20   am
    20    20    21    1
    21    21    22    1
    22    23    22    2
    23    22    24   am
    24    24    25    1
    25    28    25    1
    26    28    29    1
    27    31    30   ar
    28    25    26    1
    29    27    26    2
    30    29    30    1
    31    30    32   ar
