@<TRIPOS>MOLECULE
3niu_HEM_A_1.pdb
 43 50 0 0 0
SMALL
GASTEIGER

@<TRIPOS>ATOM
      1  CHA        3.5970    1.9330    5.3230 C.2   1001  HEM1001     0.0000
      2  CHB        5.6850   -2.4470    5.5020 C.2   1001  HEM1001     0.0000
      3  CHC        1.9270   -4.2300    3.0020 C.2   1001  HEM1001     0.0000
      4  CHD       -0.4940   -0.0450    3.4900 C.2   1001  HEM1001     0.0000
      5  C1A        4.4810    0.9160    5.5990 C.2   1001  HEM1001     0.0000
      6  C2A        5.7270    1.0530    6.3170 C.2   1001  HEM1001     0.0000
      7  C3A        6.3150   -0.1480    6.3740 C.2   1001  HEM1001     0.0000
      8  C4A        5.4580   -1.0960    5.6810 C.2   1001  HEM1001     0.0000
      9  CMA        7.6650   -0.4710    7.0540 C.3   1001  HEM1001     0.0000
     10  CAA        6.2550    2.3760    6.9130 C.3   1001  HEM1001     0.0000
     11  CBA        5.4010    2.7290    8.1290 C.3   1001  HEM1001     0.0000
     12  CGA        5.7270    4.1140    8.6150 C.2   1001  HEM1001     0.0000
     13  O1A        6.9380    4.4510    8.7210 O.co2 1001  HEM1001     0.0000
     14  O2A        4.7690    4.8760    8.9050 O.co2 1001  HEM1001     0.0000
     15  C1B        4.8680   -3.3200    4.8090 C.ar  1001  HEM1001     0.0000
     16  C2B        5.1280   -4.7190    4.5150 C.ar  1001  HEM1001     0.0000
     17  C3B        4.0870   -5.2000    3.8250 C.ar  1001  HEM1001     0.0000
     18  C4B        3.1310   -4.1290    3.6600 C.ar  1001  HEM1001     0.0000
     19  CMB        6.3850   -5.5160    4.9280 C.3   1001  HEM1001     0.0000
     20  CAB        3.8970   -6.6360    3.2800 C.2   1001  HEM1001     0.0000
     21  CBB        4.4070   -7.6950    3.9160 C.2   1001  HEM1001     0.0000
     22  C1C        0.9270   -3.2830    2.9500 C.2   1001  HEM1001     0.0000
     23  C2C       -0.4000   -3.4840    2.4070 C.2   1001  HEM1001     0.0000
     24  C3C       -1.0810   -2.3290    2.5360 C.2   1001  HEM1001     0.0000
     25  C4C       -0.1980   -1.3570    3.1670 C.2   1001  HEM1001     0.0000
     26  CMC       -0.8950   -4.8170    1.7990 C.3   1001  HEM1001     0.0000
     27  CAC       -2.5400   -2.0350    2.1020 C.2   1001  HEM1001     0.0000
     28  CBC       -3.3730   -2.9780    1.6480 C.2   1001  HEM1001     0.0000
     29  C1D        0.3980    0.9210    3.9210 C.ar  1001  HEM1001     0.0000
     30  C2D        0.1980    2.3600    3.9180 C.ar  1001  HEM1001     0.0000
     31  C3D        1.4780    2.9640    4.4920 C.ar  1001  HEM1001     0.0000
     32  C4D        2.3330    1.8380    4.7840 C.ar  1001  HEM1001     0.0000
     33  CMD       -1.0300    3.1800    3.4690 C.3   1001  HEM1001     0.0000
     34  CAD        1.7750    4.4660    4.6830 C.3   1001  HEM1001     0.0000
     35  CBD        2.1820    5.0350    3.3260 C.3   1001  HEM1001     0.0000
     36  CGD        2.5450    6.4920    3.4520 C.2   1001  HEM1001     0.0000
     37  O1D        1.6270    7.3490    3.3850 O.co2 1001  HEM1001     0.0000
     38  O2D        3.7550    6.7960    3.6160 O.co2 1001  HEM1001     0.0000
     39  NA         4.3490   -0.4050    5.2230 N.2   1001  HEM1001     0.0000
     40  NB         3.6380   -2.9990    4.2690 N.ar  1001  HEM1001     0.0000
     41  NC         1.0130   -1.9770    3.4010 N.2   1001  HEM1001     0.0000
     42  ND         1.6660    0.6650    4.4380 N.ar  1001  HEM1001     0.0000
     43 FE          2.6470   -1.1590    4.3410 Fe    1001  HEM1001     0.0000
@<TRIPOS>BOND
     1    28    27    2
     2    26    23    1
     3    27    24    1
     4    23    24    2
     5    23    22    1
     6    24    25    1
     7    22     3    2
     8    22    41    1
     9     3    18    1
    10    25    41    2
    11    25     4    1
    12    20    17    1
    13    20    21    2
    14    35    36    1
    15    35    34    1
    16    37    36   ar
    17    41    43    1
    18    36    38   ar
    19    33    30    1
    20     4    29    2
    21    18    17   ar
    22    18    40   ar
    23    17    16   ar
    24    30    29   ar
    25    30    31   ar
    26    29    42   ar
    27    40    43    1
    28    40    15   ar
    29    43    42    1
    30    43    39    1
    31    42    32   ar
    32    31    34    1
    33    31    32   ar
    34    16    15   ar
    35    16    19    1
    36    32     1    2
    37    15     2    1
    38    39     5    2
    39    39     8    1
    40     1     5    1
    41     2     8    2
    42     5     6    1
    43     8     7    1
    44     6     7    2
    45     6    10    1
    46     7     9    1
    47    10    11    1
    48    11    12    1
    49    12    13   ar
    50    12    14   ar
