@<TRIPOS>MOLECULE
3niz_ADP_A_1.pdb
 27 29 0 0 0
SMALL
GASTEIGER

@<TRIPOS>ATOM
      1  PB        -0.9190   13.1090   86.7060 P.3   314  ADP314      0.5373
      2  O1B       -1.5120   13.1780   85.2410 O.2   314  ADP314     -0.2221
      3  O2B       -1.9710   13.3830   87.7380 O.3   314  ADP314     -0.1143
      4  O3B       -0.3980   11.7250   87.1340 O.3   314  ADP314     -0.1143
      5  PA         0.9180   15.0280   85.8200 P.3   314  ADP314      0.2231
      6  O1A        0.9670   14.5310   84.3110 O.2   314  ADP314     -0.5169
      7  O2A        2.3900   15.4780   86.0400 O.3   314  ADP314     -0.4370
      8  O3A        0.3710   13.9920   86.8030 O.3   314  ADP314     -0.2261
      9  O5'       -0.2830   16.0250   85.9800 O.3   314  ADP314     -0.3111
     10  C5'        0.1700   17.3180   86.1150 C.3   314  ADP314      0.1813
     11  C4'       -0.5990   18.2890   85.2460 C.3   314  ADP314      0.1821
     12  O4'       -0.3660   19.5190   85.9900 O.3   314  ADP314     -0.3135
     13  C3'        0.1430   18.4480   83.9170 C.3   314  ADP314      0.2184
     14  O3'       -0.4050   17.7210   82.7830 O.3   314  ADP314     -0.2174
     15  C2'        0.3150   19.9900   83.8120 C.3   314  ADP314      0.2570
     16  O2'       -0.9690   20.5880   83.3260 O.3   314  ADP314     -0.2130
     17  C1'        0.6140   20.3640   85.3030 C.3   314  ADP314      0.3186
     18  N9         2.0570   20.2280   85.6360 N.pl3 314  ADP314     -0.1439
     19  C8         2.8030   19.0720   85.8410 C.3   314  ADP314      0.3377
     20  N7         4.0980   19.3130   86.0490 N.2   314  ADP314     -0.2095
     21  C5         4.2590   20.6690   85.9910 C.2   314  ADP314      0.2526
     22  C6         5.4030   21.5450   86.1230 C.2   314  ADP314      0.4393
     23  N6         6.6930   21.1250   86.3390 N.pl3 314  ADP314      0.2180
     24  N1         5.1950   22.9250   85.9640 N.2   314  ADP314      0.0021
     25  C2         3.9050   23.3380   85.7670 C.3   314  ADP314      0.5254
     26  N3         2.7720   22.6000   85.6180 N.2   314  ADP314     -0.0055
     27  C4         2.9900   21.2770   85.7310 C.2   314  ADP314      0.3518
@<TRIPOS>BOND
     1    14    13    1
     2    16    15    1
     3    15    13    1
     4    15    17    1
     5    13    11    1
     6     6     5    2
     7     2     1    2
     8    11    12    1
     9    11    10    1
    10    17    18    1
    11    17    12    1
    12    26    27    2
    13    26    25    1
    14    18    27    1
    15    18    19    1
    16    27    21    1
    17    25    24    1
    18     5     9    1
    19     5     7    1
    20     5     8    1
    21    19    20    1
    22    24    22    2
    23     9    10    1
    24    21    20    2
    25    21    22    1
    26    22    23    1
    27     1     8    1
    28     1     4    1
    29     1     3    1
