@<TRIPOS>MOLECULE
3nj3_XYP_A_2.pdb
 10 10 0 0 0
SMALL
GASTEIGER

@<TRIPOS>ATOM
      1  O4A       11.9640   18.3690   14.5660 O.3   346  XYP346     -0.1869
      2  C1B       12.2710   18.4170   13.1720 C.3   346  XYP346      0.3024
      3  C2B       11.3180   17.5050   12.4210 C.3   346  XYP346      0.2434
      4  C3B       11.8580   17.4630   10.9870 C.3   346  XYP346      0.2199
      5  C4B       11.8640   18.8760   10.4540 C.3   346  XYP346      0.2143
      6  C5B       12.6600   19.8600   11.3020 C.3   346  XYP346      0.1804
      7  O2B       11.1720   16.2030   13.0580 O.3   346  XYP346     -0.2148
      8  O3B       10.9580   16.7510   10.1620 O.3   346  XYP346     -0.2174
      9  O4B       12.3610   18.7750    9.1440 O.3   346  XYP346     -0.2176
     10  O5B       12.1640   19.7670   12.6540 O.3   346  XYP346     -0.3237
@<TRIPOS>BOND
     1     9     5    1
     2     8     4    1
     3     5     4    1
     4     5     6    1
     5     4     3    1
     6     6    10    1
     7     3     7    1
     8     3     2    1
     9    10     2    1
    10     2     1    1
