@<TRIPOS>MOLECULE
3nj4_AFX_A_1.pdb
 20 22 0 0 0
SMALL
GASTEIGER

@<TRIPOS>ATOM
      1  C1        28.8170   26.2590  104.9360 C.3   601  AFX601      0.2136
      2  F1        26.6900   27.0780  106.7550 F     601  AFX601     -0.2048
      3  N1        23.0360   25.3090  111.3920 N.2   601  AFX601      0.0021
      4  O1        29.4510   27.3440  105.6260 O.3   601  AFX601     -0.2150
      5  C2        24.3660   25.4990  111.4420 C.3   601  AFX601      0.5254
      6  N3        25.2600   25.3380  110.4560 N.2   601  AFX601     -0.0055
      7  C4        24.7110   24.8780  109.1150 C.2   601  AFX601      0.3503
      8  C5        23.2680   24.6590  108.9910 C.2   601  AFX601      0.2525
      9  C6        22.4510   24.9000  110.2440 C.2   601  AFX601      0.4393
     10  N6        21.1420   24.7340  110.2820 N.pl3 601  AFX601      0.2180
     11  N7        22.8980   24.2430  107.7140 N.2   601  AFX601     -0.2096
     12  C8        24.1560   24.2460  107.1460 C.3   601  AFX601      0.3362
     13  N9        25.2860   24.5990  107.8720 N.pl3 601  AFX601     -0.1625
     14  C1'       26.7250   24.7550  107.7800 C.3   601  AFX601      0.2492
     15  C2'       27.5490   23.4830  107.4010 C.3   601  AFX601      0.2615
     16  O2'       28.0520   22.7590  108.5210 O.3   601  AFX601     -0.2099
     17  C3'       28.4700   23.9590  106.2660 C.2   601  AFX601      0.2082
     18  O3'       29.3050   23.2540  105.6970 O.2   601  AFX601     -0.2887
     19  C4'       28.1640   25.4140  105.9650 C.2   601  AFX601      0.0752
     20  C5'       27.2110   25.7860  106.7910 C.2   601  AFX601      0.1644
@<TRIPOS>BOND
     1     1     4    1
     2     1    19    1
     3    18    17    2
     4    19    17    1
     5    19    20    2
     6    17    15    1
     7     2    20    1
     8    20    14    1
     9    12    11    1
    10    12    13    1
    11    15    14    1
    12    15    16    1
    13    11     8    2
    14    14    13    1
    15    13     7    1
    16     8     7    1
    17     8     9    1
    18     7     6    2
    19     9    10    1
    20     9     3    2
    21     6     5    1
    22     3     5    1
