@<TRIPOS>MOLECULE
3nj4_NAD_A_1.pdb
 44 48 0 0 0
SMALL
GASTEIGER

@<TRIPOS>ATOM
      1  PA        33.4170   20.1970   95.7260 P.3   501  NAD501      0.2189
      2  O1A       32.3870   19.2000   96.0840 O.2   501  NAD501     -0.5170
      3  O2A       34.7120   20.6170   96.3960 O.3   501  NAD501     -0.4371
      4  O5B       32.7090   21.5530   95.3460 O.3   501  NAD501     -0.3112
      5  C5B       32.5390   22.2350   94.0310 C.3   501  NAD501      0.1813
      6  C4B       32.4000   21.4960   92.8010 C.3   501  NAD501      0.1821
      7  O4B       32.2580   22.5370   91.7220 O.3   501  NAD501     -0.3135
      8  C3B       33.5720   20.5720   92.2540 C.3   501  NAD501      0.2184
      9  O3B       33.0300   19.2650   91.8520 O.3   501  NAD501     -0.2174
     10  C2B       34.2440   21.3110   91.0800 C.3   501  NAD501      0.2570
     11  O2B       34.7640   20.5670   90.0670 O.3   501  NAD501     -0.2130
     12  C1B       33.1160   22.3120   90.6860 C.3   501  NAD501      0.3186
     13  N9A       33.5850   23.6220   90.2020 N.pl3 501  NAD501     -0.1439
     14  C8A       34.6330   24.4700   90.6010 C.3   501  NAD501      0.3377
     15  N7A       34.7490   25.5840   89.9020 N.2   501  NAD501     -0.2095
     16  C5A       33.7530   25.5560   88.9540 C.2   501  NAD501      0.2526
     17  C6A       33.3620   26.5650   87.8320 C.2   501  NAD501      0.4393
     18  N6A       33.9720   27.6980   87.5880 N.pl3 501  NAD501      0.2180
     19  N1A       32.2250   26.1470   87.0320 N.2   501  NAD501      0.0021
     20  C2A       31.5180   25.0040   87.1800 C.3   501  NAD501      0.5254
     21  N3A       31.8640   24.0450   88.2170 N.2   501  NAD501     -0.0055
     22  C4A       33.0090   24.3630   89.1000 C.2   501  NAD501      0.3518
     23  O3        32.8680   20.7940   97.2300 O.3   501  NAD501     -0.2703
     24  PN        31.4910   20.8990   98.2610 P.3   501  NAD501      0.2189
     25  O1N       30.2690   20.2990   97.7960 O.2   501  NAD501     -0.5170
     26  O2N       31.6750   21.6140   99.5480 O.3   501  NAD501     -0.4371
     27  O5D       30.9330   22.3510   97.6520 O.3   501  NAD501     -0.3112
     28  C5D       31.5510   23.6910   97.6250 C.3   501  NAD501      0.1813
     29  C4D       30.9630   24.8650   98.3370 C.3   501  NAD501      0.1799
     30  O4D       29.6850   24.6460   99.1220 O.3   501  NAD501     -0.3327
     31  C3D       31.8570   25.6140   99.4320 C.3   501  NAD501      0.2158
     32  O3D       31.6830   26.9560   99.1580 O.3   501  NAD501     -0.2175
     33  C2D       31.3030   25.1420  100.7760 C.3   501  NAD501      0.2309
     34  O2D       31.7490   25.8350  101.8860 O.3   501  NAD501     -0.2158
     35  C1D       29.8460   25.2120  100.4410 C.3   501  NAD501      0.2263
     36  N1N       28.9530   24.4520  101.3640 N.pl3 501  NAD501     -0.2787
     37  C2N       27.7440   25.1150  101.7700 C.3   501  NAD501      0.1244
     38  C3N       26.9570   24.3300  102.6440 C.2   501  NAD501      0.0544
     39  C7N       25.6190   25.0870  103.0960 C.2   501  NAD501      0.2818
     40  O7N       24.8670   24.4580  103.8820 O.2   501  NAD501     -0.2670
     41  N7N       25.3570   26.4010  102.6000 N.am  501  NAD501     -0.0839
     42  C4N       27.2750   22.9760  103.1230 C.2   501  NAD501      0.0033
     43  C5N       28.5460   22.4040  102.6290 C.2   501  NAD501      0.0157
     44  C6N       29.3880   23.1290  101.7540 C.2   501  NAD501      0.0633
@<TRIPOS>BOND
     1    19    20    1
     2    19    17    2
     3    20    21    1
     4    18    17    1
     5    17    16    1
     6    21    22    2
     7    16    22    1
     8    16    15    2
     9    22    13    1
    10    15    14    1
    11    11    10    1
    12    13    14    1
    13    13    12    1
    14    12    10    1
    15    12     7    1
    16    10     8    1
    17     7     6    1
    18     9     8    1
    19     8     6    1
    20     6     5    1
    21     5     4    1
    22     4     1    1
    23     1     2    2
    24     1     3    1
    25     1    23    1
    26    23    24    1
    27    28    27    1
    28    28    29    1
    29    27    24    1
    30    25    24    2
    31    24    26    1
    32    29    30    1
    33    29    31    1
    34    30    35    1
    35    32    31    1
    36    31    33    1
    37    35    33    1
    38    35    36    1
    39    33    34    1
    40    36    44    1
    41    36    37    1
    42    44    43    2
    43    37    38    1
    44    41    39   am
    45    43    42    1
    46    38    39    1
    47    38    42    2
    48    39    40    2
