@<TRIPOS>MOLECULE
3nj8_NJ8_A_1.pdb
 20 21 0 0 0
SMALL
GASTEIGER

@<TRIPOS>ATOM
      1  C1        29.4020   53.2410   67.8870 C.ar  501  NJ8501      0.0410
      2  C2        28.8100   54.3690   67.3280 C.ar  501  NJ8501     -0.0188
      3  C3        27.4270   54.4310   67.1850 C.ar  501  NJ8501     -0.0009
      4  C4        26.6390   53.3640   67.6020 C.ar  501  NJ8501      0.0405
      5  C5        27.2360   52.2340   68.1530 C.ar  501  NJ8501      0.1839
      6  C6        28.6130   52.1740   68.3010 C.ar  501  NJ8501      0.2295
      7  O7        26.4610   51.1830   68.5680 O.3   501  NJ8501     -0.4494
      8  C8        26.2080   51.0800   69.9060 C.ar  501  NJ8501      0.1559
      9  C9        25.4860   50.0230   70.4380 C.ar  501  NJ8501      0.0928
     10  C10       25.2530   49.9580   71.8050 C.ar  501  NJ8501      0.0247
     11  C11       25.7470   50.9570   72.6330 C.ar  501  NJ8501      0.0695
     12  C12       26.4690   52.0150   72.1020 C.ar  501  NJ8501      0.0135
     13  C13       26.6990   52.0750   70.7390 C.ar  501  NJ8501      0.0391
     14  C15       25.5570   50.9360   73.9030 C.1   501  NJ8501      0.1004
     15 CL16       24.8400   48.7200   69.3940 Cl    501  NJ8501     -0.0790
     16  O17       29.1900   51.0680   68.8490 O.3   501  NJ8501     -0.2833
     17  N20       25.3960   50.8830   75.0540 N.1   501  NJ8501     -0.1908
     18  C21       29.6720   55.5250   66.8780 C.3   501  NJ8501      0.0265
     19  C22       28.8450   56.8030   66.8000 C.3   501  NJ8501      0.0047
     20  C23       29.3640   57.8460   67.7680 C.3   501  NJ8501      0.0004
@<TRIPOS>BOND
     1    19    18    1
     2    19    20    1
     3    18     2    1
     4     3     2   ar
     5     3     4   ar
     6     2     1   ar
     7     4     5   ar
     8     1     6   ar
     9     5     6   ar
    10     5     7    1
    11     6    16    1
    12     7     8    1
    13    15     9    1
    14     8     9   ar
    15     8    13   ar
    16     9    10   ar
    17    13    12   ar
    18    10    11   ar
    19    12    11   ar
    20    11    14    1
    21    14    17    3
