@<TRIPOS>MOLECULE
3nj8_NAD_A_1.pdb
 44 48 0 0 0
SMALL
GASTEIGER

@<TRIPOS>ATOM
      1  PA        21.4730   48.4030   67.0420 P.3   316  NAD316      0.2189
      2  O1A       20.7990   49.5940   66.4880 O.3   316  NAD316     -0.4371
      3  O2A       21.0410   47.1620   66.3620 O.2   316  NAD316     -0.5170
      4  O5B       21.2550   48.3250   68.6300 O.3   316  NAD316     -0.3112
      5  C5B       21.8390   47.2470   69.3140 C.3   316  NAD316      0.1813
      6  C4B       21.4040   46.0030   68.5640 C.3   316  NAD316      0.1821
      7  O4B       21.9820   44.8660   69.1640 O.3   316  NAD316     -0.3135
      8  C3B       19.8940   45.8710   68.6680 C.3   316  NAD316      0.2184
      9  O3B       19.3500   45.4750   67.4270 O.3   316  NAD316     -0.2174
     10  C2B       19.6710   44.8290   69.7460 C.3   316  NAD316      0.2570
     11  O2B       18.6950   43.8900   69.3570 O.3   316  NAD316     -0.2130
     12  C1B       21.0250   44.1530   69.9210 C.3   316  NAD316      0.3186
     13  N9A       21.4410   44.1640   71.3320 N.pl3 316  NAD316     -0.1439
     14  C8A       21.7380   45.2570   72.1040 C.3   316  NAD316      0.3377
     15  N7A       22.0800   44.8230   73.3390 N.2   316  NAD316     -0.2095
     16  C5A       22.0100   43.4710   73.3620 C.2   316  NAD316      0.2526
     17  C6A       22.2540   42.5280   74.3570 C.2   316  NAD316      0.4393
     18  N6A       22.9230   42.8880   75.4490 N.pl3 316  NAD316      0.2180
     19  N1A       22.0900   41.1840   74.0750 N.2   316  NAD316      0.0021
     20  C2A       21.6910   40.7820   72.8150 C.3   316  NAD316      0.5254
     21  N3A       21.4540   41.7250   71.8340 N.2   316  NAD316     -0.0055
     22  C4A       21.6100   43.0460   72.1030 C.2   316  NAD316      0.3518
     23  O3        23.0590   48.5930   66.9340 O.3   316  NAD316     -0.2703
     24  PN        23.6720   49.1530   65.5680 P.3   316  NAD316      0.2189
     25  O1N       24.3050   50.4610   65.8510 O.3   316  NAD316     -0.4371
     26  O2N       22.6090   49.0430   64.5470 O.2   316  NAD316     -0.5170
     27  O5D       24.8140   48.0670   65.2340 O.3   316  NAD316     -0.3112
     28  C5D       25.0790   46.9990   66.1180 C.3   316  NAD316      0.1813
     29  C4D       26.5850   46.8030   66.2110 C.3   316  NAD316      0.1799
     30  O4D       27.2260   47.7180   65.3450 O.3   316  NAD316     -0.3327
     31  C3D       27.0920   47.0920   67.6140 C.3   316  NAD316      0.2158
     32  O3D       27.9780   46.0770   68.0260 O.3   316  NAD316     -0.2175
     33  C2D       27.8440   48.4010   67.4880 C.3   316  NAD316      0.2309
     34  O2D       28.9690   48.4170   68.3350 O.3   316  NAD316     -0.2158
     35  C1D       28.2640   48.3920   66.0300 C.3   316  NAD316      0.2263
     36  N1N       28.5030   49.7550   65.5080 N.pl3 316  NAD316     -0.2787
     37  C2N       27.4740   50.6510   65.3850 C.3   316  NAD316      0.1244
     38  C3N       27.7150   51.9310   64.8920 C.2   316  NAD316      0.0544
     39  C7N       26.5660   52.8280   64.5320 C.2   316  NAD316      0.2818
     40  O7N       26.8260   54.0150   63.8170 O.2   316  NAD316     -0.2670
     41  N7N       25.3260   52.4910   64.8930 N.am  316  NAD316     -0.0839
     42  C4N       29.0070   52.2940   64.5260 C.2   316  NAD316      0.0033
     43  C5N       30.0430   51.3760   64.6520 C.2   316  NAD316      0.0157
     44  C6N       29.7760   50.1060   65.1460 C.2   316  NAD316      0.0633
@<TRIPOS>BOND
     1    40    39    2
     2    42    43    1
     3    42    38    2
     4    39    38    1
     5    39    41   am
     6    26    24    2
     7    43    44    2
     8    38    37    1
     9    44    36    1
    10    27    24    1
    11    27    28    1
    12    30    35    1
    13    30    29    1
    14    37    36    1
    15    36    35    1
    16    24    25    1
    17    24    23    1
    18    35    33    1
    19    28    29    1
    20    29    31    1
    21     3     1    2
    22     2     1    1
    23    23     1    1
    24     1     4    1
    25     9     8    1
    26    33    31    1
    27    33    34    1
    28    31    32    1
    29     6     8    1
    30     6     7    1
    31     6     5    1
    32     4     5    1
    33     8    10    1
    34     7    12    1
    35    11    10    1
    36    10    12    1
    37    12    13    1
    38    13    22    1
    39    13    14    1
    40    21    22    2
    41    21    20    1
    42    22    16    1
    43    14    15    1
    44    20    19    1
    45    15    16    2
    46    16    17    1
    47    19    17    2
    48    17    18    1
