@<TRIPOS>MOLECULE
3njo_PYV_A_1.pdb
 22 24 0 0 0
SMALL
GASTEIGER

@<TRIPOS>ATOM
      1  S         10.2350   -5.8950   11.0790 S.O2  300  PYV300      0.0772
      2 BR          5.0050   -3.7720   13.0810 Br    300  PYV300     -0.0490
      3  C1         6.5380   -4.5510   12.3930 C.ar  300  PYV300      0.0346
      4  N1        10.9600   -6.5190   12.3140 N.3   300  PYV300     -0.0713
      5  O1        10.0900   -6.8780   10.1060 O.2   300  PYV300     -0.1516
      6  C2         7.6650   -3.8400   12.6740 C.ar  300  PYV300      0.0075
      7  N2        10.0460   -6.4350   14.6770 N.ar  300  PYV300     -0.2467
      8  O2        10.8360   -4.7270   10.6320 O.2   300  PYV300     -0.1516
      9  C3         8.8390   -4.3070   12.2200 C.ar  300  PYV300      0.0191
     10  C4         8.8410   -5.4710   11.5100 C.ar  300  PYV300      0.1236
     11  C5         7.7150   -6.2390   11.2170 C.ar  300  PYV300      0.0205
     12  C6         6.5080   -5.7500   11.6790 C.ar  300  PYV300      0.0081
     13  C7        10.0090   -3.6330   12.4760 C.ar  300  PYV300      0.0013
     14  C8         9.9790   -2.4570   13.2080 C.ar  300  PYV300      0.0000
     15  C9         8.7630   -1.9820   13.6660 C.ar  300  PYV300      0.0000
     16  C10        7.5980   -2.6720   13.3910 C.ar  300  PYV300      0.0005
     17  C11       10.5480   -7.8230   12.7500 C.3   300  PYV300      0.1608
     18  C12        9.8730   -7.6150   14.0690 C.ar  300  PYV300      0.0785
     19  C13        9.4580   -6.1860   15.8320 C.ar  300  PYV300      0.0985
     20  C14        8.6730   -7.1510   16.4270 C.ar  300  PYV300      0.0207
     21  C15        8.4790   -8.3600   15.8210 C.ar  300  PYV300      0.0029
     22  C16        9.0870   -8.5970   14.6150 C.ar  300  PYV300      0.0163
@<TRIPOS>BOND
     1     5     1    2
     2     8     1    2
     3     1    10    1
     4     1     4    1
     5    11    10   ar
     6    11    12   ar
     7    10     9   ar
     8    12     3   ar
     9     9    13   ar
    10     9     6   ar
    11     4    17    1
    12     3     6   ar
    13     3     2    1
    14    13    14   ar
    15     6    16   ar
    16    17    18    1
    17    14    15   ar
    18    16    15   ar
    19    18    22   ar
    20    18     7   ar
    21    22    21   ar
    22     7    19   ar
    23    21    20   ar
    24    19    20   ar
