@<TRIPOS>MOLECULE
3njo_P2M_B_1.pdb
 21 23 0 0 0
SMALL
GASTEIGER

@<TRIPOS>ATOM
      1  S         -9.0030    2.6370   17.7820 S.O2  300  P2M300      0.0772
      2  C1        -5.8480    1.4610   15.1040 C.ar  300  P2M300      0.0001
      3  N1       -10.3520    2.7490   16.8820 N.3   300  P2M300     -0.0713
      4  O1        -9.2070    1.7090   18.7470 O.2   300  P2M300     -0.1516
      5  C2        -6.4090    2.7170   14.9570 C.ar  300  P2M300      0.0013
      6  N2       -10.4110    2.6700   14.0060 N.ar  300  P2M300     -0.2467
      7  O2        -8.6770    3.9130   18.1080 O.2   300  P2M300     -0.1516
      8  C3        -7.3980    3.0810   15.8580 C.ar  300  P2M300      0.0187
      9  C4        -7.8420    2.1520   16.8080 C.ar  300  P2M300      0.1235
     10  C5        -7.1930    0.9940   16.9840 C.ar  300  P2M300      0.0200
     11  C6        -6.1680    0.6180   16.1110 C.ar  300  P2M300      0.0014
     12  C7        -8.0760    4.2960   15.6780 C.ar  300  P2M300      0.0013
     13  C8        -7.7410    5.1270   14.6690 C.ar  300  P2M300      0.0000
     14  C9        -6.6700    4.7830   13.8110 C.ar  300  P2M300      0.0000
     15  C10       -6.0130    3.6010   13.9470 C.ar  300  P2M300      0.0000
     16  C11      -11.0410    1.7000   16.1580 C.3   300  P2M300      0.1608
     17  C12      -10.6630    1.5800   14.7150 C.ar  300  P2M300      0.0785
     18  C13       -9.8830    2.5210   12.7960 C.ar  300  P2M300      0.0985
     19  C14       -9.6780    1.3020   12.1990 C.ar  300  P2M300      0.0207
     20  C15       -9.9090    0.1910   12.9520 C.ar  300  P2M300      0.0029
     21  C16      -10.4190    0.3280   14.2200 C.ar  300  P2M300      0.0163
@<TRIPOS>BOND
     1    19    18   ar
     2    19    20   ar
     3    18     6   ar
     4    20    21   ar
     5    14    15   ar
     6    14    13   ar
     7    15     5   ar
     8     6    17   ar
     9    21    17   ar
    10    13    12   ar
    11    17    16    1
    12     5     2   ar
    13     5     8   ar
    14     2    11   ar
    15    12     8   ar
    16     8     9   ar
    17    11    10   ar
    18    16     3    1
    19     9    10   ar
    20     9     1    1
    21     3     1    1
    22     1     7    2
    23     1     4    2
