@<TRIPOS>MOLECULE
3njq_NJQ_A_1.pdb
 32 35 0 0 0
SMALL
GASTEIGER

@<TRIPOS>ATOM
      1  C1       -26.9830  -21.1580  -44.3270 C.3   197  NJQ197      0.0539
      2  C2       -28.2630  -21.7060  -43.6570 C.ar  197  NJQ197     -0.0022
      3  C3       -28.4140  -23.1050  -43.6660 C.ar  197  NJQ197      0.0039
      4  C4       -29.5390  -23.7150  -43.1140 C.ar  197  NJQ197      0.0796
      5  C5       -30.4860  -22.9100  -42.5280 C.ar  197  NJQ197      0.0079
      6  C6       -30.3600  -21.4940  -42.5130 C.ar  197  NJQ197      0.0165
      7  C7       -29.2540  -20.8900  -43.0860 C.ar  197  NJQ197      0.0701
      8  N8       -29.0750  -19.5460  -43.0490 N.am  197  NJQ197     -0.1738
      9  C9       -29.7390  -25.2850  -43.1010 C.2   197  NJQ197      0.3877
     10  O10      -29.0290  -25.9920  -43.8320 O.co2 197  NJQ197     -0.2406
     11  O11      -30.5940  -25.7490  -42.3170 O.co2 197  NJQ197     -0.2406
     12  C15      -25.8520  -20.8880  -43.3370 C.ar  197  NJQ197     -0.0177
     13  C18      -23.7570  -20.3320  -41.5830 C.ar  197  NJQ197     -0.0000
     14  C19      -23.5420  -20.6170  -42.9210 C.ar  197  NJQ197     -0.0003
     15  C20      -24.5640  -20.8650  -43.8080 C.ar  197  NJQ197     -0.0039
     16  C21      -26.0730  -20.6100  -42.0070 C.ar  197  NJQ197     -0.0039
     17  C22      -25.0570  -20.3280  -41.1070 C.ar  197  NJQ197     -0.0003
     18  C28      -29.9110  -18.5550  -42.7370 C.2   197  NJQ197      0.2948
     19  O29      -31.1000  -18.6540  -42.4380 O.2   197  NJQ197     -0.2655
     20  C30      -29.2230  -17.1910  -42.7210 C.2   197  NJQ197      0.1679
     21  C32      -29.9310  -16.0060  -42.4750 C.3   197  NJQ197      0.0899
     22  C33      -29.2200  -14.7970  -42.4220 C.2   197  NJQ197     -0.0162
     23  C34      -27.8400  -14.8210  -42.6210 C.2   197  NJQ197      0.0234
     24  C35      -27.1720  -16.0420  -42.8460 C.2   197  NJQ197      0.1085
     25  N36      -27.8800  -17.1860  -42.8710 N.2   197  NJQ197     -0.4056
     26  C37      -25.6460  -16.0700  -43.0450 C.3   197  NJQ197      0.0590
     27  C41      -25.1390  -16.8550  -44.2560 C.3   197  NJQ197      0.0070
     28  C44      -23.6150  -16.9090  -44.2230 C.3   197  NJQ197      0.0004
     29  C45      -25.4380  -16.1510  -45.5330 C.3   197  NJQ197      0.0004
     30  C47      -23.6200  -17.3030  -46.8160 C.3   197  NJQ197      0.0000
     31  C48      -25.1220  -17.1380  -46.6740 C.3   197  NJQ197      0.0000
     32  C57      -23.0040  -17.6150  -45.4720 C.3   197  NJQ197      0.0000
@<TRIPOS>BOND
     1    30    31    1
     2    30    32    1
     3    31    29    1
     4    29    27    1
     5    32    28    1
     6     1     2    1
     7     1    12    1
     8    27    28    1
     9    27    26    1
    10    10     9   ar
    11    15    12   ar
    12    15    14   ar
    13     3     2   ar
    14     3     4   ar
    15     2     7   ar
    16    12    16   ar
    17     4     9    1
    18     4     5   ar
    19     9    11   ar
    20     7     8    1
    21     7     6   ar
    22     8    18   am
    23    26    24    1
    24    14    13   ar
    25    25    24    2
    26    25    20    2
    27    24    23    1
    28    18    20    1
    29    18    19    2
    30    20    21    1
    31    23    22    2
    32     5     6   ar
    33    21    22    1
    34    16    17   ar
    35    13    17   ar
