@<TRIPOS>MOLECULE
3njr_SAH_A_1.pdb
 26 28 0 0 0
SMALL
GASTEIGER

@<TRIPOS>ATOM
      1  N         37.1670   -5.2320  -24.1720 N.3   300  SAH300     -0.1208
      2  CA        36.7490   -3.7960  -24.1700 C.3   300  SAH300      0.1952
      3  CB        35.9850   -3.4800  -25.4580 C.3   300  SAH300      0.0422
      4  CG        36.6670   -2.3900  -26.2930 C.3   300  SAH300      0.0597
      5  SD        37.3640   -3.0820  -27.7650 S.3   300  SAH300     -0.1375
      6  C         35.9340   -3.4860  -22.9360 C.2   300  SAH300      0.3819
      7  O         35.8400   -2.3480  -22.4770 O.co2 300  SAH300     -0.2441
      8  OXT       35.3340   -4.3620  -22.3260 O.co2 300  SAH300     -0.2441
      9  C5'       38.0330   -1.6870  -28.6390 C.3   300  SAH300      0.0899
     10  C4'       39.2500   -1.0390  -27.9600 C.3   300  SAH300      0.1630
     11  O4'       40.5080   -1.6110  -28.3660 O.3   300  SAH300     -0.3153
     12  C3'       39.3250    0.4450  -28.3050 C.3   300  SAH300      0.2168
     13  O3'       39.2370    1.2090  -27.1070 O.3   300  SAH300     -0.2175
     14  C2'       40.6820    0.6620  -28.9510 C.3   300  SAH300      0.2569
     15  O2'       41.3190    1.8810  -28.5410 O.3   300  SAH300     -0.2130
     16  C1'       41.4790   -0.5610  -28.5180 C.3   300  SAH300      0.3185
     17  N9        42.5940   -0.8400  -29.4750 N.pl3 300  SAH300     -0.1439
     18  C8        42.5510   -0.6730  -30.8150 C.3   300  SAH300      0.3377
     19  N7        43.7340   -0.9910  -31.3930 N.2   300  SAH300     -0.2095
     20  C5        44.5720   -1.3700  -30.4110 C.2   300  SAH300      0.2526
     21  C6        45.9770   -1.8440  -30.3250 C.2   300  SAH300      0.4393
     22  N6        46.7060   -1.9600  -31.4550 N.pl3 300  SAH300      0.2180
     23  N1        46.4980   -2.1490  -29.1050 N.2   300  SAH300      0.0021
     24  C2        45.7620   -2.0270  -27.9830 C.3   300  SAH300      0.5254
     25  N3        44.4790   -1.6050  -27.9940 N.2   300  SAH300     -0.0055
     26  C4        43.8270   -1.2680  -29.1470 C.2   300  SAH300      0.3518
@<TRIPOS>BOND
     1    22    21    1
     2    19    18    1
     3    19    20    2
     4    18    17    1
     5    20    21    1
     6    20    26    1
     7    21    23    2
     8    17    26    1
     9    17    16    1
    10    26    25    2
    11    23    24    1
    12    14    15    1
    13    14    16    1
    14    14    12    1
    15     9    10    1
    16     9     5    1
    17    16    11    1
    18    11    10    1
    19    12    10    1
    20    12    13    1
    21    25    24    1
    22     5     4    1
    23     4     3    1
    24     3     2    1
    25     1     2    1
    26     2     6    1
    27     6     7   ar
    28     6     8   ar
