@<TRIPOS>MOLECULE
3njs_LAT_A_1.pdb
 23 24 0 0 0
SMALL
GASTEIGER

@<TRIPOS>ATOM
      1  C1        -7.8910   21.6860    4.7860 C.3   249  LAT249      0.2695
      2  C2        -7.6230   21.6660    3.2180 C.3   249  LAT249      0.2406
      3  C3        -6.1010   21.2770    2.8870 C.3   249  LAT249      0.2198
      4  C4        -5.0050   21.5880    4.0330 C.3   249  LAT249      0.2144
      5  C5        -5.6470   21.3920    5.3940 C.3   249  LAT249      0.1835
      6  C6        -4.9490   21.6490    6.7220 C.3   249  LAT249      0.2142
      7  O1        -9.1350   22.3380    5.2240 O.3   249  LAT249     -0.3257
      8  O2        -8.7210   21.0650    2.3740 O.3   249  LAT249     -0.2149
      9  O3        -5.7580   21.6080    1.4170 O.3   249  LAT249     -0.2174
     10  O4        -4.3620   22.8890    4.1310 O.3   249  LAT249     -0.2176
     11  O5        -6.7330   22.3050    5.4190 O.3   249  LAT249     -0.3256
     12  O6        -5.7510   21.0040    7.7500 O.3   249  LAT249     -0.2176
     13  C1'      -11.8720   22.6000    8.5390 C.3   249  LAT249      0.3023
     14  C2'      -10.4500   23.1870    8.8660 C.3   249  LAT249      0.2433
     15  C3'       -9.4150   23.1710    7.6860 C.3   249  LAT249      0.2168
     16  C4'       -9.6980   22.0960    6.5580 C.3   249  LAT249      0.1804
     17  C5'      -11.2330   21.9500    6.4190 C.3   249  LAT249      0.1804
     18  C6'      -11.6640   21.1640    5.1890 C.3   249  LAT249      0.2141
     19  O1'      -12.6770   22.3230    9.7070 O.3   249  LAT249     -0.1869
     20  O2'      -10.5160   24.5400    9.3950 O.3   249  LAT249     -0.2148
     21  O3'       -8.0650   23.1410    8.2310 O.3   249  LAT249     -0.2175
     22  O5'      -11.7790   21.4450    7.6640 O.3   249  LAT249     -0.3237
     23  O6'      -12.8750   20.4990    5.5550 O.3   249  LAT249     -0.2176
@<TRIPOS>BOND
     1     9     3    1
     2     8     2    1
     3     3     2    1
     4     3     4    1
     5     2     1    1
     6     4    10    1
     7     4     5    1
     8     1     7    1
     9     1    11    1
    10    18    23    1
    11    18    17    1
    12     7    16    1
    13     5    11    1
    14     5     6    1
    15    17    16    1
    16    17    22    1
    17    16    15    1
    18     6    12    1
    19    22    13    1
    20    15    21    1
    21    15    14    1
    22    13    14    1
    23    13    19    1
    24    14    20    1
