@<TRIPOS>MOLECULE
3nju_ANN_A_1.pdb
 11 11 0 0 0
SMALL
GASTEIGER

@<TRIPOS>ATOM
      1  C8        -6.4430  -13.9920   -3.1520 C.3   121  ANN121      0.2525
      2  O3        -6.8570  -13.1760   -2.0470 O.3   121  ANN121     -0.4714
      3  C5        -6.4480  -11.8660   -2.0080 C.ar  121  ANN121      0.1387
      4  C6        -5.9820  -11.3140   -0.8220 C.ar  121  ANN121      0.0371
      5  C7        -5.5630   -9.9830   -0.8030 C.ar  121  ANN121      0.0097
      6  C2        -5.6000   -9.1980   -1.9660 C.ar  121  ANN121      0.0800
      7  C3        -6.0650   -9.7540   -3.1560 C.ar  121  ANN121      0.0097
      8  C4        -6.4980  -11.0850   -3.1630 C.ar  121  ANN121      0.0371
      9  C1        -5.1520   -7.7620   -1.8850 C.2   121  ANN121      0.3878
     10  O1        -4.7290   -7.1500   -2.8940 O.co2 121  ANN121     -0.2406
     11  O2        -5.2310   -7.2020   -0.7600 O.co2 121  ANN121     -0.2406
@<TRIPOS>BOND
     1     8     7   ar
     2     8     3   ar
     3     7     6   ar
     4     1     2    1
     5    10     9   ar
     6     2     3    1
     7     3     4   ar
     8     6     9    1
     9     6     5   ar
    10     9    11   ar
    11     4     5   ar
