@<TRIPOS>MOLECULE
3njv_GTR_A_1.pdb
 12 12 0 0 0
SMALL
GASTEIGER

@<TRIPOS>ATOM
      1  C1        23.3710    4.4200   36.5300 C.3   510  GTR510      0.3026
      2  C2        23.9800    4.1810   37.9150 C.3   510  GTR510      0.2409
      3  C3        24.9100    2.9700   37.8870 C.3   510  GTR510      0.1903
      4  C4        24.1550    1.7670   37.3300 C.3   510  GTR510      0.0771
      5  C5        23.6520    2.1010   35.9250 C.3   510  GTR510      0.2228
      6  C6        22.9100    0.9220   35.3040 C.2   510  GTR510      0.3915
      7  O1        24.3530    4.9350   35.6490 O.3   510  GTR510     -0.1869
      8  O2        24.6980    5.3210   38.3200 O.3   510  GTR510     -0.2149
      9  O3        25.4240    2.6980   39.1700 O.3   510  GTR510     -0.2201
     10  O5        22.8000    3.2380   35.9900 O.3   510  GTR510     -0.3173
     11  O61       21.7470    1.1170   34.8960 O.co2 510  GTR510     -0.2430
     12  O62       23.4880   -0.1860   35.2420 O.co2 510  GTR510     -0.2430
@<TRIPOS>BOND
     1    11     6   ar
     2    12     6   ar
     3     6     5    1
     4     7     1    1
     5     5    10    1
     6     5     4    1
     7    10     1    1
     8     1     2    1
     9     4     3    1
    10     3     2    1
    11     3     9    1
    12     2     8    1
