@<TRIPOS>MOLECULE
3njv_RAM_A_1.pdb
 11 11 0 0 0
SMALL
GASTEIGER

@<TRIPOS>ATOM
      1  C1        22.8540    0.1120   38.6340 C.3   509  RAM509      0.3023
      2  C2        23.7800   -0.2070   39.8020 C.3   509  RAM509      0.2434
      3  C3        23.4420    0.6800   41.0000 C.3   509  RAM509      0.2198
      4  C4        21.9560    0.5910   41.3710 C.3   509  RAM509      0.2118
      5  C5        21.0650    0.7910   40.1350 C.3   509  RAM509      0.1509
      6  C6        19.6180    0.4230   40.4550 C.3   509  RAM509      0.0350
      7  O1        23.1480    1.3980   38.1280 O.3   509  RAM509     -0.1869
      8  O2        23.6110   -1.5690   40.1170 O.3   509  RAM509     -0.2148
      9  O3        24.2640    0.3420   42.0890 O.3   509  RAM509     -0.2174
     10  O4        21.6410    1.5500   42.3650 O.3   509  RAM509     -0.2177
     11  O5        21.4910   -0.0020   39.0270 O.3   509  RAM509     -0.3264
@<TRIPOS>BOND
     1     7     1    1
     2     1    11    1
     3     1     2    1
     4    11     5    1
     5     2     8    1
     6     2     3    1
     7     5     6    1
     8     5     4    1
     9     3     4    1
    10     3     9    1
    11     4    10    1
