@<TRIPOS>MOLECULE
3njy_8XQ_A_1.pdb
 14 15 0 0 0
SMALL
GASTEIGER

@<TRIPOS>ATOM
      1  OAA       24.1250  -22.9420   -3.2330 O.co2 360  8XQ360     -0.2406
      2  OAB       23.3040  -21.3210   -4.4660 O.co2 360  8XQ360     -0.2406
      3  OAC       29.1620  -21.7440   -6.8710 O.3   360  8XQ360     -0.2850
      4  CAD       24.8510  -19.2560   -7.2630 C.ar  360  8XQ360      0.0207
      5  CAE       26.0690  -19.1980   -7.9050 C.ar  360  8XQ360      0.0989
      6  CAF       27.8230  -22.7330   -5.2340 C.ar  360  8XQ360      0.0438
      7  CAG       26.6040  -22.8130   -4.5570 C.ar  360  8XQ360      0.0100
      8  CAH       24.6630  -20.1800   -6.2560 C.ar  360  8XQ360      0.0034
      9  NAI       27.0460  -20.0150   -7.5690 N.ar  360  8XQ360     -0.2406
     10  CAJ       24.2310  -22.0830   -4.1370 C.2   360  8XQ360      0.3878
     11  CAK       27.9750  -21.7940   -6.2460 C.ar  360  8XQ360      0.2131
     12  CAL       25.5500  -21.9630   -4.8870 C.ar  360  8XQ360      0.0814
     13  CAM       25.7090  -21.0280   -5.9040 C.ar  360  8XQ360      0.0272
     14  CAN       26.9210  -20.9330   -6.5880 C.ar  360  8XQ360      0.1203
@<TRIPOS>BOND
     1     5     9   ar
     2     5     4   ar
     3     9    14   ar
     4     4     8   ar
     5     3    11    1
     6    14    11   ar
     7    14    13   ar
     8     8    13   ar
     9    11     6   ar
    10    13    12   ar
    11     6     7   ar
    12    12     7   ar
    13    12    10    1
    14     2    10   ar
    15    10     1   ar
