@<TRIPOS>MOLECULE
3nk0_HNK_X_1.pdb
 13 14 0 0 0
SMALL
GASTEIGER

@<TRIPOS>ATOM
      1  N1       -44.4210   15.3370   67.0850 N.2   433  HNK433     -0.1750
      2  C2       -43.3190   16.1090   67.0320 C.2   433  HNK433      0.1081
      3  C3       -43.4760   17.4760   67.3470 C.2   433  HNK433      0.0129
      4  C4       -44.7220   18.0030   67.7120 C.2   433  HNK433      0.0110
      5  C5       -45.8390   17.1620   67.7810 C.2   433  HNK433      0.0938
      6  C6       -45.6420   15.8020   67.4580 C.1   433  HNK433      0.1551
      7  O6       -46.6890   14.9540   67.4890 O.2   433  HNK433     -0.2219
      8  C7       -42.3370   18.4180   67.3500 C.3   433  HNK433      0.0817
      9  C8       -41.6010   18.5570   68.6760 C.3   433  HNK433      0.0220
     10  C9       -40.2460   19.1600   68.2110 C.3   433  HNK433      0.0191
     11  C10      -40.1270   18.9510   66.7060 C.3   433  HNK433      0.0724
     12  N11      -41.2850   18.0660   66.4320 N.3   433  HNK433     -0.2691
     13  C12      -41.8140   18.4410   65.1450 C.3   433  HNK433      0.0899
@<TRIPOS>BOND
     1    13    12    1
     2    12    11    1
     3    12     8    1
     4    11    10    1
     5     2     1    1
     6     2     3    2
     7     1     6    2
     8     3     8    1
     9     3     4    1
    10     8     9    1
    11     6     7    2
    12     6     5    1
    13     4     5    2
    14    10     9    1
