@<TRIPOS>MOLECULE
3nk0_HNM_X_1.pdb
 14 14 0 0 0
SMALL
GASTEIGER

@<TRIPOS>ATOM
      1  N1       -50.3940   14.9620   73.8130 N.2   436  HNM436     -0.1746
      2  C2       -50.1660   13.7680   74.4090 C.2   436  HNM436      0.1139
      3  C3       -49.6690   12.6300   73.7560 C.2   436  HNM436      0.0554
      4  C4       -49.4250   12.7780   72.3730 C.2   436  HNM436      0.0168
      5  C5       -49.6630   14.0250   71.7420 C.2   436  HNM436      0.0942
      6  C6       -50.1460   15.1160   72.5020 C.1   436  HNM436      0.1552
      7  O6       -50.4130   16.3370   71.9960 O.2   436  HNM436     -0.2219
      8  C7       -49.5210   11.3310   74.5490 C.2   436  HNM436      0.1746
      9  O7       -49.6150   10.1940   74.0440 O.2   436  HNM436     -0.2913
     10  C8       -49.2730   11.2920   76.0380 C.3   436  HNM436      0.0707
     11  C9       -49.4700   12.5990   76.7770 C.3   436  HNM436      0.0269
     12  C10      -48.4940   13.7150   76.3870 C.3   436  HNM436      0.0892
     13  N11      -48.8150   14.8550   77.2210 N.3   436  HNM436     -0.2165
     14  C12      -50.2100   15.2170   77.5010 C.3   436  HNM436      0.1075
@<TRIPOS>BOND
     1     5     4    2
     2     5     6    1
     3     7     6    2
     4     4     3    1
     5     6     1    2
     6     3     2    2
     7     3     8    1
     8     1     2    1
     9     9     8    2
    10     8    10    1
    11    10    11    1
    12    12    11    1
    13    12    13    1
    14    13    14    1
