@<TRIPOS>MOLECULE
3nk0_GP7_X_1.pdb
 43 42 0 0 0
SMALL
GASTEIGER

@<TRIPOS>ATOM
      1  P        -53.3400    5.9630   84.6510 P.3   435  GP7435      0.5327
      2  C1       -53.4340    5.5090   82.0150 C.3   435  GP7435      0.2010
      3  C2       -51.9080    5.4310   81.8610 C.3   435  GP7435      0.2422
      4  O2       -51.6000    6.0010   80.6230 O.3   435  GP7435     -0.4457
      5  C3       -51.4440    3.9870   81.7880 C.3   435  GP7435      0.2543
      6  O3       -50.0270    4.0500   81.6580 O.3   435  GP7435     -0.4444
      7  C11      -49.1530    3.0410   82.2280 C.2   435  GP7435      0.3171
      8  O11      -49.3770    1.8590   81.9980 O.2   435  GP7435     -0.2501
      9  C12      -47.9970    3.4730   83.0890 C.3   435  GP7435      0.1096
     10  C13      -46.9410    2.3790   83.0920 C.3   435  GP7435      0.0116
     11  C14      -45.7370    2.5870   82.1550 C.3   435  GP7435      0.0006
     12  C15      -44.3920    2.2980   82.8460 C.3   435  GP7435      0.0000
     13  C16      -43.1510    2.8810   82.1120 C.3   435  GP7435      0.0000
     14  C17      -42.2500    1.8110   81.5090 C.3   435  GP7435      0.0000
     15  C18      -41.1060    2.2640   80.6320 C.3   435  GP7435      0.0000
     16  C19      -41.4870    1.8080   79.2250 C.3   435  GP7435      0.0000
     17  O1P      -52.1290    6.8210   84.7240 O.3   435  GP7435     -0.1145
     18  C20      -40.9600    2.7100   78.1500 C.3   435  GP7435      0.0000
     19  C21      -41.8320    2.4890   76.9350 C.3   435  GP7435      0.0000
     20  C22      -41.1230    2.0730   75.6520 C.3   435  GP7435      0.0000
     21  C23      -42.1090    1.9280   74.4650 C.3   435  GP7435      0.0000
     22  C24      -41.7880    0.7260   73.5600 C.3   435  GP7435      0.0000
     23  C25      -40.2960    0.2550   73.5800 C.3   435  GP7435      0.0000
     24  O2P      -54.3450    6.4930   85.6710 O.3   435  GP7435     -0.1145
     25  C31      -50.4350    6.8520   80.5310 C.2   435  GP7435      0.3171
     26  O31      -50.5460    8.0860   80.5880 O.2   435  GP7435     -0.2501
     27  C32      -49.1330    6.1350   80.3180 C.3   435  GP7435      0.1096
     28  C33      -48.0470    7.1040   79.9600 C.3   435  GP7435      0.0116
     29  C34      -48.2970    7.6080   78.5500 C.3   435  GP7435      0.0006
     30  C35      -46.9710    7.6180   77.7940 C.3   435  GP7435      0.0000
     31  C36      -47.2270    7.3500   76.3160 C.3   435  GP7435      0.0000
     32  C37      -46.1150    7.8100   75.3950 C.3   435  GP7435      0.0000
     33  C38      -45.1420    6.6880   75.2610 C.3   435  GP7435      0.0000
     34  C39      -44.1350    6.9640   74.1850 C.3   435  GP7435      0.0000
     35  O3P      -53.8510    6.2920   83.1520 O.3   435  GP7435     -0.2662
     36  C40      -43.0340    5.8960   74.1470 C.3   435  GP7435      0.0000
     37  C41      -42.4340    5.7290   72.7130 C.3   435  GP7435      0.0000
     38  C42      -41.6960    7.0080   72.2750 C.3   435  GP7435      0.0000
     39  C43      -40.7100    6.6460   71.2010 C.3   435  GP7435      0.0000
     40  C44      -39.8160    7.8890   70.8990 C.3   435  GP7435      0.0000
     41  C45      -38.9720    7.8190   69.5950 C.3   435  GP7435      0.0000
     42  C46      -37.9110    8.9450   69.4770 C.3   435  GP7435      0.0000
     43  O4P      -53.1890    4.4610   84.5490 O.2   435  GP7435     -0.2224
@<TRIPOS>BOND
     1    42    41    1
     2    41    40    1
     3    40    39    1
     4    39    38    1
     5    38    37    1
     6    37    36    1
     7    22    23    1
     8    22    21    1
     9    36    34    1
    10    34    33    1
    11    21    20    1
    12    33    32    1
    13    32    31    1
    14    20    19    1
    15    31    30    1
    16    19    18    1
    17    30    29    1
    18    18    16    1
    19    29    28    1
    20    16    15    1
    21    28    27    1
    22    27    25    1
    23    25    26    2
    24    25     4    1
    25     4     3    1
    26    15    14    1
    27    14    13    1
    28     6     5    1
    29     6     7    1
    30     5     3    1
    31     3     2    1
    32     8     7    2
    33     2    35    1
    34    13    12    1
    35    11    12    1
    36    11    10    1
    37     7     9    1
    38     9    10    1
    39    35     1    1
    40    43     1    2
    41     1    17    1
    42     1    24    1
