@<TRIPOS>MOLECULE
3nk1_SRO_X_1.pdb
 13 14 0 0 0
SMALL
GASTEIGER

@<TRIPOS>ATOM
      1  OH       124.7440   19.0820   67.0050 O.2   433  SRO433     -0.2869
      2  CZ3      123.6390   18.3000   66.9560 C.2   433  SRO433      0.1922
      3  CH2      123.7720   16.9330   66.7460 C.2   433  SRO433      0.0429
      4  CZ2      122.6740   16.0820   66.6740 C.2   433  SRO433      0.0186
      5  CE2      121.4060   16.6000   66.8200 C.2   433  SRO433      0.0667
      6  NE1      120.1660   16.0740   66.8170 N.2   433  SRO433     -0.2481
      7  CD1      119.1970   17.0090   67.0180 C.2   433  SRO433      0.0910
      8  CG       119.8350   18.2140   67.1590 C.2   433  SRO433     -0.0097
      9  CD2      121.2880   18.0420   67.0460 C.3   433  SRO433      0.0855
     10  CE3      122.3870   18.8720   67.1100 C.2   433  SRO433      0.0256
     11  CB       119.1230   19.4920   67.3810 C.3   433  SRO433      0.0731
     12  CA       118.5390   20.1160   66.3650 C.2   433  SRO433      0.1001
     13  NZ       117.8950   21.2550   66.5470 N.2   433  SRO433     -0.1511
@<TRIPOS>BOND
     1    12    13    2
     2    12    11    1
     3     4     3    2
     4     4     5    1
     5     3     2    1
     6     6     5    2
     7     6     7    1
     8     5     9    1
     9     2     1    1
    10     2    10    2
    11     7     8    2
    12     9    10    1
    13     9     8    1
    14     8    11    1
