@<TRIPOS>MOLECULE
3nk1_GP7_X_1.pdb
 43 42 0 0 0
SMALL
GASTEIGER

@<TRIPOS>ATOM
      1  P        110.4500    7.3570   85.2830 P.3   435  GP7435      0.5327
      2  C1       110.9880    5.5560   83.4320 C.3   435  GP7435      0.2010
      3  C2       112.2110    5.6990   82.5310 C.3   435  GP7435      0.2422
      4  O2       111.9710    6.5990   81.4520 O.3   435  GP7435     -0.4457
      5  C3       112.6640    4.3410   82.0140 C.3   435  GP7435      0.2543
      6  O3       114.0880    4.3060   81.9980 O.3   435  GP7435     -0.4444
      7  C11      114.8070    3.1300   82.4500 C.2   435  GP7435      0.3171
      8  O11      114.4010    2.0360   82.1260 O.2   435  GP7435     -0.2501
      9  C12      116.0290    3.2670   83.3130 C.3   435  GP7435      0.1096
     10  C13      117.0650    2.2350   82.9130 C.3   435  GP7435      0.0116
     11  C14      118.4220    2.8940   82.7760 C.3   435  GP7435      0.0006
     12  C15      119.5130    1.9060   83.1210 C.3   435  GP7435      0.0000
     13  C16      120.8950    2.4570   82.8460 C.3   435  GP7435      0.0000
     14  C17      121.2800    2.1670   81.4120 C.3   435  GP7435      0.0000
     15  C18      122.7760    2.2650   81.2210 C.3   435  GP7435      0.0000
     16  C19      123.1430    1.7300   79.8530 C.3   435  GP7435      0.0000
     17  O1P      109.5640    7.7390   84.1170 O.2   435  GP7435     -0.2224
     18  C20      123.0090    2.7790   78.7690 C.3   435  GP7435      0.0000
     19  C21      122.3390    2.1620   77.5580 C.3   435  GP7435      0.0000
     20  C22      123.2270    2.1680   76.3280 C.3   435  GP7435      0.0000
     21  C23      122.3670    2.3240   75.0820 C.3   435  GP7435      0.0000
     22  C24      122.5960    1.2270   74.0590 C.3   435  GP7435      0.0000
     23  C25      123.9460    0.5820   74.2360 C.3   435  GP7435      0.0000
     24  O2P      109.6990    6.8050   86.4700 O.3   435  GP7435     -0.1145
     25  C31      113.1990    7.2390   81.0030 C.2   435  GP7435      0.3171
     26  O31      113.2210    8.4430   80.8820 O.2   435  GP7435     -0.2501
     27  C32      114.4290    6.4270   80.6890 C.3   435  GP7435      0.1096
     28  C33      115.6170    7.3250   80.3690 C.3   435  GP7435      0.0116
     29  C34      115.5560    7.8590   78.9440 C.3   435  GP7435      0.0006
     30  C35      116.8780    7.7080   78.2010 C.3   435  GP7435      0.0000
     31  C36      116.6420    7.3100   76.7520 C.3   435  GP7435      0.0000
     32  C37      117.7700    7.7060   75.8070 C.3   435  GP7435      0.0000
     33  C38      118.8130    6.6110   75.6790 C.3   435  GP7435      0.0000
     34  C39      119.7770    6.8650   74.5360 C.3   435  GP7435      0.0000
     35  O3P      111.2640    6.0800   84.7310 O.3   435  GP7435     -0.2662
     36  C40      120.9140    5.8540   74.5350 C.3   435  GP7435      0.0000
     37  C41      121.4630    5.5970   73.1390 C.3   435  GP7435      0.0000
     38  C42      122.1540    6.8240   72.5720 C.3   435  GP7435      0.0000
     39  C43      123.3090    6.4770   71.6570 C.3   435  GP7435      0.0000
     40  C44      124.1200    7.7180   71.3310 C.3   435  GP7435      0.0000
     41  C45      125.0870    7.4700   70.1880 C.3   435  GP7435      0.0000
     42  C46      125.8310    8.7210   69.7900 C.3   435  GP7435      0.0000
     43  O4P      111.5020    8.3900   85.6350 O.3   435  GP7435     -0.1145
@<TRIPOS>BOND
     1    42    41    1
     2    41    40    1
     3    40    39    1
     4    39    38    1
     5    38    37    1
     6    37    36    1
     7    22    23    1
     8    22    21    1
     9    36    34    1
    10    34    33    1
    11    21    20    1
    12    33    32    1
    13    32    31    1
    14    20    19    1
    15    31    30    1
    16    19    18    1
    17    30    29    1
    18    18    16    1
    19    29    28    1
    20    16    15    1
    21    28    27    1
    22    27    25    1
    23    26    25    2
    24    25     4    1
    25    15    14    1
    26    14    13    1
    27     4     3    1
    28     6     5    1
    29     6     7    1
    30     5     3    1
    31     8     7    2
    32     7     9    1
    33     3     2    1
    34    11    10    1
    35    11    12    1
    36    13    12    1
    37    10     9    1
    38     2    35    1
    39    17     1    2
    40    35     1    1
    41     1    43    1
    42     1    24    1
