@<TRIPOS>MOLECULE
3nk2_GP7_X_1.pdb
 43 42 0 0 0
SMALL
GASTEIGER

@<TRIPOS>ATOM
      1  P         85.0510    6.6990   53.7980 P.3   435  GP7435      0.5327
      2  C1        82.3630    6.6340   53.9850 C.3   435  GP7435      0.2010
      3  C2        82.1500    6.2330   52.5230 C.3   435  GP7435      0.2422
      4  O2        80.8780    6.7260   52.1100 O.3   435  GP7435     -0.4457
      5  C3        82.1920    4.7120   52.3580 C.3   435  GP7435      0.2543
      6  O3        81.8160    4.3580   51.0230 O.3   435  GP7435     -0.4444
      7  C11       82.5000    3.3120   50.2660 C.2   435  GP7435      0.3171
      8  O11       82.5320    2.1710   50.7000 O.2   435  GP7435     -0.2501
      9  C12       83.1540    3.6240   48.9440 C.3   435  GP7435      0.1096
     10  C13       82.5000    2.7560   47.8770 C.3   435  GP7435      0.0116
     11  C14       83.2240    2.8400   46.5330 C.3   435  GP7435      0.0006
     12  C15       82.3520    2.2280   45.4440 C.3   435  GP7435      0.0000
     13  C16       82.7990    2.5900   44.0320 C.3   435  GP7435      0.0000
     14  C17       82.0180    1.7660   43.0100 C.3   435  GP7435      0.0000
     15  C18       81.1950    2.5990   42.0330 C.3   435  GP7435      0.0000
     16  C19       79.9870    1.8170   41.5270 C.3   435  GP7435      0.0000
     17  O1P       84.8340    8.0980   53.2640 O.3   435  GP7435     -0.1145
     18  C20       78.8260    2.7550   41.2060 C.3   435  GP7435      0.0000
     19  C21       77.5870    2.4270   42.0320 C.3   435  GP7435      0.0000
     20  C22       76.4470    1.9830   41.1260 C.3   435  GP7435      0.0000
     21  C23       75.0870    2.3360   41.7190 C.3   435  GP7435      0.0000
     22  C24       74.2470    1.0980   42.0290 C.3   435  GP7435      0.0000
     23  C25       73.6090    0.5200   40.7820 C.3   435  GP7435      0.0000
     24  O2P       86.0690    6.6240   54.9120 O.3   435  GP7435     -0.1145
     25  C31       80.8700    7.3760   50.8080 C.2   435  GP7435      0.3171
     26  O31       80.9870    8.5910   50.7630 O.2   435  GP7435     -0.2501
     27  C32       80.7000    6.5320   49.5590 C.3   435  GP7435      0.1096
     28  C33       80.0170    7.2840   48.4270 C.3   435  GP7435      0.0116
     29  C34       78.5570    7.5720   48.7410 C.3   435  GP7435      0.0006
     30  C35       77.8070    7.9130   47.4610 C.3   435  GP7435      0.0000
     31  C36       76.4850    7.1650   47.4100 C.3   435  GP7435      0.0000
     32  C37       75.6280    7.6050   46.2320 C.3   435  GP7435      0.0000
     33  C38       75.4410    6.4640   45.2400 C.3   435  GP7435      0.0000
     34  C39       74.2660    6.7340   44.3150 C.3   435  GP7435      0.0000
     35  O3P       83.6540    6.2570   54.4840 O.3   435  GP7435     -0.2662
     36  C40       74.2530    5.7580   43.1420 C.3   435  GP7435      0.0000
     37  C41       72.8450    5.6020   42.5550 C.3   435  GP7435      0.0000
     38  C42       72.3820    6.8650   41.8360 C.3   435  GP7435      0.0000
     39  C43       71.5010    6.5240   40.6470 C.3   435  GP7435      0.0000
     40  C44       71.3480    7.7480   39.7520 C.3   435  GP7435      0.0000
     41  C45       69.9950    7.7790   39.0460 C.3   435  GP7435      0.0000
     42  C46       69.9340    8.9230   38.0540 C.3   435  GP7435      0.0000
     43  O4P       85.2260    5.6470   52.7350 O.2   435  GP7435     -0.2224
@<TRIPOS>BOND
     1    42    41    1
     2    41    40    1
     3    40    39    1
     4    39    38    1
     5    23    22    1
     6    20    21    1
     7    20    19    1
     8    18    16    1
     9    18    19    1
    10    16    15    1
    11    21    22    1
    12    38    37    1
    13    15    14    1
    14    37    36    1
    15    14    13    1
    16    36    34    1
    17    13    12    1
    18    34    33    1
    19    33    32    1
    20    12    11    1
    21    32    31    1
    22    11    10    1
    23    31    30    1
    24    30    29    1
    25    10     9    1
    26    28    29    1
    27    28    27    1
    28     9     7    1
    29    27    25    1
    30     7     8    2
    31     7     6    1
    32    26    25    2
    33    25     4    1
    34     6     5    1
    35     4     3    1
    36     5     3    1
    37     3     2    1
    38    43     1    2
    39    17     1    1
    40     1    35    1
    41     1    24    1
    42     2    35    1
