@<TRIPOS>MOLECULE
3nk2_LDP_X_1.pdb
 11 11 0 0 0
SMALL
GASTEIGER

@<TRIPOS>ATOM
      1  C7        66.8030   17.8670   39.2220 C.3   433  LDP433      0.0469
      2  C1        66.9560   17.7910   40.7260 C.ar  433  LDP433     -0.0173
      3  C4        67.2970   17.7270   43.5240 C.ar  433  LDP433      0.2342
      4  C2        66.3960   16.7290   41.4430 C.ar  433  LDP433      0.0412
      5  C6        67.6640   18.7950   41.3870 C.ar  433  LDP433     -0.0007
      6  C5        67.8400   18.7630   42.7720 C.ar  433  LDP433      0.0451
      7  C3        66.5450   16.6640   42.8270 C.ar  433  LDP433      0.2339
      8  O1        66.0220   15.6460   43.5580 O.3   433  LDP433     -0.2832
      9  O2        67.4480   17.6640   44.8780 O.3   433  LDP433     -0.2831
     10  C8        67.4590   16.6630   38.5420 C.3   433  LDP433      0.1140
     11  N1        67.0040   16.5360   37.1660 N.3   433  LDP433     -0.1310
@<TRIPOS>BOND
     1    11    10    1
     2    10     1    1
     3     1     2    1
     4     2     5   ar
     5     2     4   ar
     6     5     6   ar
     7     4     7   ar
     8     6     3   ar
     9     7     3   ar
    10     7     8    1
    11     3     9    1
