@<TRIPOS>MOLECULE
3nk7_SAM_A_1.pdb
 27 29 0 0 0
SMALL
GASTEIGER

@<TRIPOS>ATOM
      1  N          3.3560    9.0890   22.9100 N.3   770  SAM770     -0.1208
      2  CA         4.3790    9.8950   22.2540 C.3   770  SAM770      0.1952
      3  C          5.6630    9.1090   21.9730 C.2   770  SAM770      0.3819
      4  O          6.7720    9.5620   22.2660 O.co2 770  SAM770     -0.2441
      5  OXT        5.6230    7.9970   21.4370 O.co2 770  SAM770     -0.2441
      6  CB         4.6660   11.1370   23.0880 C.3   770  SAM770      0.0414
      7  CG         4.0240   11.1160   24.4660 C.3   770  SAM770      0.0503
      8  SD         4.8850   12.1640   25.6700 S.3   770  SAM770     -0.1761
      9  CE         3.5840   13.3330   26.1390 C.3   770  SAM770      0.0590
     10  C5'        5.9090   13.1670   24.5720 C.3   770  SAM770      0.0806
     11  C4'        7.2460   13.6490   25.1250 C.3   770  SAM770      0.1622
     12  O4'        7.7480   14.5450   24.1520 O.3   770  SAM770     -0.3153
     13  C3'        7.1250   14.4180   26.4430 C.3   770  SAM770      0.2168
     14  O3'        7.8710   13.8180   27.4730 O.3   770  SAM770     -0.2175
     15  C2'        7.6910   15.7940   26.1770 C.3   770  SAM770      0.2569
     16  O2'        8.9910   15.9140   26.7260 O.3   770  SAM770     -0.2130
     17  C1'        7.7550   15.8650   24.6620 C.3   770  SAM770      0.3185
     18  N9         6.5770   16.5940   24.1310 N.pl3 770  SAM770     -0.1439
     19  C8         5.4230   16.0700   23.5700 C.3   770  SAM770      0.3377
     20  N7         4.5990   17.0860   23.2080 N.2   770  SAM770     -0.2095
     21  C5         5.2120   18.2600   23.5400 C.2   770  SAM770      0.2526
     22  C6         4.8360   19.6080   23.4160 C.2   770  SAM770      0.4393
     23  N6         3.6700   19.9540   22.8650 N.pl3 770  SAM770      0.2180
     24  N1         5.6960   20.5970   23.8600 N.2   770  SAM770      0.0021
     25  C2         6.9190   20.2660   24.4300 C.3   770  SAM770      0.5254
     26  N3         7.2930   18.9400   24.5580 N.2   770  SAM770     -0.0055
     27  C4         6.4520   17.9610   24.1190 C.2   770  SAM770      0.3518
@<TRIPOS>BOND
     1     5     3   ar
     2     3     2    1
     3     3     4   ar
     4     2     1    1
     5     2     6    1
     6    23    22    1
     7     6     7    1
     8    20    21    2
     9    20    19    1
    10    22    21    1
    11    22    24    2
    12    21    27    1
    13    19    18    1
    14    24    25    1
    15    27    18    1
    16    27    26    2
    17    18    17    1
    18    12    17    1
    19    12    11    1
    20    25    26    1
    21     7     8    1
    22    10    11    1
    23    10     8    1
    24    17    15    1
    25    11    13    1
    26     8     9    1
    27    15    13    1
    28    15    16    1
    29    13    14    1
