@<TRIPOS>MOLECULE
3nk8_JKZ_A_1.pdb
 14 15 0 0 0
SMALL
GASTEIGER

@<TRIPOS>ATOM
      1  F1        26.8650   14.2780   19.2640 F       1  JKZ1       -0.1661
      2  C2        28.1090   13.8570   19.5390 C.3     1  JKZ1        0.4158
      3  F3        28.6880   14.9300   20.0840 F       1  JKZ1       -0.1661
      4  F4        28.0730   12.8570   20.4570 F       1  JKZ1       -0.1661
      5  C5        28.8590   13.4460   18.2800 C.2     1  JKZ1        0.0650
      6  C6        29.0950   14.3270   17.2140 C.2     1  JKZ1        0.0052
      7  C7        29.7900   13.8700   16.1040 C.2     1  JKZ1        0.1173
      8  N8        30.2460   12.6080   16.0190 N.2     1  JKZ1       -0.3409
      9  C9        30.0390   11.7380   17.0380 C.1     1  JKZ1        0.1843
     10  C10       29.3460   12.1360   18.1840 C.3     1  JKZ1        0.1646
     11  O12       30.5220   10.4400   16.9560 O.2     1  JKZ1       -0.2138
     12  C14       29.9670   14.9500   15.0510 C.3     1  JKZ1        0.0600
     13  C17       28.9050   15.9810   15.4770 C.3     1  JKZ1        0.0122
     14  C20       28.7090   15.7900   17.0090 C.3     1  JKZ1        0.0287
@<TRIPOS>BOND
     1    12    13    1
     2    12     7    1
     3    13    14    1
     4     8     7    2
     5     8     9    2
     6     7     6    1
     7    11     9    2
     8    14     6    1
     9     9    10    1
    10     6     5    2
    11    10     5    1
    12     5     2    1
    13     1     2    1
    14     2     3    1
    15     2     4    1
