@<TRIPOS>MOLECULE
3nk9_THP_A_1.pdb
 25 26 0 0 0
SMALL
GASTEIGER

@<TRIPOS>ATOM
      1  P2        17.9020   11.2810    4.7570 P.3   150  THP150      0.5327
      2  O4P       16.7130   12.0050    5.3310 O.3   150  THP150     -0.1145
      3  O5P       17.9410    9.7530    5.0800 O.2   150  THP150     -0.2224
      4  O6P       19.1870   12.0200    5.3190 O.3   150  THP150     -0.1145
      5  P1        21.1350   14.7740    0.8510 P.3   150  THP150      0.5326
      6  O1P       20.5320   15.7280    1.8220 O.3   150  THP150     -0.1145
      7  O2P       21.8460   13.6040    1.6540 O.3   150  THP150     -0.1145
      8  O3P       22.1700   15.4130   -0.1740 O.2   150  THP150     -0.2224
      9  O5'       17.8370   11.3370    3.1550 O.3   150  THP150     -0.2675
     10  C5'       17.9320   12.6550    2.5630 C.3   150  THP150      0.1857
     11  C4'       18.8290   12.5280    1.3170 C.3   150  THP150      0.1748
     12  O4'       18.4910   11.3930    0.4840 O.3   150  THP150     -0.3340
     13  C3'       18.7870   13.7910    0.3820 C.3   150  THP150      0.1600
     14  O3'       20.0960   14.1030   -0.1710 O.3   150  THP150     -0.2700
     15  C2'       17.8080   13.3060   -0.7320 C.3   150  THP150      0.0847
     16  C1'       18.0700   11.7720   -0.8020 C.3   150  THP150      0.2089
     17  N1        16.8090   11.1010   -1.1410 N.am  150  THP150     -0.1794
     18  C2        16.5260   10.9200   -2.4580 C.1   150  THP150      0.2844
     19  O2        17.3630   11.2230   -3.3370 O.2   150  THP150     -0.1918
     20  N3        15.3610   10.4350   -2.8810 N.2   150  THP150     -0.2455
     21  C4        14.4220   10.0900   -1.9270 C.1   150  THP150      0.2134
     22  O4        13.3680    9.6830   -2.3040 O.2   150  THP150     -0.2088
     23  C5        14.6940   10.2990   -0.5850 C.2   150  THP150      0.0891
     24  C5M       13.6140    9.9360    0.4150 C.3   150  THP150      0.0462
     25  C6        15.8900   10.7930   -0.1700 C.2   150  THP150      0.0877
@<TRIPOS>BOND
     1    19    18    2
     2    20    18    2
     3    20    21    2
     4    18    17   am
     5    22    21    2
     6    21    23    1
     7    17    16    1
     8    17    25    1
     9    16    15    1
    10    16    12    1
    11    15    13    1
    12    23    25    2
    13    23    24    1
    14     8     5    2
    15    14    13    1
    16    14     5    1
    17    13    11    1
    18    12    11    1
    19     5     7    1
    20     5     6    1
    21    11    10    1
    22    10     9    1
    23     9     1    1
    24     1     3    2
    25     1     4    1
    26     1     2    1
