@<TRIPOS>MOLECULE
3nkk_JLZ_A_1.pdb
 11 11 0 0 0
SMALL
GASTEIGER

@<TRIPOS>ATOM
      1  F1        26.9000   14.8450   19.1010 F       1  JLZ1       -0.2045
      2  C2        27.8350   14.4520   18.2380 C.ar    1  JLZ1        0.1364
      3  C3        28.5800   13.3020   18.5000 C.ar    1  JLZ1        0.0056
      4  C4        29.5550   12.9020   17.5860 C.ar    1  JLZ1       -0.0018
      5  C6        29.7920   13.6370   16.4250 C.ar    1  JLZ1        0.0078
      6  C8        29.0490   14.7880   16.1600 C.ar    1  JLZ1        0.0997
      7  C9        28.0690   15.1900   17.0770 C.ar    1  JLZ1        0.0373
      8  C11       29.3350   15.5590   14.8890 C.2     1  JLZ1        0.4767
      9  N12       28.9450   16.7720   14.8650 N.pl3   1  JLZ1        0.2047
     10  N14       29.9550   14.9930   13.8850 N.pl3   1  JLZ1        0.2047
     11  C17       28.3140   12.5010   19.7780 C.3     1  JLZ1        0.0334
@<TRIPOS>BOND
     1    10     8    2
     2     9     8    1
     3     8     6    1
     4     6     5   ar
     5     6     7   ar
     6     5     4   ar
     7     7     2   ar
     8     4     3   ar
     9     2     3   ar
    10     2     1    1
    11     3    11    1
