@<TRIPOS>MOLECULE
3nkm_MAN_A_1.pdb
 11 11 0 0 0
SMALL
GASTEIGER

@<TRIPOS>ATOM
      1  C1        13.3730   53.7940   -0.7040 C.3   904  MAN904      0.1777
      2  C2        14.2370   52.6730   -0.1070 C.3   904  MAN904      0.2141
      3  C3        13.9460   52.5210    1.3810 C.3   904  MAN904      0.2173
      4  C4        14.0870   53.8720    2.0760 C.3   904  MAN904      0.2142
      5  C5        13.3440   54.9810    1.3210 C.3   904  MAN904      0.1810
      6  C6        13.6430   56.3530    1.9220 C.3   904  MAN904      0.2141
      7  O2        15.6160   52.9750   -0.2640 O.3   904  MAN904     -0.2176
      8  O3        14.8700   51.6290    1.9770 O.3   904  MAN904     -0.2175
      9  O4        13.6080   53.7620    3.4050 O.3   904  MAN904     -0.2176
     10  O5        13.7230   54.9900   -0.0420 O.3   904  MAN904     -0.3481
     11  O6        14.9770   56.7150    1.6210 O.3   904  MAN904     -0.2176
@<TRIPOS>BOND
     1     1     2    1
     2     1    10    1
     3     7     2    1
     4     2     3    1
     5    10     5    1
     6     5     6    1
     7     5     4    1
     8     3     8    1
     9     3     4    1
    10    11     6    1
    11     4     9    1
