@<TRIPOS>MOLECULE
3nkn_MAN_A_1.pdb
 11 11 0 0 0
SMALL
GASTEIGER

@<TRIPOS>ATOM
      1  C1        13.2930   53.7430   -0.9530 C.3   904  MAN904      0.1777
      2  C2        14.1650   52.6320   -0.3550 C.3   904  MAN904      0.2141
      3  C3        13.8730   52.4880    1.1310 C.3   904  MAN904      0.2173
      4  C4        14.0230   53.8530    1.7920 C.3   904  MAN904      0.2142
      5  C5        13.2660   54.9580    1.0440 C.3   904  MAN904      0.1810
      6  C6        13.5440   56.3320    1.6540 C.3   904  MAN904      0.2141
      7  O2        15.5290   52.9600   -0.5040 O.3   904  MAN904     -0.2176
      8  O3        14.8310   51.6360    1.7360 O.3   904  MAN904     -0.2175
      9  O4        13.5920   53.7450    3.1350 O.3   904  MAN904     -0.2176
     10  O5        13.6200   54.9640   -0.3240 O.3   904  MAN904     -0.3481
     11  O6        14.9110   56.6630    1.4790 O.3   904  MAN904     -0.2176
@<TRIPOS>BOND
     1     1     2    1
     2     1    10    1
     3     7     2    1
     4     2     3    1
     5    10     5    1
     6     5     6    1
     7     5     4    1
     8     3     8    1
     9     3     4    1
    10    11     6    1
    11     4     9    1
