@<TRIPOS>MOLECULE
3nkn_NKN_A_1.pdb
 25 24 0 0 0
SMALL
GASTEIGER

@<TRIPOS>ATOM
      1  OAA       26.1010   38.4980   15.2120 O.3   1006  NKN1006    -0.1145
      2  OAB       24.5510   36.6070   15.1360 O.3   1006  NKN1006    -0.1145
      3  PAC       24.5690   38.1070   14.9110 P.3   1006  NKN1006     0.5327
      4  OAD       24.0850   38.3840   13.5400 O.2   1006  NKN1006    -0.2224
      5  OAE       18.3150   37.8880   18.5630 O.2   1006  NKN1006    -0.2501
      6  OAF       23.7370   38.6500   16.1950 O.3   1006  NKN1006    -0.2674
      7  CAG       22.4500   38.0960   16.4080 C.3   1006  NKN1006     0.1904
      8  CAH       22.0240   38.3650   17.8460 C.3   1006  NKN1006     0.2254
      9  CAI       20.6120   37.8740   18.1130 C.3   1006  NKN1006     0.2437
     10  OAJ       19.8800   38.6960   17.1930 O.3   1006  NKN1006    -0.4456
     11  CAK       18.5810   38.5100   17.5250 C.2   1006  NKN1006     0.3171
     12  CAL       17.5240   39.2610   16.7260 C.3   1006  NKN1006     0.1096
     13  CAM       16.1070   38.8730   17.1390 C.3   1006  NKN1006     0.0116
     14  CAN       15.0960   39.7780   16.4230 C.3   1006  NKN1006     0.0006
     15  CAO       13.6290   39.5000   16.8300 C.3   1006  NKN1006     0.0000
     16  CAP       12.9490   38.2020   16.4060 C.3   1006  NKN1006     0.0000
     17  CAQ       12.8300   38.2640   14.8820 C.3   1006  NKN1006     0.0000
     18  CAR       12.0920   37.0920   14.2170 C.3   1006  NKN1006     0.0000
     19  CAS       12.0810   37.4220   12.7210 C.3   1006  NKN1006     0.0000
     20  CAT       11.4100   36.4640   11.7110 C.3   1006  NKN1006     0.0000
     21  CAU       11.7010   37.1730   10.3800 C.3   1006  NKN1006     0.0000
     22  CAV       11.3050   36.5990    8.9990 C.3   1006  NKN1006     0.0000
     23  CAW        9.8360   36.4010    8.7050 C.3   1006  NKN1006     0.0000
     24  CAX        9.7440   35.8970    7.2630 C.3   1006  NKN1006     0.0000
     25  OAY       22.8980   37.6690   18.7380 O.3   1006  NKN1006    -0.2164
@<TRIPOS>BOND
     1    24    23    1
     2    23    22    1
     3    22    21    1
     4    21    20    1
     5    20    19    1
     6    19    18    1
     7     4     3    2
     8    18    17    1
     9    17    16    1
    10     3     2    1
    11     3     1    1
    12     3     6    1
    13     6     7    1
    14    16    15    1
    15     7     8    1
    16    14    15    1
    17    14    13    1
    18    12    13    1
    19    12    11    1
    20    10    11    1
    21    10     9    1
    22    11     5    2
    23     8     9    1
    24     8    25    1
