@<TRIPOS>MOLECULE
3nko_NKO_A_1.pdb
 27 26 0 0 0
SMALL
GASTEIGER

@<TRIPOS>ATOM
      1  OAA       24.1170   38.1910   13.4870 O.2   1006  NKO1006    -0.2224
      2  OAB       26.1080   38.2290   15.0790 O.3   1006  NKO1006    -0.1145
      3  PAC       24.5780   37.7000   14.9070 P.3   1006  NKO1006     0.5327
      4  OAD       24.4630   36.2550   15.0450 O.3   1006  NKO1006    -0.1145
      5  OAE       18.4400   37.4430   18.8380 O.2   1006  NKO1006    -0.2501
      6  OAF       23.8080   38.3360   16.1620 O.3   1006  NKO1006    -0.2674
      7  CAG       22.5400   37.7490   16.4240 C.3   1006  NKO1006     0.1904
      8  CAH       22.2870   37.8080   17.9250 C.3   1006  NKO1006     0.2254
      9  CAI       20.9100   37.3190   18.3510 C.3   1006  NKO1006     0.2437
     10  OAJ       20.1430   38.2650   17.6260 O.3   1006  NKO1006    -0.4456
     11  CAK       18.8420   38.2390   17.9850 C.2   1006  NKO1006     0.3171
     12  CAL       17.9530   39.2260   17.2460 C.3   1006  NKO1006     0.1096
     13  CAM       16.6060   38.6000   16.9990 C.3   1006  NKO1006     0.0116
     14  CAN       15.7790   39.4740   16.0680 C.3   1006  NKO1006     0.0006
     15  CAO       14.4940   38.6980   15.7910 C.3   1006  NKO1006     0.0000
     16  CAP       13.3950   38.5470   16.8400 C.3   1006  NKO1006     0.0000
     17  CAQ       12.5930   37.4810   16.1300 C.3   1006  NKO1006     0.0000
     18  CAR       12.3690   37.8280   14.6700 C.3   1006  NKO1006     0.0000
     19  CAS       11.7000   36.5980   14.0810 C.3   1006  NKO1006     0.0000
     20  CAT       11.6240   36.6440   12.5650 C.3   1006  NKO1006     0.0000
     21  CAU       11.0160   35.3300   12.1100 C.3   1006  NKO1006     0.0000
     22  CAV       11.0890   35.1190   10.5910 C.3   1006  NKO1006     0.0000
     23  CAW       10.4180   36.0850    9.6210 C.3   1006  NKO1006     0.0000
     24  CAX       10.7530   35.4930    8.2400 C.3   1006  NKO1006     0.0000
     25  CAY       10.1670   36.2370    7.0360 C.3   1006  NKO1006     0.0000
     26  CAZ        8.6380   36.2730    7.0420 C.3   1006  NKO1006     0.0000
     27  OBA       23.2000   36.8820   18.5030 O.3   1006  NKO1006    -0.2164
@<TRIPOS>BOND
     1    25    26    1
     2    25    24    1
     3    24    23    1
     4    23    22    1
     5    22    21    1
     6    21    20    1
     7    20    19    1
     8     1     3    2
     9    19    18    1
    10    18    17    1
    11     3     4    1
    12     3     2    1
    13     3     6    1
    14    15    14    1
    15    15    16    1
    16    14    13    1
    17    17    16    1
    18     6     7    1
    19     7     8    1
    20    13    12    1
    21    12    11    1
    22    10    11    1
    23    10     9    1
    24     8     9    1
    25     8    27    1
    26    11     5    2
