@<TRIPOS>MOLECULE
3nko_MAN_A_1.pdb
 11 11 0 0 0
SMALL
GASTEIGER

@<TRIPOS>ATOM
      1  C1        13.3570   53.5650   -0.9240 C.3   904  MAN904      0.1777
      2  C2        14.2220   52.4490   -0.3430 C.3   904  MAN904      0.2141
      3  C3        13.8940   52.2530    1.1330 C.3   904  MAN904      0.2173
      4  C4        14.0020   53.6070    1.8270 C.3   904  MAN904      0.2142
      5  C5        13.1920   54.6690    1.0760 C.3   904  MAN904      0.1810
      6  C6        13.1980   56.0340    1.7670 C.3   904  MAN904      0.2141
      7  O2        15.5870   52.7980   -0.4980 O.3   904  MAN904     -0.2176
      8  O3        14.8520   51.3890    1.7240 O.3   904  MAN904     -0.2175
      9  O4        13.5450   53.4710    3.1530 O.3   904  MAN904     -0.2176
     10  O5        13.6560   54.7710   -0.2460 O.3   904  MAN904     -0.3481
     11  O6        14.5250   56.4340    2.0060 O.3   904  MAN904     -0.2176
@<TRIPOS>BOND
     1     1     2    1
     2     1    10    1
     3     7     2    1
     4     2     3    1
     5    10     5    1
     6     5     6    1
     7     5     4    1
     8     3     8    1
     9     3     4    1
    10     6    11    1
    11     4     9    1
