@<TRIPOS>MOLECULE
3nkp_MAN_A_1.pdb
 11 11 0 0 0
SMALL
GASTEIGER

@<TRIPOS>ATOM
      1  C1        13.2860   53.7960   -0.8390 C.3   904  MAN904      0.1777
      2  C2        14.1620   52.6700   -0.2820 C.3   904  MAN904      0.2141
      3  C3        13.8360   52.4640    1.1930 C.3   904  MAN904      0.2173
      4  C4        13.9540   53.8000    1.9170 C.3   904  MAN904      0.2142
      5  C5        13.1580   54.8910    1.2050 C.3   904  MAN904      0.1810
      6  C6        13.2810   56.2350    1.9250 C.3   904  MAN904      0.2141
      7  O2        15.5300   52.9880   -0.4550 O.3   904  MAN904     -0.2176
      8  O3        14.7190   51.5440    1.8080 O.3   904  MAN904     -0.2175
      9  O4        13.4680   53.6400    3.2240 O.3   904  MAN904     -0.2176
     10  O5        13.5880   54.9860   -0.1370 O.3   904  MAN904     -0.3481
     11  O6        14.5680   56.7790    1.7260 O.3   904  MAN904     -0.2176
@<TRIPOS>BOND
     1     1     2    1
     2     1    10    1
     3     7     2    1
     4     2     3    1
     5    10     5    1
     6     3     8    1
     7     3     4    1
     8     5     4    1
     9     5     6    1
    10    11     6    1
    11     4     9    1
