@<TRIPOS>MOLECULE
3nkp_NKP_A_1.pdb
 29 28 0 0 0
SMALL
GASTEIGER

@<TRIPOS>ATOM
      1  OAA       25.8530   37.5330   15.2360 O.3   1006  NKP1006    -0.1145
      2  OAB       23.5260   36.4360   14.9200 O.3   1006  NKP1006    -0.1145
      3  PAC       24.3560   37.7870   14.7650 P.3   1006  NKP1006     0.5327
      4  OAD       24.1660   38.3420   13.3970 O.2   1006  NKP1006    -0.2224
      5  OAE       18.4110   38.2810   18.4700 O.2   1006  NKP1006    -0.2501
      6  OAF       23.8700   38.8220   15.9170 O.3   1006  NKP1006    -0.2674
      7  CAG       22.6140   38.8970   16.5680 C.3   1006  NKP1006     0.1904
      8  CAH       22.0780   37.6960   17.3770 C.3   1006  NKP1006     0.2254
      9  CAI       20.7590   38.1270   17.9750 C.3   1006  NKP1006     0.2437
     10  OAJ       19.9480   38.6960   16.9370 O.3   1006  NKP1006    -0.4456
     11  CAK       18.7180   38.8930   17.4540 C.2   1006  NKP1006     0.3171
     12  CAL       17.6480   39.4980   16.5900 C.3   1006  NKP1006     0.1096
     13  CAM       16.3160   38.8370   16.8240 C.3   1006  NKP1006     0.0116
     14  CAN       15.3310   39.5690   15.9450 C.3   1006  NKP1006     0.0006
     15  CAO       13.9100   39.0590   16.0610 C.3   1006  NKP1006     0.0000
     16  CAP       13.3760   39.0890   17.4750 C.3   1006  NKP1006     0.0003
     17  CAQ       11.9070   38.7270   17.6620 C.3   1006  NKP1006     0.0047
     18  CAR       11.2660   37.3640   17.2150 C.3   1006  NKP1006     0.0257
     19  CAS       11.3510   37.0270   15.8770 C.2   1006  NKP1006    -0.0307
     20  CAT       11.9160   37.8970   14.9980 C.2   1006  NKP1006    -0.0307
     21  CAU       12.0870   37.7110   13.5710 C.3   1006  NKP1006     0.0257
     22  CAV       11.3040   36.5820   12.9290 C.3   1006  NKP1006     0.0047
     23  CAW       11.7320   36.5960   11.4630 C.3   1006  NKP1006     0.0003
     24  CAX       11.0070   35.6480   10.5270 C.3   1006  NKP1006     0.0000
     25  CAY       11.6390   35.8240    9.1800 C.3   1006  NKP1006     0.0000
     26  CAZ       10.9040   35.3120    7.9740 C.3   1006  NKP1006     0.0000
     27  CBA        9.6850   36.1850    8.1660 C.3   1006  NKP1006     0.0000
     28  CBB        8.8480   36.3670    6.8940 C.3   1006  NKP1006     0.0000
     29  OBC       21.9050   36.4180   16.7710 O.3   1006  NKP1006    -0.2164
@<TRIPOS>BOND
     1    28    27    1
     2    26    27    1
     3    26    25    1
     4    25    24    1
     5    24    23    1
     6    23    22    1
     7    22    21    1
     8     4     3    2
     9    21    20    1
    10     3     2    1
    11     3     1    1
    12     3     6    1
    13    20    19    2
    14    19    18    1
    15     6     7    1
    16    14    15    1
    17    14    13    1
    18    15    16    1
    19     7     8    1
    20    12    13    1
    21    12    11    1
    22    29     8    1
    23    10    11    1
    24    10     9    1
    25    18    17    1
    26     8     9    1
    27    11     5    2
    28    16    17    1
