@<TRIPOS>MOLECULE
3nkq_MAN_A_1.pdb
 11 11 0 0 0
SMALL
GASTEIGER

@<TRIPOS>ATOM
      1  C1        13.2800   53.7120   -0.8810 C.3   904  MAN904      0.1777
      2  C2        14.1710   52.6110   -0.2930 C.3   904  MAN904      0.2141
      3  C3        13.8460   52.4180    1.1850 C.3   904  MAN904      0.2173
      4  C4        13.9350   53.7640    1.8890 C.3   904  MAN904      0.2142
      5  C5        13.1060   54.8270    1.1620 C.3   904  MAN904      0.1810
      6  C6        13.2120   56.1940    1.8430 C.3   904  MAN904      0.2141
      7  O2        15.5380   52.9440   -0.4420 O.3   904  MAN904     -0.2176
      8  O3        14.7840   51.5520    1.8010 O.3   904  MAN904     -0.2175
      9  O4        13.4610   53.5980    3.1980 O.3   904  MAN904     -0.2176
     10  O5        13.5240   54.9140   -0.1790 O.3   904  MAN904     -0.3481
     11  O6        14.5220   56.7120    1.7230 O.3   904  MAN904     -0.2176
@<TRIPOS>BOND
     1     1     2    1
     2     1    10    1
     3     7     2    1
     4     2     3    1
     5    10     5    1
     6     5     6    1
     7     5     4    1
     8     3     8    1
     9     3     4    1
    10    11     6    1
    11     4     9    1
