@<TRIPOS>MOLECULE
3nkq_NKQ_A_1.pdb
 29 28 0 0 0
SMALL
GASTEIGER

@<TRIPOS>ATOM
      1  OAA       24.3310   36.6880   15.1820 O.3   1006  NKQ1006    -0.1145
      2  OAB       24.0460   38.3630   13.4110 O.2   1006  NKQ1006    -0.2224
      3  PAC       24.6610   38.1460   14.9020 P.3   1006  NKQ1006     0.5327
      4  OAD       26.1050   38.5010   15.0360 O.3   1006  NKQ1006    -0.1145
      5  OAE       18.1950   38.3230   18.1440 O.2   1006  NKQ1006    -0.2501
      6  OAF       23.7650   38.7740   16.0630 O.3   1006  NKQ1006    -0.2674
      7  CAG       22.3770   38.4570   15.9810 C.3   1006  NKQ1006     0.1904
      8  CAH       21.8980   38.1180   17.3670 C.3   1006  NKQ1006     0.2254
      9  CAI       20.4110   37.9520   17.4460 C.3   1006  NKQ1006     0.2437
     10  OAJ       19.7760   39.1080   16.8280 O.3   1006  NKQ1006    -0.4456
     11  CAK       18.4720   39.0140   17.1650 C.2   1006  NKQ1006     0.3171
     12  CAL       17.4510   40.0390   16.7070 C.3   1006  NKQ1006     0.1096
     13  CAM       16.2660   39.1730   16.2490 C.3   1006  NKQ1006     0.0120
     14  CAN       15.1010   39.9720   15.6260 C.3   1006  NKQ1006     0.0052
     15  CAO       15.7660   40.8050   14.5050 C.3   1006  NKQ1006     0.0257
     16  CAP       14.9800   41.6970   13.4910 C.2   1006  NKQ1006    -0.0307
     17  CAQ       14.0860   40.9770   12.4650 C.2   1006  NKQ1006    -0.0307
     18  CAR       13.2810   41.8230   11.4370 C.3   1006  NKQ1006     0.0257
     19  CAS       12.8100   40.7940   10.6090 C.3   1006  NKQ1006     0.0050
     20  CAT       12.0580   39.8950   11.3190 C.3   1006  NKQ1006     0.0050
     21  CAU       11.4240   38.7600   10.8870 C.3   1006  NKQ1006     0.0257
     22  CAV       11.8390   37.9520   11.9540 C.2   1006  NKQ1006    -0.0304
     23  CAW       11.5720   36.5980   12.0830 C.2   1006  NKQ1006    -0.0260
     24  CAX       10.8330   35.9640   11.0870 C.3   1006  NKQ1006     0.0513
     25  CAY       11.6620   35.3790   10.1280 C.2   1006  NKQ1006    -0.0260
     26  CAZ       11.4610   35.6300    8.7610 C.2   1006  NKQ1006    -0.0304
     27  CBA       10.4170   36.4750    8.3620 C.3   1006  NKQ1006     0.0257
     28  CBB        9.7440   36.0200    7.0690 C.3   1006  NKQ1006     0.0050
     29  OBC       22.2130   36.7170   17.3990 O.3   1006  NKQ1006    -0.2164
@<TRIPOS>BOND
     1    28    27    1
     2    27    26    1
     3    26    25    2
     4    25    24    1
     5    19    20    1
     6    19    18    1
     7    21    20    1
     8    21    22    1
     9    24    23    1
    10    18    17    1
    11    22    23    2
    12    17    16    2
    13     2     3    2
    14    16    15    1
    15    15    14    1
    16     3     4    1
    17     3     1    1
    18     3     6    1
    19    14    13    1
    20     7     6    1
    21     7     8    1
    22    13    12    1
    23    12    11    1
    24    10    11    1
    25    10     9    1
    26    11     5    2
    27     8    29    1
    28     8     9    1
