@<TRIPOS>MOLECULE
3nkr_NKR_A_1.pdb
 33 32 0 0 0
SMALL
GASTEIGER

@<TRIPOS>ATOM
      1  OAA       23.9390   38.1780   13.5680 O.2   1006  NKR1006    -0.2224
      2  OAB       26.0010   38.7690   15.0540 O.3   1006  NKR1006    -0.1145
      3  PAC       24.5900   37.9390   15.0020 P.3   1006  NKR1006     0.5327
      4  OAD       24.8920   36.5500   15.3610 O.3   1006  NKR1006    -0.1145
      5  OAE       18.1610   37.7240   18.6660 O.2   1006  NKR1006    -0.2501
      6  OAF       23.6780   38.4490   16.1900 O.3   1006  NKR1006    -0.2674
      7  CAG       22.3680   37.8930   16.2010 C.3   1006  NKR1006     0.1904
      8  CAH       21.9190   37.8450   17.6400 C.3   1006  NKR1006     0.2254
      9  CAI       20.4800   37.4160   17.8800 C.3   1006  NKR1006     0.2437
     10  OAJ       19.6500   38.2800   17.0900 O.3   1006  NKR1006    -0.4456
     11  CAK       18.4020   38.2930   17.5980 C.2   1006  NKR1006     0.3174
     12  CAL       17.3950   39.1440   16.8460 C.3   1006  NKR1006     0.1142
     13  CAM       15.9770   38.7000   17.1750 C.3   1006  NKR1006     0.0374
     14  CAN       15.1840   39.2950   16.1960 C.2   1006  NKR1006    -0.0298
     15  CAO       13.8750   38.9030   15.8610 C.2   1006  NKR1006    -0.0260
     16  CAP       13.1290   37.8660   16.4290 C.3   1006  NKR1006     0.0513
     17  CAQ       12.0580   37.5380   15.5850 C.2   1006  NKR1006    -0.0257
     18  CAR       12.3040   37.1550   14.2610 C.2   1006  NKR1006    -0.0257
     19  CAS       11.2320   36.8380   13.4240 C.3   1006  NKR1006     0.0513
     20  CAT       11.6010   36.0170   12.3610 C.2   1006  NKR1006    -0.0257
     21  CAU       10.5920   35.3200   11.6890 C.2   1006  NKR1006    -0.0257
     22  CAV       10.9180   34.4790   10.6220 C.3   1006  NKR1006     0.0513
     23  CAW       10.7090   35.0230    9.3390 C.2   1006  NKR1006    -0.0257
     24  CAX       10.9980   36.2640    8.7300 C.2   1006  NKR1006    -0.0257
     25  CAY       11.6200   37.4360    9.2200 C.3   1006  NKR1006     0.0513
     26  CAZ       11.0510   37.9630   10.3750 C.2   1006  NKR1006    -0.0257
     27  CBA       11.3870   39.2320   10.8720 C.2   1006  NKR1006    -0.0257
     28  CBB       12.3140   40.0870   10.2720 C.3   1006  NKR1006     0.0513
     29  CBC       12.2820   41.3230   10.9260 C.2   1006  NKR1006    -0.0260
     30  CBD       13.3260   41.8290   11.7050 C.2   1006  NKR1006    -0.0304
     31  CBE       14.5150   41.1420   11.9070 C.3   1006  NKR1006     0.0257
     32  CBF       15.1230   41.4480   13.2880 C.3   1006  NKR1006     0.0050
     33  OBG       22.6590   36.7090   18.1180 O.3   1006  NKR1006    -0.2164
@<TRIPOS>BOND
     1    24    25    1
     2    24    23    2
     3    25    26    1
     4    23    22    1
     5    28    27    1
     6    28    29    1
     7    26    27    2
     8    22    21    1
     9    29    30    2
    10    21    20    2
    11    30    31    1
    12    31    32    1
    13    20    19    1
    14    19    18    1
    15     1     3    2
    16    18    17    2
    17     3     2    1
    18     3     4    1
    19     3     6    1
    20    17    16    1
    21    15    14    2
    22    15    16    1
    23     6     7    1
    24    14    13    1
    25     7     8    1
    26    12    13    1
    27    12    11    1
    28    10    11    1
    29    10     9    1
    30    11     5    2
    31     8     9    1
    32     8    33    1
