@<TRIPOS>MOLECULE
3nkr_MAN_A_1.pdb
 11 11 0 0 0
SMALL
GASTEIGER

@<TRIPOS>ATOM
      1  C1        13.2730   53.5820   -0.9590 C.3   904  MAN904      0.1777
      2  C2        14.1210   52.4680   -0.3430 C.3   904  MAN904      0.2141
      3  C3        13.8110   52.3200    1.1390 C.3   904  MAN904      0.2173
      4  C4        14.0620   53.6860    1.7490 C.3   904  MAN904      0.2142
      5  C5        13.2490   54.7670    1.0420 C.3   904  MAN904      0.1810
      6  C6        13.4820   56.1370    1.6720 C.3   904  MAN904      0.2141
      7  O2        15.4840   52.8090   -0.4940 O.3   904  MAN904     -0.2176
      8  O3        14.6990   51.3950    1.7390 O.3   904  MAN904     -0.2175
      9  O4        13.7390   53.6340    3.1220 O.3   904  MAN904     -0.2176
     10  O5        13.6260   54.7900   -0.3160 O.3   904  MAN904     -0.3481
     11  O6        14.8470   56.4870    1.5580 O.3   904  MAN904     -0.2176
@<TRIPOS>BOND
     1     1     2    1
     2     1    10    1
     3     7     2    1
     4     2     3    1
     5    10     5    1
     6     5     6    1
     7     5     4    1
     8     3     8    1
     9     3     4    1
    10    11     6    1
    11     4     9    1
