@<TRIPOS>MOLECULE
3nks_ACJ_A_1.pdb
 24 25 0 0 0
SMALL
GASTEIGER

@<TRIPOS>ATOM
      1  O3       -26.5230    2.9520   47.6280 O.co2 478  ACJ478     -0.2405
      2  C11      -26.8730    3.8820   46.8660 C.2   478  ACJ478      0.3895
      3  O2       -26.1300    4.2960   45.9420 O.co2 478  ACJ478     -0.2405
      4  C9       -29.1740    4.2690   46.0490 C.ar  478  ACJ478      0.0457
      5  C14      -28.6330    5.3550   48.2090 C.ar  478  ACJ478      0.1494
      6  C8       -30.4620    4.7990   46.1350 C.ar  478  ACJ478      0.1456
      7  N1       -27.7830    5.6420   49.2280 N.pl3 478  ACJ478      0.0579
      8  C13      -29.9350    5.8720   48.2430 C.ar  478  ACJ478      0.0274
      9  O5       -26.4750    5.1560   49.2520 O.2   478  ACJ478     -0.1261
     10  C12      -30.8420    5.5930   47.2180 C.ar  478  ACJ478      0.0392
     11  O1       -31.3530    4.5440   45.1280 O.3   478  ACJ478     -0.4526
     12  C7       -31.1340    3.5320   44.2180 C.ar  478  ACJ478      0.1557
     13  O4       -28.2250    6.4370   50.2810 O.2   478  ACJ478     -0.1261
     14  C6       -30.3780    3.7200   43.0580 C.ar  478  ACJ478      0.0383
     15  C10      -28.2310    4.5030   47.0410 C.ar  478  ACJ478      0.1052
     16  C4       -31.7380    2.1970   44.4780 C.ar  478  ACJ478      0.0920
     17  C5       -30.2020    2.6490   42.1780 C.ar  478  ACJ478      0.0070
     18  C2       -30.7760    1.3900   42.4230 C.ar  478  ACJ478      0.0725
     19 CL1       -32.7090    1.9880   45.9640 Cl    478  ACJ478     -0.0791
     20  C3       -31.5440    1.1590   43.5710 C.ar  478  ACJ478      0.0183
     21  C1       -30.5470    0.2700   41.4480 C.3   478  ACJ478      0.4186
     22  F1       -30.6290   -0.8880   42.0770 F     478  ACJ478     -0.1659
     23  F2       -29.3490    0.3900   40.8950 F     478  ACJ478     -0.1659
     24  F3       -31.4690    0.2920   40.5100 F     478  ACJ478     -0.1659
@<TRIPOS>BOND
     1    24    21    1
     2    23    21    1
     3    21    22    1
     4    21    18    1
     5    17    18   ar
     6    17    14   ar
     7    18    20   ar
     8    14    12   ar
     9    20    16   ar
    10    12    16   ar
    11    12    11    1
    12    16    19    1
    13    11     6    1
    14     3     2   ar
    15     4     6   ar
    16     4    15   ar
    17     6    10   ar
    18     2    15    1
    19     2     1   ar
    20    15     5   ar
    21    10     8   ar
    22     5     8   ar
    23     5     7    1
    24     7     9    2
    25     7    13    2
