@<TRIPOS>MOLECULE
3nkt_1HN_A_1.pdb
 14 15 0 0 0
SMALL
GASTEIGER

@<TRIPOS>ATOM
      1  C1        -9.9550  -26.4340  -25.5220 C.ar  370  1HN370      0.2019
      2  O1       -11.0770  -26.8920  -24.8780 O.3   370  1HN370     -0.2863
      3  C2        -9.4910  -25.0440  -25.3440 C.ar  370  1HN370      0.1186
      4  O2        -9.8440  -22.9750  -24.3090 O.co2 370  1HN370     -0.2404
      5  C3        -8.3410  -24.5570  -25.9800 C.ar  370  1HN370      0.0098
      6  O3       -11.3440  -24.6190  -23.9380 O.co2 370  1HN370     -0.2404
      7  C4        -7.5570  -25.3450  -26.8220 C.ar  370  1HN370      0.0004
      8  C5        -7.1460  -27.4630  -27.9310 C.ar  370  1HN370      0.0001
      9  C6        -7.5090  -28.8050  -28.1440 C.ar  370  1HN370      0.0000
     10  C7        -8.6490  -29.3660  -27.5390 C.ar  370  1HN370      0.0001
     11  C8        -9.4590  -28.6170  -26.6730 C.ar  370  1HN370      0.0032
     12  C9       -10.2860  -24.1520  -24.4620 C.2   370  1HN370      0.3909
     13  C4A       -7.9150  -26.6710  -27.0660 C.ar  370  1HN370      0.0031
     14  C8A       -9.1260  -27.2820  -26.4150 C.ar  370  1HN370      0.0392
@<TRIPOS>BOND
     1     9     8   ar
     2     9    10   ar
     3     8    13   ar
     4    10    11   ar
     5    13     7   ar
     6    13    14   ar
     7     7     5   ar
     8    11    14   ar
     9    14     1   ar
    10     5     3   ar
    11     1     3   ar
    12     1     2    1
    13     3    12    1
    14    12     4   ar
    15    12     6   ar
