@<TRIPOS>MOLECULE
3nkv_AMP_A_1.pdb
 22 24 0 0 0
SMALL
GASTEIGER

@<TRIPOS>ATOM
      1  P         -8.2320   33.7460    9.3090 P.3   600  AMP600      0.3942
      2  O2P       -9.4860   34.4850    9.4380 O.3   600  AMP600     -0.1425
      3  O3P       -6.9910   34.0650   10.1030 O.3   600  AMP600     -0.1425
      4  O5'       -8.4280   32.1840    9.4430 O.3   600  AMP600     -0.2926
      5  C5'       -9.4290   31.5630    8.6440 C.3   600  AMP600      0.1831
      6  C4'      -10.2480   30.5630    9.4320 C.3   600  AMP600      0.1822
      7  O4'       -9.3500   29.5750    9.9210 O.3   600  AMP600     -0.3135
      8  C3'      -10.9100   31.2680   10.5900 C.3   600  AMP600      0.2184
      9  O3'      -12.2700   30.8040   10.6570 O.3   600  AMP600     -0.2174
     10  C2'       -9.9530   30.8460   11.7000 C.3   600  AMP600      0.2570
     11  O2'      -10.4330   30.8270   13.0080 O.3   600  AMP600     -0.2130
     12  C1'       -9.5380   29.4530   11.3160 C.3   600  AMP600      0.3186
     13  N9        -8.2250   29.1730   11.8300 N.pl3 600  AMP600     -0.1439
     14  C8        -7.1640   29.8030   11.3310 C.3   600  AMP600      0.3377
     15  N7        -6.0380   29.4060   11.9550 N.2   600  AMP600     -0.2095
     16  C5        -6.3940   28.4940   12.8540 C.2   600  AMP600      0.2526
     17  C6        -5.6300   27.7040   13.8310 C.2   600  AMP600      0.4393
     18  N6        -4.2720   27.8710   13.8780 N.pl3 600  AMP600      0.2180
     19  N1        -6.3490   26.8630   14.6240 N.2   600  AMP600      0.0021
     20  C2        -7.7010   26.7500   14.5310 C.3   600  AMP600      0.5254
     21  N3        -8.4480   27.4500   13.6370 N.2   600  AMP600     -0.0055
     22  C4        -7.8540   28.3340   12.7930 C.2   600  AMP600      0.3518
@<TRIPOS>BOND
     1     5     6    1
     2     5     4    1
     3     1     2    1
     4     1     4    1
     5     1     3    1
     6     6     7    1
     7     6     8    1
     8     7    12    1
     9     8     9    1
    10     8    10    1
    11    12    10    1
    12    12    13    1
    13    14    13    1
    14    14    15    1
    15    10    11    1
    16    13    22    1
    17    15    16    2
    18    22    16    1
    19    22    21    2
    20    16    17    1
    21    21    20    1
    22    17    18    1
    23    17    19    2
    24    20    19    1
