@<TRIPOS>MOLECULE
3nkv_GNP_A_1.pdb
 32 34 0 0 0
SMALL
GASTEIGER

@<TRIPOS>ATOM
      1  PG       -13.7130   27.1540   -4.6000 P.3   400  GNP400      0.4884
      2  O1G      -12.2770   27.5450   -4.7870 O.3   400  GNP400     -0.1240
      3  O2G      -14.1210   26.8960   -3.1780 O.3   400  GNP400     -0.1240
      4  O3G      -14.6640   28.1230   -5.3230 O.2   400  GNP400     -0.2331
      5  N3B      -13.9420   25.6970   -5.4390 N.3   400  GNP400     -0.0163
      6  PB       -13.0870   24.2920   -5.0060 P.3   400  GNP400      0.4669
      7  O1B      -11.7320   24.1780   -5.7300 O.2   400  GNP400     -0.2351
      8  O2B      -13.0740   24.1140   -3.5150 O.3   400  GNP400     -0.1253
      9  O3A      -13.9890   23.1210   -5.6640 O.3   400  GNP400     -0.2360
     10  PA       -14.8710   22.0100   -4.9090 P.3   400  GNP400      0.2220
     11  O1A      -14.0280   21.1430   -4.0410 O.3   400  GNP400     -0.4370
     12  O2A      -16.0700   22.7440   -4.3440 O.2   400  GNP400     -0.5170
     13  O5'      -15.3380   21.1040   -6.1410 O.3   400  GNP400     -0.3111
     14  C5'      -15.9340   21.6610   -7.2560 C.3   400  GNP400      0.1813
     15  C4'      -16.7290   20.6400   -8.0440 C.3   400  GNP400      0.1799
     16  O4'      -15.8370   19.6290   -8.5460 O.3   400  GNP400     -0.3326
     17  C3'      -17.8320   19.9400   -7.2510 C.3   400  GNP400      0.2158
     18  O3'      -19.0130   19.7680   -8.0610 O.3   400  GNP400     -0.2175
     19  C2'      -17.1600   18.6080   -6.9620 C.3   400  GNP400      0.2310
     20  O2'      -18.0620   17.5340   -6.7240 O.3   400  GNP400     -0.2158
     21  C1'      -16.2710   18.3260   -8.1510 C.3   400  GNP400      0.2293
     22  N9       -15.0930   17.5160   -7.8400 N.pl3 400  GNP400     -0.2354
     23  C8       -14.1480   17.8490   -6.9330 C.3   400  GNP400      0.2246
     24  N7       -13.1920   16.9150   -6.9060 N.2   400  GNP400     -0.2322
     25  C5       -13.5070   15.9690   -7.8410 C.2   400  GNP400      0.2182
     26  C6       -12.8700   14.7740   -8.3440 C.1   400  GNP400      0.2372
     27  O6       -11.8140   14.3370   -7.8690 O.2   400  GNP400     -0.2069
     28  N1       -13.5710   14.1120   -9.2780 N.2   400  GNP400     -0.2485
     29  C2       -14.7660   14.5570   -9.8140 C.1   400  GNP400      0.2531
     30  N2       -15.4020   13.8740  -10.7630 N.pl3 400  GNP400     -0.0226
     31  N3       -15.3800   15.7040   -9.4430 N.2   400  GNP400     -0.3074
     32  C4       -14.7370   16.3810   -8.4700 C.2   400  GNP400      0.2300
@<TRIPOS>BOND
     1    30    29    1
     2    29    31    2
     3    29    28    2
     4    31    32    2
     5    28    26    2
     6    16    21    1
     7    16    15    1
     8    32    25    1
     9    32    22    1
    10    26    27    2
    11    26    25    1
    12    21    22    1
    13    21    19    1
    14    18    17    1
    15    15    14    1
    16    15    17    1
    17    25    24    2
    18    22    23    1
    19    14    13    1
    20    17    19    1
    21    19    20    1
    22    23    24    1
    23    13    10    1
    24     7     6    2
    25     9     6    1
    26     9    10    1
    27     5     6    1
    28     5     1    1
    29     4     1    2
    30     6     8    1
    31    10    12    2
    32    10    11    1
    33     2     1    1
    34     1     3    1
