@<TRIPOS>MOLECULE
3nkw_NAG_C_1.pdb
 15 15 0 0 0
SMALL
GASTEIGER

@<TRIPOS>ATOM
      1  C1       -24.8510  -33.8650  -21.4960 C.3   172  NAG172      0.2917
      2  C2       -24.7150  -32.4030  -21.9010 C.3   172  NAG172      0.1871
      3  C3       -26.0800  -31.7420  -21.7770 C.3   172  NAG172      0.2095
      4  C4       -26.8830  -32.4870  -22.8420 C.3   172  NAG172      0.2136
      5  C5       -27.0140  -33.9510  -22.3590 C.3   172  NAG172      0.1835
      6  C6       -28.1330  -34.8250  -22.9610 C.3   172  NAG172      0.2142
      7  C7       -23.1250  -30.6290  -20.9250 C.2   172  NAG172      0.2421
      8  C8       -21.7110  -30.5700  -20.4310 C.3   172  NAG172      0.0964
      9  N2       -23.5000  -31.8520  -21.2990 N.am  172  NAG172     -0.1991
     10  O1       -23.5660  -34.4290  -21.4900 O.3   172  NAG172     -0.1879
     11  O3       -26.0890  -30.3570  -22.0110 O.3   172  NAG172     -0.2183
     12  O4       -28.1090  -31.8310  -23.0730 O.3   172  NAG172     -0.2176
     13  O5       -25.7220  -34.5490  -22.3940 O.3   172  NAG172     -0.3242
     14  O6       -27.9870  -35.2810  -24.3070 O.3   172  NAG172     -0.2176
     15  O7       -23.8180  -29.6180  -20.9390 O.2   172  NAG172     -0.2733
@<TRIPOS>BOND
     1    14     6    1
     2    12     4    1
     3     6     5    1
     4     4     5    1
     5     4     3    1
     6    13     5    1
     7    13     1    1
     8    11     3    1
     9     2     3    1
    10     2     1    1
    11     2     9    1
    12     1    10    1
    13     9     7   am
    14    15     7    2
    15     7     8    1
