@<TRIPOS>MOLECULE
3nl1_GTQ_A_1.pdb
 11 11 0 0 0
SMALL
GASTEIGER

@<TRIPOS>ATOM
      1  OAA       -9.9320  -23.5240  -24.4710 O.co2 370  GTQ370     -0.2404
      2  OAB      -11.3320  -25.1780  -24.0570 O.co2 370  GTQ370     -0.2404
      3  OAC       -6.3620  -25.2980  -27.4270 O.3   370  GTQ370     -0.2866
      4  OAD      -10.9440  -27.5330  -25.1730 O.3   370  GTQ370     -0.2863
      5  CAE       -7.8380  -27.1790  -27.1420 C.ar  370  GTQ370      0.0453
      6  CAF       -8.9880  -27.7410  -26.5660 C.ar  370  GTQ370      0.0455
      7  CAG       -8.2920  -25.0580  -26.0590 C.ar  370  GTQ370      0.0518
      8  CAH      -10.3000  -24.7120  -24.6140 C.2   370  GTQ370      0.3910
      9  CAI       -7.4880  -25.8400  -26.8850 C.ar  370  GTQ370      0.1962
     10  CAJ       -9.8250  -26.9890  -25.7450 C.ar  370  GTQ370      0.2022
     11  CAK       -9.4540  -25.5790  -25.4860 C.ar  370  GTQ370      0.1217
@<TRIPOS>BOND
     1     3     9    1
     2     5     9   ar
     3     5     6   ar
     4     9     7   ar
     5     6    10   ar
     6     7    11   ar
     7    10    11   ar
     8    10     4    1
     9    11     8    1
    10     8     1   ar
    11     8     2   ar
