@<TRIPOS>MOLECULE
3nl3_TPS_A_1.pdb
 22 23 0 0 0
SMALL
GASTEIGER

@<TRIPOS>ATOM
      1  CM2      -14.6270  -22.1660   41.2380 C.3   2001  TPS2001     0.1291
      2  N3       -10.8260  -16.9650   41.6020 N.3   2001  TPS2001    -0.2601
      3  C2       -10.7770  -16.2620   42.9900 C.3   2001  TPS2001     0.1316
      4  S1        -9.2500  -16.5230   43.6550 S.3   2001  TPS2001    -0.1220
      5  C5        -8.5720  -17.7230   42.6000 C.3   2001  TPS2001     0.0661
      6  C4        -9.3860  -17.6170   41.3170 C.3   2001  TPS2001     0.0686
      7  CM4       -8.8090  -17.9030   39.9400 C.3   2001  TPS2001     0.0183
      8  C6        -7.0990  -18.0790   42.5400 C.3   2001  TPS2001     0.0449
      9  C7        -6.2590  -18.1430   43.8090 C.3   2001  TPS2001     0.1547
     10  O7        -5.7780  -19.4320   44.0380 O.3   2001  TPS2001    -0.2702
     11  N1A      -14.1270  -19.7900   42.0150 N.2   2001  TPS2001    -0.1861
     12  C2A      -13.9210  -20.8220   41.0750 C.1   2001  TPS2001     0.0663
     13  N3A      -13.0760  -20.6110   40.0000 N.2   2001  TPS2001    -0.3368
     14  C4A      -12.4760  -19.4650   39.8690 C.2   2001  TPS2001     0.2289
     15  N4A      -11.5950  -19.2680   38.7400 N.pl3 2001  TPS2001    -0.0925
     16  C5A      -12.6930  -18.3940   40.8440 C.2   2001  TPS2001     0.0616
     17  C6A      -13.5030  -18.5920   41.8740 C.2   2001  TPS2001     0.1112
     18  C7A      -11.9710  -17.0570   40.7100 C.3   2001  TPS2001     0.1054
     19  P1        -4.5460  -19.7820   45.0770 P.3   2001  TPS2001     0.5326
     20  O1        -4.5440  -18.8980   46.2560 O.3   2001  TPS2001    -0.1145
     21  O2        -3.1130  -19.7080   44.2550 O.2   2001  TPS2001    -0.2224
     22  O3        -4.7570  -21.3520   45.5510 O.3   2001  TPS2001    -0.1145
@<TRIPOS>BOND
     1    15    14    1
     2    14    13    2
     3    14    16    1
     4     7     6    1
     5    13    12    2
     6    18    16    1
     7    18     2    1
     8    16    17    2
     9    12     1    1
    10    12    11    2
    11     6     2    1
    12     6     5    1
    13     2     3    1
    14    17    11    1
    15     8     5    1
    16     8     9    1
    17     5     4    1
    18     3     4    1
    19     9    10    1
    20    10    19    1
    21    21    19    2
    22    19    22    1
    23    19    20    1
