@<TRIPOS>MOLECULE
3nl5_ACP_A_1.pdb
 31 33 0 0 0
SMALL
GASTEIGER

@<TRIPOS>ATOM
      1  PG        39.8370   22.9040  -29.7440 P.3   799  ACP799      0.1295
      2  O1G       41.0890   22.0850  -30.4330 O.2   799  ACP799     -0.4595
      3  O2G       40.3270   23.5590  -28.3140 O.3   799  ACP799     -0.3567
      4  O3G       38.7300   21.9820  -29.5010 O.3   799  ACP799     -0.3567
      5  PB        39.1140   25.9960  -30.1870 P.3   799  ACP799      0.3815
      6  O1B       39.9890   27.0460  -31.0990 O.2   799  ACP799     -0.2547
      7  O2B       39.6140   26.0090  -28.8180 O.3   799  ACP799     -0.1391
      8  C3B       39.2730   24.2680  -30.8950 C.3   799  ACP799      0.1768
      9  PA        36.9360   27.4170  -31.4350 P.3   799  ACP799      0.2209
     10  O1A       35.3600   27.8030  -31.1400 O.3   799  ACP799     -0.4371
     11  O2A       37.7310   28.6430  -31.5130 O.2   799  ACP799     -0.5170
     12  O3A       37.5120   26.4570  -30.1950 O.3   799  ACP799     -0.2483
     13  O5'       37.0460   26.5890  -32.8810 O.3   799  ACP799     -0.3111
     14  C5'       37.9640   27.0180  -33.8740 C.3   799  ACP799      0.1813
     15  C4'       37.5790   26.7850  -35.3470 C.3   799  ACP799      0.1821
     16  O4'       36.1740   26.3910  -35.6130 O.3   799  ACP799     -0.3135
     17  C3'       37.8220   27.9490  -36.3040 C.3   799  ACP799      0.2184
     18  O3'       38.3670   27.6240  -37.5550 O.3   799  ACP799     -0.2174
     19  C2'       36.4950   28.6690  -36.3160 C.3   799  ACP799      0.2570
     20  O2'       36.2900   29.5840  -37.3580 O.3   799  ACP799     -0.2130
     21  C1'       35.4840   27.5450  -36.1980 C.3   799  ACP799      0.3186
     22  N9        34.3480   27.9630  -35.3390 N.pl3 799  ACP799     -0.1439
     23  C8        34.2330   27.8130  -33.9930 C.3   799  ACP799      0.3377
     24  N7        32.9780   28.3590  -33.5940 N.2   799  ACP799     -0.2095
     25  C5        32.3280   28.8500  -34.7500 C.2   799  ACP799      0.2526
     26  C6        31.0850   29.4800  -34.9350 C.2   799  ACP799      0.4393
     27  N6        30.2070   29.7300  -33.7910 N.pl3 799  ACP799      0.2180
     28  N1        30.7000   29.8560  -36.1700 N.2   799  ACP799      0.0021
     29  C2        31.5210   29.6230  -37.2460 C.3   799  ACP799      0.5254
     30  N3        32.7540   28.9980  -37.0620 N.2   799  ACP799     -0.0055
     31  C4        33.1430   28.6200  -35.8230 C.2   799  ACP799      0.3518
@<TRIPOS>BOND
     1    18    17    1
     2    20    19    1
     3    29    30    1
     4    29    28    1
     5    30    31    2
     6    19    17    1
     7    19    21    1
     8    17    15    1
     9    21    16    1
    10    21    22    1
    11    28    26    2
    12    31    22    1
    13    31    25    1
    14    16    15    1
    15    15    14    1
    16    22    23    1
    17    26    25    1
    18    26    27    1
    19    25    24    2
    20    23    24    1
    21    14    13    1
    22    13     9    1
    23    11     9    2
    24     9    10    1
    25     9    12    1
    26     6     5    2
    27     8     5    1
    28     8     1    1
    29     2     1    2
    30    12     5    1
    31     5     7    1
    32     1     4    1
    33     1     3    1
