@<TRIPOS>MOLECULE
3nl6_TPS_A_1.pdb
 21 22 0 0 0
SMALL
GASTEIGER

@<TRIPOS>ATOM
      1  CM2       73.9810   47.2400  -15.9360 C.3   2001  TPS2001     0.1291
      2  N3        73.1500   41.3960  -13.3320 N.3   2001  TPS2001    -0.2601
      3  C2        71.9600   40.5680  -13.9000 C.3   2001  TPS2001     0.1316
      4  S1        72.5930   39.2810  -14.7860 S.3   2001  TPS2001    -0.1220
      5  C5        74.2780   39.6840  -14.8970 C.3   2001  TPS2001     0.0661
      6  C4        74.5170   40.6710  -13.7630 C.3   2001  TPS2001     0.0686
      7  CM4       75.8390   40.7790  -13.0190 C.3   2001  TPS2001     0.0183
      8  C6        75.3670   38.7110  -15.3030 C.3   2001  TPS2001     0.0448
      9  C7        75.1280   37.6860  -16.4040 C.3   2001  TPS2001     0.1518
     10  O7        75.9740   37.9010  -17.4940 O.3   2001  TPS2001    -0.2953
     11  N1A       72.5120   45.3720  -15.0160 N.2   2001  TPS2001    -0.1861
     12  C2A       73.7600   46.0290  -15.0340 C.1   2001  TPS2001     0.0663
     13  N3A       74.7860   45.5720  -14.2250 N.2   2001  TPS2001    -0.3368
     14  C4A       74.5910   44.5390  -13.4610 C.2   2001  TPS2001     0.2289
     15  N4A       75.6790   44.0780  -12.6260 N.pl3 2001  TPS2001    -0.0925
     16  C5A       73.2940   43.8590  -13.4420 C.2   2001  TPS2001     0.0616
     17  C6A       72.3090   44.2950  -14.2140 C.2   2001  TPS2001     0.1112
     18  C7A       73.0690   42.6300  -12.5680 C.3   2001  TPS2001     0.1054
     19  P1        76.2570   36.7810  -18.6710 P.3   2001  TPS2001     0.3942
     20  O1        75.0670   35.9610  -18.9580 O.3   2001  TPS2001    -0.1425
     21  O3        76.7040   37.6190  -20.0250 O.3   2001  TPS2001    -0.1425
@<TRIPOS>BOND
     1    21    19    1
     2    20    19    1
     3    19    10    1
     4    10     9    1
     5     9     8    1
     6     1    12    1
     7     8     5    1
     8    12    11    2
     9    12    13    2
    10    11    17    1
    11     5     4    1
    12     5     6    1
    13     4     3    1
    14    13    14    2
    15    17    16    2
    16     3     2    1
    17     6     2    1
    18     6     7    1
    19    14    16    1
    20    14    15    1
    21    16    18    1
    22     2    18    1
