@<TRIPOS>MOLECULE
3nl6_ACP_A_1.pdb
 31 33 0 0 0
SMALL
GASTEIGER

@<TRIPOS>ATOM
      1  PG        40.5570   22.5470  -29.6890 P.3   799  ACP799      0.1295
      2  O1G       41.8910   21.8240  -30.3300 O.2   799  ACP799     -0.4595
      3  O2G       40.9160   23.1400  -28.1950 O.3   799  ACP799     -0.3567
      4  O3G       39.4810   21.5640  -29.5750 O.3   799  ACP799     -0.3567
      5  PB        39.8420   25.6530  -30.0410 P.3   799  ACP799      0.3815
      6  O1B       40.9470   26.6650  -30.7170 O.2   799  ACP799     -0.2547
      7  O2B       40.0770   25.5690  -28.6040 O.3   799  ACP799     -0.1391
      8  C3B       40.0070   23.9480  -30.8010 C.3   799  ACP799      0.1768
      9  PA        38.0670   27.3970  -31.4990 P.3   799  ACP799      0.2209
     10  O1A       36.5770   28.0740  -31.3070 O.3   799  ACP799     -0.4371
     11  O2A       39.0930   28.4340  -31.3840 O.2   799  ACP799     -0.5170
     12  O3A       38.3080   26.2420  -30.3160 O.3   799  ACP799     -0.2483
     13  O5'       38.1650   26.6840  -33.0060 O.3   799  ACP799     -0.3111
     14  C5'       38.5740   27.4520  -34.1270 C.3   799  ACP799      0.1813
     15  C4'       38.1200   26.9750  -35.5200 C.3   799  ACP799      0.1821
     16  O4'       36.7250   26.4860  -35.6350 O.3   799  ACP799     -0.3135
     17  C3'       38.2560   27.9820  -36.6590 C.3   799  ACP799      0.2184
     18  O3'       38.7590   27.4890  -37.8720 O.3   799  ACP799     -0.2174
     19  C2'       36.8930   28.6300  -36.7110 C.3   799  ACP799      0.2570
     20  O2'       36.5940   29.3640  -37.8670 O.3   799  ACP799     -0.2130
     21  C1'       35.9530   27.4900  -36.3750 C.3   799  ACP799      0.3186
     22  N9        34.8180   27.9830  -35.5540 N.pl3 799  ACP799     -0.1439
     23  C8        34.6770   27.8970  -34.2050 C.3   799  ACP799      0.3377
     24  N7        33.4360   28.5020  -33.8510 N.2   799  ACP799     -0.2095
     25  C5        32.8200   28.9620  -35.0380 C.2   799  ACP799      0.2526
     26  C6        31.6020   29.6230  -35.2720 C.2   799  ACP799      0.4393
     27  N6        30.7160   29.9520  -34.1550 N.pl3 799  ACP799      0.2180
     28  N1        31.2480   29.9550  -36.5290 N.2   799  ACP799      0.0021
     29  C2        32.0780   29.6480  -37.5800 C.3   799  ACP799      0.5254
     30  N3        33.2860   28.9910  -37.3480 N.2   799  ACP799     -0.0055
     31  C4        33.6440   28.6570  -36.0860 C.2   799  ACP799      0.3518
@<TRIPOS>BOND
     1    18    17    1
     2    20    19    1
     3    29    30    1
     4    29    28    1
     5    30    31    2
     6    19    17    1
     7    19    21    1
     8    17    15    1
     9    28    26    2
    10    21    16    1
    11    21    22    1
    12    31    22    1
    13    31    25    1
    14    16    15    1
    15    22    23    1
    16    15    14    1
    17    26    25    1
    18    26    27    1
    19    25    24    2
    20    23    24    1
    21    14    13    1
    22    13     9    1
    23     9    11    2
    24     9    10    1
    25     9    12    1
    26     8     5    1
    27     8     1    1
    28     6     5    2
    29     2     1    2
    30    12     5    1
    31     5     7    1
    32     1     4    1
    33     1     3    1
