@<TRIPOS>MOLECULE
3nlb_5BE_A_1.pdb
 28 31 0 0 0
SMALL
GASTEIGER

@<TRIPOS>ATOM
      1  C1         3.7300   -6.9510   14.0550 C.3   298  5BE298      0.0739
      2  C2         2.3510   -3.1240   19.4510 C.1   298  5BE298      0.1548
      3  C3         3.6700   -2.6620   19.3270 C.2   298  5BE298      0.1788
      4  C4         4.7070   -3.2970   18.6920 C.3   298  5BE298      0.1692
      5  C5         5.7780   -2.4300   18.8880 C.2   298  5BE298      0.0736
      6  N6         5.3830   -1.3940   19.6310 N.2   298  5BE298     -0.1554
      7  N7         4.1690   -1.5340   19.9110 N.2   298  5BE298     -0.1399
      8  C8         7.2130   -2.6060   18.3780 C.3   298  5BE298      0.0501
      9  C9         4.8070   -4.5650   17.8180 C.2   298  5BE298      0.2528
     10  O10        5.9050   -4.8480   17.3210 O.2   298  5BE298     -0.2725
     11  N11        3.7120   -5.2260   17.5000 N.am  298  5BE298     -0.2065
     12  C12        3.7480   -6.3780   16.5560 C.3   298  5BE298      0.0981
     13  C13        3.7260   -5.8370   15.1000 C.3   298  5BE298      0.0390
     14  N14        2.5360   -7.8150   14.2900 N.3   298  5BE298     -0.2714
     15  C15        2.5760   -8.4380   15.6310 C.3   298  5BE298      0.0739
     16  C16        2.5490   -7.3310   16.7550 C.3   298  5BE298      0.0390
     17  N17        1.4800   -2.4600   20.2030 N.2   298  5BE298     -0.3362
     18  N18        1.7740   -4.2170   18.9230 N.2   298  5BE298     -0.3362
     19  C19        0.5230   -4.2500   19.3800 C.ar  298  5BE298      0.1741
     20  C20        0.3520   -3.1370   20.1900 C.ar  298  5BE298      0.1738
     21  C21       -0.8520   -2.9200   20.8660 C.ar  298  5BE298      0.0314
     22  C22       -1.9120   -3.7910   20.7030 C.ar  298  5BE298     -0.0198
     23  C23       -1.7650   -4.8990   19.8610 C.ar  298  5BE298     -0.0015
     24  C24       -0.5510   -5.1380   19.1910 C.ar  298  5BE298      0.0354
     25  C25       -3.2200   -3.4410   21.4630 C.3   298  5BE298      0.0224
     26  C26       -3.3260   -4.3640   22.7090 C.3   298  5BE298      0.0047
     27  C27       -4.4910   -3.4540   20.5970 C.3   298  5BE298      0.0047
     28  C28        2.4230   -8.9080   13.2610 C.3   298  5BE298      0.0896
@<TRIPOS>BOND
     1    28    14    1
     2     1    14    1
     3     1    13    1
     4    14    15    1
     5    13    12    1
     6    15    16    1
     7    12    16    1
     8    12    11    1
     9    10     9    2
    10    11     9   am
    11     9     4    1
    12     8     5    1
    13     4     5    1
    14     4     3    1
    15     5     6    2
    16    18    19    2
    17    18     2    2
    18    24    19   ar
    19    24    23   ar
    20     3     2    1
    21     3     7    2
    22    19    20   ar
    23     2    17    2
    24     6     7    1
    25    23    22   ar
    26    20    17    2
    27    20    21   ar
    28    27    25    1
    29    22    21   ar
    30    22    25    1
    31    25    26    1
