@<TRIPOS>MOLECULE
3nld_HEM_A_1.pdb
 43 50 0 0 0
SMALL
GASTEIGER

@<TRIPOS>ATOM
      1  CHA        9.5890    9.0170   35.2930 C.2   500  HEM500      0.0000
      2  CHB        4.9270    9.0610   33.9180 C.2   500  HEM500      0.0000
      3  CHC        5.9920    7.6120   29.5330 C.2   500  HEM500      0.0000
      4  CHD       10.4140    6.6950   31.2310 C.2   500  HEM500      0.0000
      5  C1A        8.2420    9.2230   35.1940 C.2   500  HEM500      0.0000
      6  C2A        7.4930    9.9490   36.1990 C.2   500  HEM500      0.0000
      7  C3A        6.2160    9.9590   35.7910 C.2   500  HEM500      0.0000
      8  C4A        6.1260    9.2480   34.5470 C.2   500  HEM500      0.0000
      9  CMA        5.0000   10.5980   36.4990 C.3   500  HEM500      0.0000
     10  CAA        8.0970   10.5990   37.4770 C.3   500  HEM500      0.0000
     11  CBA        8.6750   11.9620   37.0640 C.3   500  HEM500      0.0000
     12  CGA        8.8340   13.0180   38.1360 C.2   500  HEM500      0.0000
     13  O1A        7.8070   13.4490   38.7340 O.co2 500  HEM500      0.0000
     14  O2A       10.0100   13.4640   38.3490 O.co2 500  HEM500      0.0000
     15  C1B        4.7840    8.6850   32.6340 C.ar  500  HEM500      0.0000
     16  C2B        3.5620    8.6960   31.8970 C.ar  500  HEM500      0.0000
     17  C3B        3.8470    8.2980   30.6710 C.ar  500  HEM500      0.0000
     18  C4B        5.2630    8.0340   30.6130 C.ar  500  HEM500      0.0000
     19  CMB        2.2030    9.0930   32.4560 C.3   500  HEM500      0.0000
     20  CAB        2.8750    8.1240   29.4910 C.2   500  HEM500      0.0000
     21  CBB        3.0400    7.0390   28.7250 C.2   500  HEM500      0.0000
     22  C1C        7.2940    7.2680   29.6350 C.2   500  HEM500      0.0000
     23  C2C        8.1430    6.8250   28.5190 C.2   500  HEM500      0.0000
     24  C3C        9.3670    6.5790   29.0410 C.2   500  HEM500      0.0000
     25  C4C        9.3260    6.8620   30.4560 C.2   500  HEM500      0.0000
     26  CMC        7.7440    6.6350   27.0220 C.3   500  HEM500      0.0000
     27  CAC       10.6030    6.0690   28.2770 C.2   500  HEM500      0.0000
     28  CBC       10.4920    5.6170   27.0240 C.2   500  HEM500      0.0000
     29  C1D       10.6810    7.2390   32.4510 C.ar  500  HEM500      0.0000
     30  C2D       11.9380    7.2040   33.1830 C.ar  500  HEM500      0.0000
     31  C3D       11.6830    7.9340   34.4690 C.ar  500  HEM500      0.0000
     32  C4D       10.2950    8.3240   34.3750 C.ar  500  HEM500      0.0000
     33  CMD       13.2880    6.5770   32.8040 C.3   500  HEM500      0.0000
     34  CAD       12.6940    8.1850   35.6170 C.3   500  HEM500      0.0000
     35  CBD       13.2540    9.6140   35.6800 C.3   500  HEM500      0.0000
     36  CGD       14.0600    9.7200   36.9570 C.2   500  HEM500      0.0000
     37  O1D       14.4590    8.6310   37.4370 O.co2 500  HEM500      0.0000
     38  O2D       14.2860   10.8460   37.5090 O.co2 500  HEM500      0.0000
     39  NA         7.3930    8.7850   34.1720 N.2   500  HEM500      0.0000
     40  NB         5.8180    8.3000   31.8250 N.ar  500  HEM500      0.0000
     41  NC         8.0290    7.3120   30.8310 N.2   500  HEM500      0.0000
     42  ND         9.7500    7.9130   33.1860 N.ar  500  HEM500      0.0000
     43 FE          7.6810    7.7030   32.6400 Fe    500  HEM500      0.0000
@<TRIPOS>BOND
     1    26    23    1
     2    28    27    2
     3    27    24    1
     4    23    24    2
     5    23    22    1
     6    21    20    2
     7    24    25    1
     8    20    17    1
     9     3    22    2
    10     3    18    1
    11    22    41    1
    12    25    41    2
    13    25     4    1
    14    18    17   ar
    15    18    40   ar
    16    17    16   ar
    17    41    43    1
    18     4    29    2
    19    40    15   ar
    20    40    43    1
    21    16    19    1
    22    16    15   ar
    23    29    30   ar
    24    29    42   ar
    25    15     2    1
    26    43    42    1
    27    43    39    1
    28    33    30    1
    29    30    31   ar
    30    42    32   ar
    31     2     8    2
    32    39     8    1
    33    39     5    2
    34    32    31   ar
    35    32     1    2
    36    31    34    1
    37     8     7    1
    38     5     1    1
    39     5     6    1
    40    34    35    1
    41    35    36    1
    42     7     6    2
    43     7     9    1
    44     6    10    1
    45    36    37   ar
    46    36    38   ar
    47    11    10    1
    48    11    12    1
    49    12    14   ar
    50    12    13   ar
