@<TRIPOS>MOLECULE
3nld_H4B_A_1.pdb
 17 18 0 0 0
SMALL
GASTEIGER

@<TRIPOS>ATOM
      1  N1         8.3400   11.8150   43.0750 N.2   600  H4B600     -0.2683
      2  C2         8.2790   12.1850   41.8140 C.1   600  H4B600      0.2608
      3  N2         7.4230   11.5160   41.0040 N.pl3 600  H4B600     -0.0220
      4  N3         9.0700   13.1900   41.3810 N.2   600  H4B600     -0.2474
      5  C4         9.9400   13.8330   42.2400 C.1   600  H4B600      0.2441
      6  O4        10.6720   14.7910   41.9070 O.2   600  H4B600     -0.2063
      7  C4A       10.0120   13.4470   43.5500 C.2   600  H4B600      0.2463
      8  C8A        9.1780   12.4040   43.9380 C.1   600  H4B600      0.1270
      9  N5        10.8490   14.0620   44.4290 N.2   600  H4B600     -0.2460
     10  N8         9.2090   11.9780   45.2020 N.2   600  H4B600     -0.2054
     11  C6        11.2950   13.2580   45.5460 C.3   600  H4B600      0.1627
     12  C7        10.0810   12.5970   46.2060 C.3   600  H4B600      0.1643
     13  C9        12.1720   14.0340   46.5480 C.3   600  H4B600      0.2063
     14  O9        11.5890   15.2940   46.9240 O.3   600  H4B600     -0.2183
     15  C10       12.4510   13.2250   47.8060 C.3   600  H4B600      0.1842
     16  C11       13.2160   13.9880   48.8580 C.3   600  H4B600      0.0383
     17  O10       13.2000   12.0550   47.4740 O.3   600  H4B600     -0.2204
@<TRIPOS>BOND
     1     3     2    1
     2     4     2    2
     3     4     5    2
     4     2     1    2
     5     6     5    2
     6     5     7    1
     7     1     8    2
     8     7     8    1
     9     7     9    2
    10     8    10    2
    11     9    11    1
    12    10    12    1
    13    11    12    1
    14    11    13    1
    15    13    14    1
    16    13    15    1
    17    17    15    1
    18    15    16    1
