@<TRIPOS>MOLECULE
3nld_JSS_A_1.pdb
 27 29 0 0 0
SMALL
GASTEIGER

@<TRIPOS>ATOM
      1  C1        12.6640   14.2830   34.7870 C.3   800  JSS800      0.1608
      2  O1        11.2680   14.0980   34.8740 O.3   800  JSS800     -0.3532
      3  C2        13.2640   13.3890   35.8640 C.3   800  JSS800      0.1207
      4  N2        14.2370   14.0830   36.6910 N.3   800  JSS800     -0.2150
      5  C3        13.8080   14.8390   37.8490 C.3   800  JSS800      0.0935
      6  C4        14.6550   14.5070   39.0660 C.3   800  JSS800      0.0452
      7  N1'        8.2450   15.7780   34.4880 N.3   800  JSS800     -0.2154
      8  C11       15.8500   15.4190   39.1560 C.ar  800  JSS800     -0.0185
      9  C12       15.6560   16.7980   39.2050 C.ar  800  JSS800      0.0254
     10  C13       16.7610   17.6490   39.2840 C.ar  800  JSS800      0.1398
     11  F13       16.5480   18.9840   39.3180 F     800  JSS800     -0.2042
     12  C14       18.0620   17.1190   39.3250 C.ar  800  JSS800      0.0296
     13  C15       18.2540   15.7390   39.2830 C.ar  800  JSS800      0.0020
     14  C16       17.1440   14.8910   39.2000 C.ar  800  JSS800     -0.0041
     15  N1A        6.9060   12.4580   32.7300 N.2   800  JSS800     -0.3922
     16  C2'        9.5310   15.7980   35.1590 C.3   800  JSS800      0.1182
     17  C2A        8.2570   12.3490   32.5660 C.2   800  JSS800      0.0926
     18  C3'       10.4720   15.0680   34.1930 C.3   800  JSS800      0.1343
     19  C3A        8.7750   11.7030   31.4480 C.3   800  JSS800      0.0766
     20  C4'        9.5760   14.3870   33.1750 C.3   800  JSS800      0.0527
     21  C4A        7.8980   11.1740   30.5060 C.2   800  JSS800     -0.0333
     22  C5'        8.3420   15.2740   33.1270 C.3   800  JSS800      0.0916
     23  C5A        6.4940   11.2830   30.6940 C.2   800  JSS800      0.0427
     24  C6A        6.0330   11.9420   31.8280 C.2   800  JSS800      0.2178
     25  N6A        4.7090   12.0920   32.0470 N.pl3 800  JSS800     -0.0932
     26  C7A        9.1990   12.9530   33.5930 C.3   800  JSS800      0.0587
     27  C8A        8.4810   10.4680   29.3150 C.3   800  JSS800      0.0269
@<TRIPOS>BOND
     1    27    21    1
     2    21    23    2
     3    21    19    1
     4    23    24    1
     5    19    17    1
     6    24    25    1
     7    24    15    2
     8    17    15    2
     9    17    26    1
    10    22    20    1
    11    22     7    1
    12    20    26    1
    13    20    18    1
    14    18     2    1
    15    18    16    1
    16     7    16    1
    17     1     2    1
    18     1     3    1
    19     3     4    1
    20     4     5    1
    21     5     6    1
    22     6     8    1
    23     8    14   ar
    24     8     9   ar
    25    14    13   ar
    26     9    10   ar
    27    13    12   ar
    28    10    11    1
    29    10    12   ar
