@<TRIPOS>MOLECULE
3nle_HEM_A_1.pdb
 43 50 0 0 0
SMALL
GASTEIGER

@<TRIPOS>ATOM
      1  CHA        9.3340    9.0830   35.4960 C.2   500  HEM500      0.0000
      2  CHB        4.7000    8.9140   34.0610 C.2   500  HEM500      0.0000
      3  CHC        6.0600    7.3890   29.6840 C.2   500  HEM500      0.0000
      4  CHD       10.4540    6.5240   31.5040 C.2   500  HEM500      0.0000
      5  C1A        7.9680    9.3170   35.4250 C.2   500  HEM500      0.0000
      6  C2A        7.1880   10.1670   36.3120 C.2   500  HEM500      0.0000
      7  C3A        5.9000   10.1350   35.9240 C.2   500  HEM500      0.0000
      8  C4A        5.8310    9.2620   34.7660 C.2   500  HEM500      0.0000
      9  CMA        4.7070   10.8880   36.5970 C.3   500  HEM500      0.0000
     10  CAA        7.7850   10.9750   37.4880 C.3   500  HEM500      0.0000
     11  CBA        8.3740   12.2510   36.8790 C.3   500  HEM500      0.0000
     12  CGA        8.9220   13.2790   37.8470 C.2   500  HEM500      0.0000
     13  O1A        8.3350   13.5280   38.9400 O.co2 500  HEM500      0.0000
     14  O2A        9.9770   13.8780   37.4880 O.co2 500  HEM500      0.0000
     15  C1B        4.6400    8.5680   32.7310 C.ar  500  HEM500      0.0000
     16  C2B        3.4670    8.6230   31.8600 C.ar  500  HEM500      0.0000
     17  C3B        3.8490    8.1910   30.6450 C.ar  500  HEM500      0.0000
     18  C4B        5.2690    7.8450   30.7160 C.ar  500  HEM500      0.0000
     19  CMB        2.0540    9.1000   32.2900 C.3   500  HEM500      0.0000
     20  CAB        2.9820    8.0730   29.3730 C.2   500  HEM500      0.0000
     21  CBB        3.0350    6.9890   28.5750 C.2   500  HEM500      0.0000
     22  C1C        7.4060    7.0970   29.7860 C.2   500  HEM500      0.0000
     23  C2C        8.2780    6.7240   28.6980 C.2   500  HEM500      0.0000
     24  C3C        9.4960    6.4870   29.1980 C.2   500  HEM500      0.0000
     25  C4C        9.4280    6.7050   30.6200 C.2   500  HEM500      0.0000
     26  CMC        7.8570    6.6470   27.2260 C.3   500  HEM500      0.0000
     27  CAC       10.7580    6.0440   28.4410 C.2   500  HEM500      0.0000
     28  CBC       10.7410    5.2180   27.3830 C.2   500  HEM500      0.0000
     29  C1D       10.6250    7.1920   32.6900 C.ar  500  HEM500      0.0000
     30  C2D       11.8850    7.3680   33.3980 C.ar  500  HEM500      0.0000
     31  C3D       11.5400    8.1800   34.6450 C.ar  500  HEM500      0.0000
     32  C4D       10.1010    8.3940   34.5700 C.ar  500  HEM500      0.0000
     33  CMD       13.2990    6.8800   32.9870 C.3   500  HEM500      0.0000
     34  CAD       12.5350    8.6770   35.7290 C.3   500  HEM500      0.0000
     35  CBD       12.8980   10.1190   35.3470 C.3   500  HEM500      0.0000
     36  CGD       13.8730   10.7990   36.2920 C.2   500  HEM500      0.0000
     37  O1D       14.5730   10.0950   37.0780 O.co2 500  HEM500      0.0000
     38  O2D       13.9350   12.0680   36.2420 O.co2 500  HEM500      0.0000
     39  NA         7.1070    8.7500   34.4980 N.2   500  HEM500      0.0000
     40  NB         5.6780    8.0340   32.0150 N.ar  500  HEM500      0.0000
     41  NC         8.1230    7.0260   30.9680 N.2   500  HEM500      0.0000
     42  ND         9.6130    7.7510   33.4300 N.ar  500  HEM500      0.0000
     43 FE          7.6020    7.7910   32.7480 Fe    500  HEM500      0.0000
@<TRIPOS>BOND
     1    26    23    1
     2    28    27    2
     3    27    24    1
     4    21    20    2
     5    23    24    2
     6    23    22    1
     7    24    25    1
     8    20    17    1
     9     3    22    2
    10     3    18    1
    11    22    41    1
    12    25    41    2
    13    25     4    1
    14    17    18   ar
    15    17    16   ar
    16    18    40   ar
    17    41    43    1
    18     4    29    2
    19    16    19    1
    20    16    15   ar
    21    40    15   ar
    22    40    43    1
    23    29    30   ar
    24    29    42   ar
    25    15     2    1
    26    43    42    1
    27    43    39    1
    28    33    30    1
    29    30    31   ar
    30    42    32   ar
    31     2     8    2
    32    39     8    1
    33    39     5    2
    34    32    31   ar
    35    32     1    2
    36    31    34    1
    37     8     7    1
    38    35    34    1
    39    35    36    1
    40     5     1    1
    41     5     6    1
    42     7     6    2
    43     7     9    1
    44    38    36   ar
    45    36    37   ar
    46     6    10    1
    47    11    10    1
    48    11    12    1
    49    14    12   ar
    50    12    13   ar
