@<TRIPOS>MOLECULE
3nle_JRR_A_1.pdb
 27 29 0 0 0
SMALL
GASTEIGER

@<TRIPOS>ATOM
      1  C1        10.9940   16.7750   35.2620 C.3   800  JRR800      0.1608
      2  O1        11.9730   16.0790   36.0420 O.3   800  JRR800     -0.3532
      3  C2        10.6860   15.9730   34.0080 C.3   800  JRR800      0.1207
      4  N2        10.1210   14.6650   34.2850 N.3   800  JRR800     -0.2150
      5  C3         9.1770   14.1300   33.3250 C.3   800  JRR800      0.0935
      6  C4         9.0870   12.6120   33.4220 C.3   800  JRR800      0.0452
      7  N1'       11.5600   15.4690   38.9720 N.3   800  JRR800     -0.2154
      8  C11        8.1260   12.0790   32.3880 C.ar  800  JRR800     -0.0185
      9  C12        8.6440   11.5140   31.2260 C.ar  800  JRR800      0.0254
     10  C13        7.7910   11.0080   30.2500 C.ar  800  JRR800      0.1398
     11  F13        8.3360   10.4730   29.1380 F     800  JRR800     -0.2042
     12  C14        6.3980   11.0640   30.4420 C.ar  800  JRR800      0.0296
     13  C15        5.8740   11.6340   31.6150 C.ar  800  JRR800      0.0020
     14  C16        6.7340   12.1390   32.5920 C.ar  800  JRR800     -0.0041
     15  N1A       15.7480   13.4550   37.5660 N.2   800  JRR800     -0.3922
     16  C2'       11.2930   16.7230   38.2940 C.3   800  JRR800      0.1182
     17  C2A       15.6910   14.8120   37.5370 C.2   800  JRR800      0.0926
     18  C3'       12.3820   16.7910   37.2230 C.3   800  JRR800      0.1343
     19  C3A       16.6590   15.5720   38.2000 C.3   800  JRR800      0.0766
     20  C4'       13.5590   16.0410   37.8410 C.3   800  JRR800      0.0527
     21  C4A       17.6900   14.9170   38.8730 C.2   800  JRR800     -0.0333
     22  C5'       12.9000   14.9380   38.6770 C.3   800  JRR800      0.0916
     23  C5A       17.7330   13.5240   38.8910 C.2   800  JRR800      0.0427
     24  C6A       16.7460   12.7940   38.2160 C.2   800  JRR800      0.2178
     25  N6A       16.7850   11.4340   38.2100 N.pl3 800  JRR800     -0.0932
     26  C7A       14.5550   15.4990   36.8110 C.3   800  JRR800      0.0587
     27  C8A       18.7490   15.7250   39.5840 C.3   800  JRR800      0.0269
@<TRIPOS>BOND
     1    11    10    1
     2    10    12   ar
     3    10     9   ar
     4    12    13   ar
     5     9     8   ar
     6    13    14   ar
     7     8    14   ar
     8     8     6    1
     9     5     6    1
    10     5     4    1
    11     3     4    1
    12     3     1    1
    13     1     2    1
    14     2    18    1
    15    26    17    1
    16    26    20    1
    17    18    20    1
    18    18    16    1
    19    17    15    2
    20    17    19    1
    21    15    24    2
    22    20    22    1
    23    19    21    1
    24    25    24    1
    25    24    23    1
    26    16     7    1
    27    22     7    1
    28    21    23    2
    29    21    27    1
