@<TRIPOS>MOLECULE
3nle_H4B_A_1.pdb
 17 18 0 0 0
SMALL
GASTEIGER

@<TRIPOS>ATOM
      1  N1         8.5540   11.9480   43.2000 N.2   600  H4B600     -0.2683
      2  C2         8.5080   12.2750   41.9010 C.1   600  H4B600      0.2608
      3  N2         7.6410   11.6530   41.0540 N.pl3 600  H4B600     -0.0220
      4  N3         9.3070   13.2630   41.4460 N.2   600  H4B600     -0.2474
      5  C4        10.1880   13.9200   42.2260 C.1   600  H4B600      0.2441
      6  O4        10.8840   14.8370   41.6970 O.2   600  H4B600     -0.2063
      7  C4A       10.2610   13.5810   43.5690 C.2   600  H4B600      0.2463
      8  C8A        9.4150   12.5680   44.0370 C.1   600  H4B600      0.1270
      9  N5        11.1210   14.1900   44.4450 N.2   600  H4B600     -0.2460
     10  N8         9.4480   12.1570   45.3260 N.2   600  H4B600     -0.2054
     11  C6        11.5270   13.4130   45.6210 C.3   600  H4B600      0.1627
     12  C7        10.3230   12.7680   46.3310 C.3   600  H4B600      0.1643
     13  C9        12.4320   14.2230   46.5880 C.3   600  H4B600      0.2063
     14  O9        11.8610   15.4930   46.9370 O.3   600  H4B600     -0.2183
     15  C10       12.7880   13.4640   47.8640 C.3   600  H4B600      0.1842
     16  C11       13.6540   14.3200   48.7970 C.3   600  H4B600      0.0383
     17  O10       13.4820   12.2540   47.5210 O.3   600  H4B600     -0.2204
@<TRIPOS>BOND
     1     3     2    1
     2     4     2    2
     3     4     5    2
     4     6     5    2
     5     2     1    2
     6     5     7    1
     7     1     8    2
     8     7     8    1
     9     7     9    2
    10     8    10    2
    11     9    11    1
    12    10    12    1
    13    11    12    1
    14    11    13    1
    15    13    14    1
    16    13    15    1
    17    17    15    1
    18    15    16    1
