@<TRIPOS>MOLECULE
3nlf_JRS_A_1.pdb
 27 29 0 0 0
SMALL
GASTEIGER

@<TRIPOS>ATOM
      1  C1        12.5010   14.2850   34.9610 C.3   800  JRS800      0.1608
      2  O1        11.3550   15.1070   34.7690 O.3   800  JRS800     -0.3532
      3  C2        13.6750   15.1580   35.3960 C.3   800  JRS800      0.1207
      4  N2        13.7990   15.2640   36.8350 N.3   800  JRS800     -0.2150
      5  C3        14.3020   14.1350   37.5920 C.3   800  JRS800      0.0935
      6  C4        14.7480   14.5230   38.9990 C.3   800  JRS800      0.0452
      7  N1'        8.0010   15.4770   34.6190 N.3   800  JRS800     -0.2154
      8  C11       15.9660   15.4240   38.9550 C.ar  800  JRS800     -0.0185
      9  C12       15.7720   16.8110   38.9810 C.ar  800  JRS800      0.0254
     10  C13       16.8680   17.6770   38.9450 C.ar  800  JRS800      0.1398
     11  F13       16.6550   19.0180   38.9640 F     800  JRS800     -0.2042
     12  C14       18.1650   17.1370   38.8890 C.ar  800  JRS800      0.0296
     13  C15       18.3640   15.7510   38.8740 C.ar  800  JRS800      0.0020
     14  C16       17.2640   14.8900   38.9040 C.ar  800  JRS800     -0.0041
     15  N1A        6.7740   12.1500   32.7950 N.2   800  JRS800     -0.3924
     16  C2'        9.0520   15.2820   35.6200 C.3   800  JRS800      0.1182
     17  C2A        8.1250   12.0270   32.7000 C.2   800  JRS800      0.1098
     18  C3'       10.1440   14.3890   34.9960 C.3   800  JRS800      0.1343
     19  C3A        8.7010   11.4400   31.5800 C.2   800  JRS800      0.0196
     20  C4'        9.5730   13.9250   33.6650 C.3   800  JRS800      0.0531
     21  C4A        7.9000   10.9930   30.5300 C.2   800  JRS800     -0.0332
     22  C5'        8.4970   14.9650   33.3400 C.3   800  JRS800      0.0916
     23  C5A        6.5000   11.1150   30.6310 C.3   800  JRS800      0.1001
     24  C6A        5.9640   11.7130   31.7940 C.2   800  JRS800      0.2001
     25  N6A        4.6240   11.8690   31.9520 N.pl3 800  JRS800     -0.0977
     26  C7A        9.0170   12.5070   33.8390 C.3   800  JRS800      0.0629
     27  C8A        8.5760   10.3650   29.3230 C.3   800  JRS800      0.0269
@<TRIPOS>BOND
     1    27    21    1
     2    21    23    1
     3    21    19    2
     4    23    24    1
     5    19    17    1
     6    24    25    1
     7    24    15    2
     8    17    15    2
     9    17    26    1
    10    22    20    1
    11    22     7    1
    12    20    26    1
    13    20    18    1
    14     7    16    1
    15     2     1    1
    16     2    18    1
    17     1     3    1
    18    18    16    1
    19     3     4    1
    20     4     5    1
    21     5     6    1
    22    13    12   ar
    23    13    14   ar
    24    12    10   ar
    25    14     8   ar
    26    10    11    1
    27    10     9   ar
    28     8     9   ar
    29     8     6    1
