@<TRIPOS>MOLECULE
3nlf_HEM_A_1.pdb
 43 50 0 0 0
SMALL
GASTEIGER

@<TRIPOS>ATOM
      1  CHA        9.4670    8.7820   35.4730 C.2   500  HEM500      0.0000
      2  CHB        4.9050    9.0720   33.9950 C.2   500  HEM500      0.0000
      3  CHC        6.0760    7.3920   29.6240 C.2   500  HEM500      0.0000
      4  CHD       10.5300    6.6360   31.2740 C.2   500  HEM500      0.0000
      5  C1A        8.1330    9.0940   35.4380 C.2   500  HEM500      0.0000
      6  C2A        7.3970    9.7970   36.4630 C.2   500  HEM500      0.0000
      7  C3A        6.1270    9.8850   36.0560 C.2   500  HEM500      0.0000
      8  C4A        6.0290    9.2430   34.7650 C.2   500  HEM500      0.0000
      9  CMA        4.9790   10.5770   36.8370 C.3   500  HEM500      0.0000
     10  CAA        7.9930   10.3520   37.7930 C.3   500  HEM500      0.0000
     11  CBA        8.9170   11.5270   37.4650 C.3   500  HEM500      0.0000
     12  CGA        8.7090   12.7890   38.2600 C.2   500  HEM500      0.0000
     13  O1A        7.6090   13.0450   38.7910 O.co2 500  HEM500      0.0000
     14  O2A        9.6810   13.5750   38.3660 O.co2 500  HEM500      0.0000
     15  C1B        4.8490    8.6200   32.7030 C.ar  500  HEM500      0.0000
     16  C2B        3.6440    8.6590   31.9310 C.ar  500  HEM500      0.0000
     17  C3B        3.9330    8.1810   30.7260 C.ar  500  HEM500      0.0000
     18  C4B        5.3600    7.8630   30.6980 C.ar  500  HEM500      0.0000
     19  CMB        2.2670    9.1340   32.4520 C.3   500  HEM500      0.0000
     20  CAB        2.9140    8.0230   29.5680 C.2   500  HEM500      0.0000
     21  CBB        3.0840    7.0420   28.6580 C.2   500  HEM500      0.0000
     22  C1C        7.4150    7.0990   29.6540 C.2   500  HEM500      0.0000
     23  C2C        8.2610    6.6620   28.5480 C.2   500  HEM500      0.0000
     24  C3C        9.4870    6.4330   29.0380 C.2   500  HEM500      0.0000
     25  C4C        9.4520    6.7380   30.4500 C.2   500  HEM500      0.0000
     26  CMC        7.8430    6.4910   27.0790 C.3   500  HEM500      0.0000
     27  CAC       10.7590    5.9750   28.2850 C.2   500  HEM500      0.0000
     28  CBC       10.7430    5.1100   27.2620 C.2   500  HEM500      0.0000
     29  C1D       10.6810    7.1430   32.5310 C.ar  500  HEM500      0.0000
     30  C2D       11.9050    7.1050   33.3080 C.ar  500  HEM500      0.0000
     31  C3D       11.5600    7.7620   34.6140 C.ar  500  HEM500      0.0000
     32  C4D       10.1770    8.1370   34.4970 C.ar  500  HEM500      0.0000
     33  CMD       13.2920    6.5160   32.9570 C.3   500  HEM500      0.0000
     34  CAD       12.5280    7.9720   35.7910 C.3   500  HEM500      0.0000
     35  CBD       13.5620    9.0220   35.4370 C.3   500  HEM500      0.0000
     36  CGD       13.1910   10.2940   36.1240 C.2   500  HEM500      0.0000
     37  O1D       13.7690   10.5350   37.2280 O.co2 500  HEM500      0.0000
     38  O2D       12.3310   11.0410   35.5660 O.co2 500  HEM500      0.0000
     39  NA         7.2680    8.7700   34.4190 N.2   500  HEM500      0.0000
     40  NB         5.8880    8.1370   31.9280 N.ar  500  HEM500      0.0000
     41  NC         8.1860    7.1450   30.8000 N.2   500  HEM500      0.0000
     42  ND         9.6830    7.7470   33.2570 N.ar  500  HEM500      0.0000
     43 FE          7.6600    7.6390   32.7750 Fe    500  HEM500      0.0000
@<TRIPOS>BOND
     1    26    23    1
     2    28    27    2
     3    27    24    1
     4    23    24    2
     5    23    22    1
     6    21    20    2
     7    24    25    1
     8    20    17    1
     9     3    22    2
    10     3    18    1
    11    22    41    1
    12    25    41    2
    13    25     4    1
    14    18    17   ar
    15    18    40   ar
    16    17    16   ar
    17    41    43    1
    18     4    29    2
    19    40    15   ar
    20    40    43    1
    21    16    19    1
    22    16    15   ar
    23    29    42   ar
    24    29    30   ar
    25    15     2    1
    26    43    42    1
    27    43    39    1
    28    33    30    1
    29    42    32   ar
    30    30    31   ar
    31     2     8    2
    32    39     8    1
    33    39     5    2
    34    32    31   ar
    35    32     1    2
    36    31    34    1
    37     8     7    1
    38    35    34    1
    39    35    36    1
    40     5     1    1
    41     5     6    1
    42    38    36   ar
    43     7     6    2
    44     7     9    1
    45    36    37   ar
    46     6    10    1
    47    11    10    1
    48    11    12    1
    49    12    14   ar
    50    12    13   ar
