@<TRIPOS>MOLECULE
3nlf_H4B_A_1.pdb
 17 18 0 0 0
SMALL
GASTEIGER

@<TRIPOS>ATOM
      1  N1         8.3630   11.6050   43.2140 N.2   600  H4B600     -0.2683
      2  C2         8.2360   11.9500   41.9140 C.1   600  H4B600      0.2608
      3  N2         7.3350   11.2890   41.1280 N.pl3 600  H4B600     -0.0220
      4  N3         9.0000   12.9580   41.4140 N.2   600  H4B600     -0.2474
      5  C4         9.8860   13.6230   42.2020 C.1   600  H4B600      0.2441
      6  O4        10.5580   14.5490   41.7030 O.2   600  H4B600     -0.2063
      7  C4A       10.0360   13.2690   43.5420 C.2   600  H4B600      0.2463
      8  C8A        9.2370   12.2360   44.0250 C.1   600  H4B600      0.1270
      9  N5        10.9180   13.8700   44.3920 N.2   600  H4B600     -0.2460
     10  N8         9.3390   11.8400   45.3080 N.2   600  H4B600     -0.2054
     11  C6        11.4450   13.0580   45.4910 C.3   600  H4B600      0.1627
     12  C7        10.2650   12.4670   46.2570 C.3   600  H4B600      0.1643
     13  C9        12.3550   13.8500   46.4450 C.3   600  H4B600      0.2063
     14  O9        11.7850   15.1070   46.8080 O.3   600  H4B600     -0.2183
     15  C10       12.6370   13.0930   47.7480 C.3   600  H4B600      0.1842
     16  C11       13.3760   13.9590   48.7430 C.3   600  H4B600      0.0383
     17  O10       13.4410   11.9640   47.4700 O.3   600  H4B600     -0.2204
@<TRIPOS>BOND
     1     3     2    1
     2     4     2    2
     3     4     5    2
     4     6     5    2
     5     2     1    2
     6     5     7    1
     7     1     8    2
     8     7     8    1
     9     7     9    2
    10     8    10    2
    11     9    11    1
    12    10    12    1
    13    11    12    1
    14    11    13    1
    15    13    14    1
    16    13    15    1
    17    17    15    1
    18    15    16    1
