@<TRIPOS>MOLECULE
3nlg_HEM_A_1.pdb
 43 50 0 0 0
SMALL
GASTEIGER

@<TRIPOS>ATOM
      1  CHA        9.2130    9.0430   35.3030 C.2   500  HEM500      0.0000
      2  CHB        4.5880    8.9370   33.8670 C.2   500  HEM500      0.0000
      3  CHC        5.9750    7.4120   29.4560 C.2   500  HEM500      0.0000
      4  CHD       10.3580    6.5860   31.2610 C.2   500  HEM500      0.0000
      5  C1A        7.8480    9.2660   35.2400 C.2   500  HEM500      0.0000
      6  C2A        7.0800   10.0450   36.1820 C.2   500  HEM500      0.0000
      7  C3A        5.7960   10.0320   35.8010 C.2   500  HEM500      0.0000
      8  C4A        5.7060    9.2350   34.5950 C.2   500  HEM500      0.0000
      9  CMA        4.6330   10.7450   36.5240 C.3   500  HEM500      0.0000
     10  CAA        7.6900   10.7890   37.3920 C.3   500  HEM500      0.0000
     11  CBA        8.1000   12.1410   36.7890 C.3   500  HEM500      0.0000
     12  CGA        8.5990   13.0930   37.8270 C.2   500  HEM500      0.0000
     13  O1A        7.9760   13.2380   38.9060 O.co2 500  HEM500      0.0000
     14  O2A        9.6440   13.7320   37.5590 O.co2 500  HEM500      0.0000
     15  C1B        4.5840    8.5420   32.5430 C.ar  500  HEM500      0.0000
     16  C2B        3.4060    8.4890   31.7050 C.ar  500  HEM500      0.0000
     17  C3B        3.7780    8.0580   30.4870 C.ar  500  HEM500      0.0000
     18  C4B        5.2140    7.8320   30.5250 C.ar  500  HEM500      0.0000
     19  CMB        1.9800    8.8570   32.1730 C.3   500  HEM500      0.0000
     20  CAB        2.8610    7.8680   29.2480 C.2   500  HEM500      0.0000
     21  CBB        3.0010    6.8710   28.3590 C.2   500  HEM500      0.0000
     22  C1C        7.3050    7.1040   29.5220 C.2   500  HEM500      0.0000
     23  C2C        8.1780    6.6910   28.4320 C.2   500  HEM500      0.0000
     24  C3C        9.3980    6.4760   28.9490 C.2   500  HEM500      0.0000
     25  C4C        9.3270    6.7320   30.3770 C.2   500  HEM500      0.0000
     26  CMC        7.7860    6.5740   26.9470 C.3   500  HEM500      0.0000
     27  CAC       10.6840    6.0400   28.2200 C.2   500  HEM500      0.0000
     28  CBC       10.7230    5.0940   27.2740 C.2   500  HEM500      0.0000
     29  C1D       10.4870    7.2000   32.4860 C.ar  500  HEM500      0.0000
     30  C2D       11.7230    7.2910   33.2420 C.ar  500  HEM500      0.0000
     31  C3D       11.3750    8.0630   34.4940 C.ar  500  HEM500      0.0000
     32  C4D        9.9630    8.3570   34.3800 C.ar  500  HEM500      0.0000
     33  CMD       13.1200    6.7400   32.8800 C.3   500  HEM500      0.0000
     34  CAD       12.3700    8.4560   35.6160 C.3   500  HEM500      0.0000
     35  CBD       12.6290    9.9540   35.3980 C.3   500  HEM500      0.0000
     36  CGD       13.7200   10.5410   36.2600 C.2   500  HEM500      0.0000
     37  O1D       14.2250    9.8570   37.2020 O.co2 500  HEM500      0.0000
     38  O2D       14.0760   11.7270   35.9930 O.co2 500  HEM500      0.0000
     39  NA         6.9710    8.7850   34.2840 N.2   500  HEM500      0.0000
     40  NB         5.6650    8.1160   31.8060 N.ar  500  HEM500      0.0000
     41  NC         8.0350    7.1130   30.6940 N.2   500  HEM500      0.0000
     42  ND         9.4700    7.8290   33.1860 N.ar  500  HEM500      0.0000
     43 FE          7.4680    7.6620   32.6300 Fe    500  HEM500      0.0000
@<TRIPOS>BOND
     1    26    23    1
     2    28    27    2
     3    27    24    1
     4    21    20    2
     5    23    24    2
     6    23    22    1
     7    24    25    1
     8    20    17    1
     9     3    22    2
    10     3    18    1
    11    22    41    1
    12    25    41    2
    13    25     4    1
    14    17    18   ar
    15    17    16   ar
    16    18    40   ar
    17    41    43    1
    18     4    29    2
    19    16    19    1
    20    16    15   ar
    21    40    15   ar
    22    40    43    1
    23    29    42   ar
    24    29    30   ar
    25    15     2    1
    26    43    42    1
    27    43    39    1
    28    33    30    1
    29    42    32   ar
    30    30    31   ar
    31     2     8    2
    32    39     8    1
    33    39     5    2
    34    32    31   ar
    35    32     1    2
    36    31    34    1
    37     8     7    1
    38     5     1    1
    39     5     6    1
    40    35    34    1
    41    35    36    1
    42     7     6    2
    43     7     9    1
    44    38    36   ar
    45     6    10    1
    46    36    37   ar
    47    11    10    1
    48    11    12    1
    49    14    12   ar
    50    12    13   ar
