@<TRIPOS>MOLECULE
3nlg_JSR_A_1.pdb
 27 29 0 0 0
SMALL
GASTEIGER

@<TRIPOS>ATOM
      1  C1        12.9950   16.7740   33.9380 C.3   800  JSR800      0.1683
      2  O1        12.2010   15.7350   33.3470 O.3   800  JSR800     -0.3526
      3  C2        14.4630   16.4040   33.7540 C.3   800  JSR800      0.1571
      4  N2        15.1120   15.8680   34.9520 N.2   800  JSR800     -0.2705
      5  C3        16.5730   15.7880   34.9920 C.2   800  JSR800      0.0715
      6  C4        17.1940   14.8640   36.0450 C.3   800  JSR800      0.0729
      7  N1'       11.4010   13.7770   35.4720 N.3   800  JSR800     -0.2154
      8  C11       16.9680   15.4120   37.4400 C.ar  800  JSR800     -0.0139
      9  C12       17.1400   16.7770   37.7060 C.ar  800  JSR800      0.0258
     10  C13       16.9160   17.2870   38.9880 C.ar  800  JSR800      0.1398
     11  F13       17.0700   18.6070   39.2100 F     800  JSR800     -0.2042
     12  C14       16.5280   16.4310   40.0190 C.ar  800  JSR800      0.0296
     13  C15       16.3650   15.0700   39.7560 C.ar  800  JSR800      0.0020
     14  C16       16.5840   14.5560   38.4760 C.ar  800  JSR800     -0.0037
     15  N1A        6.8750   12.8140   32.5540 N.2   800  JSR800     -0.3922
     16  C2'       11.1610   15.1970   35.4290 C.3   800  JSR800      0.1182
     17  C2A        8.2130   12.9900   32.3610 C.2   800  JSR800      0.0926
     18  C3'       10.9430   15.4180   33.9480 C.3   800  JSR800      0.1343
     19  C3A        8.8580   12.2010   31.3850 C.3   800  JSR800      0.0766
     20  C4'       10.4060   14.1030   33.3730 C.3   800  JSR800      0.0527
     21  C4A        8.1310   11.2650   30.6190 C.2   800  JSR800     -0.0333
     22  C5'       10.8430   13.0350   34.3560 C.3   800  JSR800      0.0916
     23  C5A        6.7660   11.1210   30.8590 C.2   800  JSR800      0.0427
     24  C6A        6.1630   11.9160   31.8260 C.2   800  JSR800      0.2178
     25  N6A        4.8400   11.7850   32.0460 N.pl3 800  JSR800     -0.0932
     26  C7A        8.8810   14.0680   33.2260 C.3   800  JSR800      0.0587
     27  C8A        8.7780   10.3930   29.5490 C.3   800  JSR800      0.0269
@<TRIPOS>BOND
     1    27    21    1
     2    21    23    2
     3    21    19    1
     4    23    24    1
     5    19    17    1
     6    24    25    1
     7    24    15    2
     8    17    15    2
     9    17    26    1
    10    26    20    1
    11     2     1    1
    12     2    18    1
    13    20    18    1
    14    20    22    1
    15     3     1    1
    16     3     4    1
    17    18    16    1
    18    22     7    1
    19     4     5    2
    20     5     6    1
    21    16     7    1
    22     6     8    1
    23     8     9   ar
    24     8    14   ar
    25     9    10   ar
    26    14    13   ar
    27    10    11    1
    28    10    12   ar
    29    13    12   ar
