@<TRIPOS>MOLECULE
3nlg_H4B_A_1.pdb
 17 18 0 0 0
SMALL
GASTEIGER

@<TRIPOS>ATOM
      1  N1         8.4530   11.7480   43.0870 N.2   600  H4B600     -0.2683
      2  C2         8.3550   12.1590   41.8130 C.1   600  H4B600      0.2608
      3  N2         7.5180   11.4870   40.9860 N.pl3 600  H4B600     -0.0220
      4  N3         9.0940   13.2090   41.3790 N.2   600  H4B600     -0.2474
      5  C4         9.9680   13.8860   42.1860 C.1   600  H4B600      0.2441
      6  O4        10.6490   14.8820   41.7500 O.2   600  H4B600     -0.2063
      7  C4A       10.0580   13.4660   43.5090 C.2   600  H4B600      0.2463
      8  C8A        9.2940   12.3820   43.9350 C.1   600  H4B600      0.1270
      9  N5        10.8790   14.0520   44.4000 N.2   600  H4B600     -0.2460
     10  N8         9.3800   11.9350   45.2080 N.2   600  H4B600     -0.2054
     11  C6        11.3990   13.2230   45.4890 C.3   600  H4B600      0.1627
     12  C7        10.2250   12.5690   46.2010 C.3   600  H4B600      0.1643
     13  C9        12.2140   14.0070   46.5310 C.3   600  H4B600      0.2063
     14  O9        11.5620   15.2280   46.8970 O.3   600  H4B600     -0.2183
     15  C10       12.4730   13.1580   47.7770 C.3   600  H4B600      0.1842
     16  C11       13.3850   13.8360   48.7760 C.3   600  H4B600      0.0383
     17  O10       13.0900   11.9250   47.3780 O.3   600  H4B600     -0.2204
@<TRIPOS>BOND
     1     3     2    1
     2     4     2    2
     3     4     5    2
     4     6     5    2
     5     2     1    2
     6     5     7    1
     7     1     8    2
     8     7     8    1
     9     7     9    2
    10     8    10    2
    11     9    11    1
    12    10    12    1
    13    11    12    1
    14    11    13    1
    15    13    14    1
    16    13    15    1
    17    17    15    1
    18    15    16    1
