@<TRIPOS>MOLECULE
3nlh_JSS_A_1.pdb
 27 29 0 0 0
SMALL
GASTEIGER

@<TRIPOS>ATOM
      1  C1        12.2440   14.5370   34.4030 C.3   800  JSS800      0.1608
      2  O1        10.8760   14.3330   34.7310 O.3   800  JSS800     -0.3532
      3  C2        13.0410   13.2870   34.7500 C.3   800  JSS800      0.1207
      4  N2        13.3550   13.2480   36.1660 N.3   800  JSS800     -0.2150
      5  C3        13.5640   14.5000   36.8680 C.3   800  JSS800      0.0935
      6  C4        13.8740   14.2410   38.3290 C.3   800  JSS800      0.0452
      7  N1'        7.7880   15.8930   34.3490 N.3   800  JSS800     -0.2154
      8  C11       15.2290   14.7760   38.7200 C.ar  800  JSS800     -0.0185
      9  C12       15.2950   15.7070   39.7390 C.ar  800  JSS800      0.0254
     10  C13       16.5290   16.2060   40.1410 C.ar  800  JSS800      0.1398
     11  F13       16.5460   17.1020   41.1300 F     800  JSS800     -0.2042
     12  C14       17.7150   15.7950   39.5410 C.ar  800  JSS800      0.0296
     13  C15       17.6480   14.8550   38.5190 C.ar  800  JSS800      0.0020
     14  C16       16.4100   14.3450   38.1140 C.ar  800  JSS800     -0.0041
     15  N1A        6.7690   12.3820   32.5470 N.2   800  JSS800     -0.3924
     16  C2'        9.0510   15.8900   35.0530 C.3   800  JSS800      0.1182
     17  C2A        8.1060   12.3590   32.3670 C.2   800  JSS800      0.1098
     18  C3'       10.0380   15.2690   34.0600 C.3   800  JSS800      0.1343
     19  C3A        8.6730   11.6670   31.2900 C.2   800  JSS800      0.0196
     20  C4'        9.1890   14.5750   32.9940 C.3   800  JSS800      0.0531
     21  C4A        7.8240   11.0130   30.3840 C.2   800  JSS800     -0.0332
     22  C5'        7.8790   15.3500   32.9970 C.3   800  JSS800      0.0916
     23  C5A        6.4450   11.0560   30.5890 C.3   800  JSS800      0.1001
     24  C6A        5.9270   11.7670   31.6860 C.2   800  JSS800      0.2001
     25  N6A        4.5950   11.8280   31.9140 N.pl3 800  JSS800     -0.0977
     26  C7A        8.9720   13.0980   33.3610 C.3   800  JSS800      0.0629
     27  C8A        8.3920   10.2560   29.2060 C.3   800  JSS800      0.0269
@<TRIPOS>BOND
     1    27    21    1
     2    21    23    1
     3    21    19    2
     4    23    24    1
     5    19    17    1
     6    24    25    1
     7    24    15    2
     8    17    15    2
     9    17    26    1
    10    20    22    1
    11    20    26    1
    12    20    18    1
    13    22     7    1
    14    18     2    1
    15    18    16    1
    16     7    16    1
    17     1     2    1
    18     1     3    1
    19     3     4    1
    20     4     5    1
    21     5     6    1
    22    14    13   ar
    23    14     8   ar
    24     6     8    1
    25    13    12   ar
    26     8     9   ar
    27    12    10   ar
    28     9    10   ar
    29    10    11    1
