@<TRIPOS>MOLECULE
3nlh_HEM_A_1.pdb
 43 50 0 0 0
SMALL
GASTEIGER

@<TRIPOS>ATOM
      1  CHA        9.5270    8.8860   35.1920 C.2   500  HEM500      0.0000
      2  CHB        4.8590    9.0150   33.9090 C.2   500  HEM500      0.0000
      3  CHC        6.0540    7.3420   29.5200 C.2   500  HEM500      0.0000
      4  CHD       10.5330    6.4550   31.0800 C.2   500  HEM500      0.0000
      5  C1A        8.1760    9.1800   35.1930 C.2   500  HEM500      0.0000
      6  C2A        7.4460    9.9760   36.1760 C.2   500  HEM500      0.0000
      7  C3A        6.1580   10.0190   35.8180 C.2   500  HEM500      0.0000
      8  C4A        6.0300    9.2500   34.5930 C.2   500  HEM500      0.0000
      9  CMA        4.9830   10.7390   36.5430 C.3   500  HEM500      0.0000
     10  CAA        8.0850   10.6620   37.4090 C.3   500  HEM500      0.0000
     11  CBA        8.8220   11.8700   36.8360 C.3   500  HEM500      0.0000
     12  CGA        9.1570   12.9360   37.8360 C.2   500  HEM500      0.0000
     13  O1A        8.2900   13.2870   38.6690 O.co2 500  HEM500      0.0000
     14  O2A       10.3150   13.4430   37.7720 O.co2 500  HEM500      0.0000
     15  C1B        4.7590    8.5820   32.6060 C.ar  500  HEM500      0.0000
     16  C2B        3.5510    8.5380   31.8140 C.ar  500  HEM500      0.0000
     17  C3B        3.8770    8.0660   30.6020 C.ar  500  HEM500      0.0000
     18  C4B        5.3060    7.7940   30.5910 C.ar  500  HEM500      0.0000
     19  CMB        2.1410    8.9460   32.2860 C.3   500  HEM500      0.0000
     20  CAB        2.8970    7.8550   29.4280 C.2   500  HEM500      0.0000
     21  CBB        3.1590    6.9570   28.4600 C.2   500  HEM500      0.0000
     22  C1C        7.3830    7.0070   29.5250 C.2   500  HEM500      0.0000
     23  C2C        8.1920    6.5700   28.3950 C.2   500  HEM500      0.0000
     24  C3C        9.4300    6.3080   28.8420 C.2   500  HEM500      0.0000
     25  C4C        9.4480    6.5960   30.2590 C.2   500  HEM500      0.0000
     26  CMC        7.7220    6.4210   26.9330 C.3   500  HEM500      0.0000
     27  CAC       10.6550    5.8250   28.0270 C.2   500  HEM500      0.0000
     28  CBC       10.5650    4.9070   27.0480 C.2   500  HEM500      0.0000
     29  C1D       10.7070    7.0250   32.3160 C.ar  500  HEM500      0.0000
     30  C2D       11.9420    7.0290   33.0820 C.ar  500  HEM500      0.0000
     31  C3D       11.6100    7.7950   34.3500 C.ar  500  HEM500      0.0000
     32  C4D       10.2270    8.1660   34.2450 C.ar  500  HEM500      0.0000
     33  CMD       13.3170    6.4140   32.7380 C.3   500  HEM500      0.0000
     34  CAD       12.5770    8.0630   35.5150 C.3   500  HEM500      0.0000
     35  CBD       13.2600    9.4140   35.3940 C.3   500  HEM500      0.0000
     36  CGD       14.0380    9.5900   36.6740 C.2   500  HEM500      0.0000
     37  O1D       14.6040    8.5840   37.2180 O.co2 500  HEM500      0.0000
     38  O2D       14.0810   10.7430   37.1580 O.co2 500  HEM500      0.0000
     39  NA         7.2840    8.7630   34.2400 N.2   500  HEM500      0.0000
     40  NB         5.8010    8.1120   31.8410 N.ar  500  HEM500      0.0000
     41  NC         8.1900    7.0150   30.6430 N.2   500  HEM500      0.0000
     42  ND         9.7280    7.6940   33.0240 N.ar  500  HEM500      0.0000
     43 FE          7.6570    7.5700   32.5790 Fe    500  HEM500      0.0000
@<TRIPOS>BOND
     1    26    23    1
     2    28    27    2
     3    27    24    1
     4    23    24    2
     5    23    22    1
     6    21    20    2
     7    24    25    1
     8    20    17    1
     9     3    22    2
    10     3    18    1
    11    22    41    1
    12    25    41    2
    13    25     4    1
    14    18    17   ar
    15    18    40   ar
    16    17    16   ar
    17    41    43    1
    18     4    29    2
    19    16    19    1
    20    16    15   ar
    21    40    43    1
    22    40    15   ar
    23    29    42   ar
    24    29    30   ar
    25    43    42    1
    26    43    39    1
    27    15     2    1
    28    33    30    1
    29    42    32   ar
    30    30    31   ar
    31     2     8    2
    32    39     8    1
    33    39     5    2
    34    32    31   ar
    35    32     1    2
    36    31    34    1
    37     8     7    1
    38     1     5    1
    39     5     6    1
    40    35    34    1
    41    35    36    1
    42     7     6    2
    43     7     9    1
    44     6    10    1
    45    36    38   ar
    46    36    37   ar
    47    11    10    1
    48    11    12    1
    49    14    12   ar
    50    12    13   ar
