@<TRIPOS>MOLECULE
3nlh_H4B_A_1.pdb
 17 18 0 0 0
SMALL
GASTEIGER

@<TRIPOS>ATOM
      1  N1         8.5040   11.6710   43.0590 N.2   600  H4B600     -0.2683
      2  C2         8.3970   12.0450   41.7630 C.1   600  H4B600      0.2608
      3  N2         7.5310   11.3890   40.9270 N.pl3 600  H4B600     -0.0220
      4  N3         9.1740   13.0600   41.3000 N.2   600  H4B600     -0.2474
      5  C4        10.0530   13.7070   42.1020 C.1   600  H4B600      0.2441
      6  O4        10.7360   14.6530   41.6310 O.2   600  H4B600     -0.2063
      7  C4A       10.1660   13.3350   43.4430 C.2   600  H4B600      0.2463
      8  C8A        9.3730   12.2920   43.9000 C.1   600  H4B600      0.1270
      9  N5        11.0390   13.9340   44.3030 N.2   600  H4B600     -0.2460
     10  N8         9.4600   11.8720   45.1860 N.2   600  H4B600     -0.2054
     11  C6        11.5260   13.1390   45.4380 C.3   600  H4B600      0.1627
     12  C7        10.3480   12.4840   46.1740 C.3   600  H4B600      0.1643
     13  C9        12.3950   13.9700   46.3920 C.3   600  H4B600      0.2063
     14  O9        11.7460   15.2060   46.7110 O.3   600  H4B600     -0.2183
     15  C10       12.7200   13.2490   47.7020 C.3   600  H4B600      0.1842
     16  C11       13.6750   14.0730   48.5570 C.3   600  H4B600      0.0383
     17  O10       13.3100   11.9860   47.4190 O.3   600  H4B600     -0.2204
@<TRIPOS>BOND
     1     3     2    1
     2     4     2    2
     3     4     5    2
     4     6     5    2
     5     2     1    2
     6     5     7    1
     7     1     8    2
     8     7     8    1
     9     7     9    2
    10     8    10    2
    11     9    11    1
    12    10    12    1
    13    11    12    1
    14    11    13    1
    15    13    14    1
    16    13    15    1
    17    17    15    1
    18    15    16    1
