@<TRIPOS>MOLECULE
3nli_HEM_A_1.pdb
 43 50 0 0 0
SMALL
GASTEIGER

@<TRIPOS>ATOM
      1  CHA        9.1900    9.0620   35.0520 C.2   500  HEM500      0.0000
      2  CHB        4.5430    8.8800   33.7230 C.2   500  HEM500      0.0000
      3  CHC        5.9730    7.3450   29.3550 C.2   500  HEM500      0.0000
      4  CHD       10.3670    6.4050   31.1360 C.2   500  HEM500      0.0000
      5  C1A        7.8270    9.2680   35.0230 C.2   500  HEM500      0.0000
      6  C2A        7.0470   10.0480   35.9720 C.2   500  HEM500      0.0000
      7  C3A        5.7710   10.0100   35.6100 C.2   500  HEM500      0.0000
      8  C4A        5.6860    9.1920   34.4160 C.2   500  HEM500      0.0000
      9  CMA        4.5810   10.6980   36.3280 C.3   500  HEM500      0.0000
     10  CAA        7.6420   10.8280   37.1630 C.3   500  HEM500      0.0000
     11  CBA        8.1430   12.1280   36.5150 C.3   500  HEM500      0.0000
     12  CGA        8.7160   13.1360   37.4820 C.2   500  HEM500      0.0000
     13  O1A        8.0840   13.4070   38.5320 O.co2 500  HEM500      0.0000
     14  O2A        9.8080   13.6970   37.1790 O.co2 500  HEM500      0.0000
     15  C1B        4.5080    8.4800   32.4060 C.ar  500  HEM500      0.0000
     16  C2B        3.3360    8.4010   31.5660 C.ar  500  HEM500      0.0000
     17  C3B        3.7220    7.9680   30.3640 C.ar  500  HEM500      0.0000
     18  C4B        5.1620    7.7580   30.3970 C.ar  500  HEM500      0.0000
     19  CMB        1.8790    8.7520   31.9680 C.3   500  HEM500      0.0000
     20  CAB        2.7530    7.7540   29.1690 C.2   500  HEM500      0.0000
     21  CBB        3.0030    6.8740   28.1870 C.2   500  HEM500      0.0000
     22  C1C        7.3120    7.0190   29.4200 C.2   500  HEM500      0.0000
     23  C2C        8.1740    6.5980   28.3230 C.2   500  HEM500      0.0000
     24  C3C        9.3960    6.3280   28.8180 C.2   500  HEM500      0.0000
     25  C4C        9.3410    6.5730   30.2440 C.2   500  HEM500      0.0000
     26  CMC        7.7470    6.4910   26.8400 C.3   500  HEM500      0.0000
     27  CAC       10.6630    5.8530   28.0640 C.2   500  HEM500      0.0000
     28  CBC       10.6210    5.0360   26.9980 C.2   500  HEM500      0.0000
     29  C1D       10.4940    7.0850   32.3210 C.ar  500  HEM500      0.0000
     30  C2D       11.7300    7.2770   33.0330 C.ar  500  HEM500      0.0000
     31  C3D       11.3660    8.1120   34.2470 C.ar  500  HEM500      0.0000
     32  C4D        9.9460    8.3390   34.1550 C.ar  500  HEM500      0.0000
     33  CMD       13.1380    6.7730   32.6550 C.3   500  HEM500      0.0000
     34  CAD       12.3610    8.6120   35.3090 C.3   500  HEM500      0.0000
     35  CBD       12.8100    9.9820   34.7760 C.3   500  HEM500      0.0000
     36  CGD       13.7630   10.6880   35.7150 C.2   500  HEM500      0.0000
     37  O1D       14.4770    9.9810   36.4680 O.co2 500  HEM500      0.0000
     38  O2D       13.8120   11.9520   35.7050 O.co2 500  HEM500      0.0000
     39  NA         6.9610    8.7630   34.0840 N.2   500  HEM500      0.0000
     40  NB         5.6060    8.0660   31.6770 N.ar  500  HEM500      0.0000
     41  NC         8.0650    6.9860   30.5770 N.2   500  HEM500      0.0000
     42  ND         9.4740    7.7110   33.0030 N.ar  500  HEM500      0.0000
     43 FE          7.4720    7.5520   32.4950 Fe    500  HEM500      0.0000
@<TRIPOS>BOND
     1    26    23    1
     2    28    27    2
     3    27    24    1
     4    21    20    2
     5    23    24    2
     6    23    22    1
     7    24    25    1
     8    20    17    1
     9     3    22    2
    10     3    18    1
    11    22    41    1
    12    25    41    2
    13    25     4    1
    14    17    18   ar
    15    17    16   ar
    16    18    40   ar
    17    41    43    1
    18     4    29    2
    19    16    19    1
    20    16    15   ar
    21    40    15   ar
    22    40    43    1
    23    29    42   ar
    24    29    30   ar
    25    15     2    1
    26    43    42    1
    27    43    39    1
    28    33    30    1
    29    42    32   ar
    30    30    31   ar
    31     2     8    2
    32    39     8    1
    33    39     5    2
    34    32    31   ar
    35    32     1    2
    36    31    34    1
    37     8     7    1
    38    35    34    1
    39    35    36    1
    40     5     1    1
    41     5     6    1
    42     7     6    2
    43     7     9    1
    44    38    36   ar
    45    36    37   ar
    46     6    10    1
    47    11    10    1
    48    11    12    1
    49    14    12   ar
    50    12    13   ar
