@<TRIPOS>MOLECULE
3nli_H4B_A_1.pdb
 17 18 0 0 0
SMALL
GASTEIGER

@<TRIPOS>ATOM
      1  N1         8.5100   11.7880   42.7310 N.2   600  H4B600     -0.2683
      2  C2         8.4200   12.1620   41.4380 C.1   600  H4B600      0.2608
      3  N2         7.5580   11.5100   40.6270 N.pl3 600  H4B600     -0.0220
      4  N3         9.1930   13.1780   40.9690 N.2   600  H4B600     -0.2474
      5  C4        10.0720   13.8320   41.7600 C.1   600  H4B600      0.2441
      6  O4        10.7560   14.7730   41.2700 O.2   600  H4B600     -0.2063
      7  C4A       10.1640   13.4690   43.1040 C.2   600  H4B600      0.2463
      8  C8A        9.3650   12.4190   43.5720 C.1   600  H4B600      0.1270
      9  N5        11.0300   14.0740   43.9600 N.2   600  H4B600     -0.2460
     10  N8         9.4270   11.9940   44.8640 N.2   600  H4B600     -0.2054
     11  C6        11.4990   13.2690   45.1010 C.3   600  H4B600      0.1627
     12  C7        10.3130   12.6240   45.8440 C.3   600  H4B600      0.1643
     13  C9        12.3950   14.0840   46.0560 C.3   600  H4B600      0.2063
     14  O9        11.8060   15.3550   46.3480 O.3   600  H4B600     -0.2183
     15  C10       12.7110   13.3590   47.3720 C.3   600  H4B600      0.1842
     16  C11       13.6730   14.1360   48.2650 C.3   600  H4B600      0.0383
     17  O10       13.2760   12.0740   47.0960 O.3   600  H4B600     -0.2204
@<TRIPOS>BOND
     1     3     2    1
     2     4     2    2
     3     4     5    2
     4     6     5    2
     5     2     1    2
     6     5     7    1
     7     1     8    2
     8     7     8    1
     9     7     9    2
    10     8    10    2
    11     9    11    1
    12    10    12    1
    13    11    12    1
    14    11    13    1
    15    13    14    1
    16    13    15    1
    17    17    15    1
    18    15    16    1
