@<TRIPOS>MOLECULE
3nli_JRR_A_1.pdb
 27 29 0 0 0
SMALL
GASTEIGER

@<TRIPOS>ATOM
      1  C1        10.8700   16.7000   34.8030 C.3   800  JRR800      0.1608
      2  O1        11.8080   15.9700   35.5900 O.3   800  JRR800     -0.3532
      3  C2        10.5900   15.8700   33.5560 C.3   800  JRR800      0.1207
      4  N2         9.7120   14.7490   33.8120 N.3   800  JRR800     -0.2150
      5  C3         8.8760   14.2720   32.7220 C.3   800  JRR800      0.0935
      6  C4         8.5420   12.8160   32.9770 C.3   800  JRR800      0.0452
      7  N1'       11.4150   15.3520   38.4540 N.3   800  JRR800     -0.2154
      8  C11        7.7030   12.1640   31.9030 C.ar  800  JRR800     -0.0185
      9  C12        8.3350   11.5330   30.8230 C.ar  800  JRR800      0.0254
     10  C13        7.5650   10.9020   29.8410 C.ar  800  JRR800      0.1398
     11  F13        8.1680   10.3000   28.7980 F     800  JRR800     -0.2042
     12  C14        6.1740   10.8960   29.9460 C.ar  800  JRR800      0.0296
     13  C15        5.5410   11.5230   31.0300 C.ar  800  JRR800      0.0020
     14  C16        6.3050   12.1540   32.0140 C.ar  800  JRR800     -0.0041
     15  N1A       15.6050   13.3310   37.1080 N.2   800  JRR800     -0.3922
     16  C2'       11.1980   16.6400   37.8310 C.3   800  JRR800      0.1182
     17  C2A       15.5570   14.6850   37.0550 C.2   800  JRR800      0.0926
     18  C3'       12.2630   16.6870   36.7400 C.3   800  JRR800      0.1343
     19  C3A       16.5100   15.4330   37.7420 C.3   800  JRR800      0.0766
     20  C4'       13.4220   15.8940   37.3240 C.3   800  JRR800      0.0527
     21  C4A       17.5160   14.7720   38.4580 C.2   800  JRR800     -0.0333
     22  C5'       12.7270   14.7840   38.1250 C.3   800  JRR800      0.0916
     23  C5A       17.5610   13.3840   38.4930 C.2   800  JRR800      0.0427
     24  C6A       16.5800   12.6730   37.7810 C.2   800  JRR800      0.2178
     25  N6A       16.5870   11.3180   37.7830 N.pl3 800  JRR800     -0.0932
     26  C7A       14.4440   15.3750   36.2960 C.3   800  JRR800      0.0587
     27  C8A       18.5570   15.5860   39.1830 C.3   800  JRR800      0.0269
@<TRIPOS>BOND
     1    11    10    1
     2    10    12   ar
     3    10     9   ar
     4    12    13   ar
     5     9     8   ar
     6    13    14   ar
     7     8    14   ar
     8     8     6    1
     9     5     6    1
    10     5     4    1
    11     3     4    1
    12     3     1    1
    13     1     2    1
    14     2    18    1
    15    26    17    1
    16    26    20    1
    17    18    20    1
    18    18    16    1
    19    17    15    2
    20    17    19    1
    21    15    24    2
    22    20    22    1
    23    19    21    1
    24    24    25    1
    25    24    23    1
    26    16     7    1
    27    22     7    1
    28    21    23    2
    29    21    27    1
