@<TRIPOS>MOLECULE
3nlj_JRR_A_1.pdb
 27 29 0 0 0
SMALL
GASTEIGER

@<TRIPOS>ATOM
      1  C1         7.0040    0.1390   24.7500 C.3   800  JRR800      0.1608
      2  O1         6.5140    1.1770   25.6000 O.3   800  JRR800     -0.3532
      3  C2         8.5170   -0.0340   24.8720 C.3   800  JRR800      0.1207
      4  N2         9.2590    1.2120   24.7050 N.3   800  JRR800     -0.2150
      5  C3        10.4550    1.1900   23.9030 C.3   800  JRR800      0.0935
      6  C4        11.5540    2.1760   24.3290 C.3   800  JRR800      0.0452
      7  N1'        6.5630    1.5990   28.6400 N.3   800  JRR800     -0.2154
      8  C11       12.7490    1.7820   23.4810 C.ar  800  JRR800     -0.0185
      9  C12       12.9090    2.3370   22.2200 C.ar  800  JRR800      0.0254
     10  C13       13.9740    1.9380   21.4380 C.ar  800  JRR800      0.1398
     11  F13       14.1310    2.4740   20.2260 F     800  JRR800     -0.2042
     12  C14       14.8800    0.9980   21.8970 C.ar  800  JRR800      0.0296
     13  C15       14.7240    0.4170   23.1460 C.ar  800  JRR800      0.0020
     14  C16       13.6470    0.8110   23.9270 C.ar  800  JRR800     -0.0041
     15  N1A        4.9100    5.3200   26.5650 N.2   800  JRR800     -0.3924
     16  C2'        6.5490    0.3730   27.8700 C.3   800  JRR800      0.1182
     17  C2A        4.0570    4.2620   26.4500 C.2   800  JRR800      0.1098
     18  C3'        5.6730    0.7180   26.6660 C.3   800  JRR800      0.1343
     19  C3A        2.6980    4.4230   26.7430 C.2   800  JRR800      0.0196
     20  C4'        4.7640    1.8710   27.1070 C.3   800  JRR800      0.0531
     21  C4A        2.2260    5.6630   27.1680 C.2   800  JRR800     -0.0332
     22  C5'        5.4310    2.4720   28.3500 C.3   800  JRR800      0.0916
     23  C5A        3.1230    6.7310   27.2890 C.3   800  JRR800      0.1001
     24  C6A        4.4800    6.5400   26.9780 C.2   800  JRR800      0.2001
     25  N6A        5.3590    7.5680   27.0930 N.pl3 800  JRR800     -0.0977
     26  C7A        4.5680    2.9090   25.9860 C.3   800  JRR800      0.0629
     27  C8A        0.7630    5.8270   27.4830 C.3   800  JRR800      0.0269
@<TRIPOS>BOND
     1    11    10    1
     2    10    12   ar
     3    10     9   ar
     4    12    13   ar
     5     9     8   ar
     6    13    14   ar
     7     8    14   ar
     8     8     6    1
     9     5     6    1
    10     5     4    1
    11     4     3    1
    12     1     3    1
    13     1     2    1
    14     2    18    1
    15    26    17    1
    16    26    20    1
    17    17    15    2
    18    17    19    1
    19    15    24    2
    20    18    20    1
    21    18    16    1
    22    19    21    2
    23    24    25    1
    24    24    23    1
    25    20    22    1
    26    21    23    1
    27    21    27    1
    28    16     7    1
    29    22     7    1
