@<TRIPOS>MOLECULE
3nlj_H4B_A_1.pdb
 17 18 0 0 0
SMALL
GASTEIGER

@<TRIPOS>ATOM
      1  N1         9.7560    2.6150   33.5430 N.2   760  H4B760     -0.2683
      2  C2         9.8950    2.2100   32.2790 C.1   760  H4B760      0.2608
      3  N2        11.1380    2.0930   31.7210 N.pl3 760  H4B760     -0.0220
      4  N3         8.8170    1.8890   31.5820 N.2   760  H4B760     -0.2474
      5  C4         7.5930    1.9650   32.1050 C.1   760  H4B760      0.2441
      6  O4         6.6610    1.6240   31.3430 O.2   760  H4B760     -0.2063
      7  C4A        7.4240    2.4010   33.4240 C.2   760  H4B760      0.2463
      8  C8A        8.5800    2.7220   34.1370 C.1   760  H4B760      0.1270
      9  N5         6.2330    2.5410   34.0710 N.2   760  H4B760     -0.2460
     10  N8         8.5530    3.1730   35.4140 N.2   760  H4B760     -0.2054
     11  C6         6.2060    3.5500   35.1180 C.3   760  H4B760      0.1627
     12  C7         7.3210    3.3090   36.1410 C.3   760  H4B760      0.1643
     13  C9         4.8740    3.6160   35.8260 C.3   760  H4B760      0.2063
     14  O9         4.5940    2.3210   36.3460 O.3   760  H4B760     -0.2183
     15  C10        4.9050    4.5700   37.0030 C.3   760  H4B760      0.1842
     16  C11        3.5430    4.6480   37.6380 C.3   760  H4B760      0.0383
     17  O10        5.2190    5.8920   36.5770 O.3   760  H4B760     -0.2204
@<TRIPOS>BOND
     1     6     5    2
     2     4     5    2
     3     4     2    2
     4     3     2    1
     5     5     7    1
     6     2     1    2
     7     7     9    2
     8     7     8    1
     9     1     8    2
    10     9    11    1
    11     8    10    2
    12    11    13    1
    13    11    12    1
    14    10    12    1
    15    13    14    1
    16    13    15    1
    17    17    15    1
    18    15    16    1
