@<TRIPOS>MOLECULE
3nlj_HEM_A_1.pdb
 43 50 0 0 0
SMALL
GASTEIGER

@<TRIPOS>ATOM
      1  CHA       12.9040    4.8060   26.4150 C.2   750  HEM750      0.0000
      2  CHB       16.5920    1.7590   26.0200 C.2   750  HEM750      0.0000
      3  CHC       17.6300    3.4200   21.5790 C.2   750  HEM750      0.0000
      4  CHD       14.8200    7.2240   22.6570 C.2   750  HEM750      0.0000
      5  C1A       13.7490    3.7570   26.6350 C.2   750  HEM750      0.0000
      6  C2A       13.6160    2.7740   27.6760 C.2   750  HEM750      0.0000
      7  C3A       14.6150    1.9150   27.5890 C.2   750  HEM750      0.0000
      8  C4A       15.4450    2.3420   26.4580 C.2   750  HEM750      0.0000
      9  CMA       14.8020    0.6960   28.5410 C.3   750  HEM750      0.0000
     10  CAA       12.5080    2.7290   28.7380 C.3   750  HEM750      0.0000
     11  CBA       11.1500    2.8750   28.0960 C.3   750  HEM750      0.0000
     12  CGA       10.4760    1.5600   28.2650 C.2   750  HEM750      0.0000
     13  O1A       10.9580    0.7450   29.1030 O.co2 750  HEM750      0.0000
     14  O2A        9.4500    1.3800   27.5630 O.co2 750  HEM750      0.0000
     15  C1B       17.2030    1.9410   24.8110 C.ar  750  HEM750      0.0000
     16  C2B       18.3460    1.1970   24.3380 C.ar  750  HEM750      0.0000
     17  C3B       18.6370    1.6280   23.1140 C.ar  750  HEM750      0.0000
     18  C4B       17.7200    2.6900   22.7610 C.ar  750  HEM750      0.0000
     19  CMB       19.1020    0.0520   25.0860 C.3   750  HEM750      0.0000
     20  CAB       19.8060    1.0400   22.2880 C.2   750  HEM750      0.0000
     21  CBB       20.0570    1.4640   21.0480 C.2   750  HEM750      0.0000
     22  C1C       16.8970    4.6040   21.4470 C.2   750  HEM750      0.0000
     23  C2C       16.8240    5.4760   20.2930 C.2   750  HEM750      0.0000
     24  C3C       16.0490    6.5110   20.6300 C.2   750  HEM750      0.0000
     25  C4C       15.6320    6.3360   21.9880 C.2   750  HEM750      0.0000
     26  CMC       17.4850    5.1760   18.9250 C.3   750  HEM750      0.0000
     27  CAC       15.5730    7.7460   19.8300 C.2   750  HEM750      0.0000
     28  CBC       15.9970    7.8900   18.5770 C.2   750  HEM750      0.0000
     29  C1D       13.9830    6.8910   23.6910 C.ar  750  HEM750      0.0000
     30  C2D       12.8280    7.6470   24.1000 C.ar  750  HEM750      0.0000
     31  C3D       12.2380    6.8880   25.2760 C.ar  750  HEM750      0.0000
     32  C4D       13.0910    5.7580   25.4430 C.ar  750  HEM750      0.0000
     33  CMD       12.2830    8.9640   23.4960 C.3   750  HEM750      0.0000
     34  CAD       10.9710    7.2450   26.0890 C.3   750  HEM750      0.0000
     35  CBD        9.7780    6.6230   25.3300 C.3   750  HEM750      0.0000
     36  CGD        8.5150    6.7340   26.1480 C.2   750  HEM750      0.0000
     37  O1D        8.3620    7.7670   26.8380 O.co2 750  HEM750      0.0000
     38  O2D        7.6830    5.7770   26.1240 O.co2 750  HEM750      0.0000
     39  NA        14.8880    3.4840   25.9030 N.2   750  HEM750      0.0000
     40  NB        16.8420    2.8560   23.8310 N.ar  750  HEM750      0.0000
     41  NC        16.1570    5.1700   22.4630 N.2   750  HEM750      0.0000
     42  ND        14.1290    5.7850   24.5020 N.ar  750  HEM750      0.0000
     43 FE         15.7140    4.5760   24.3130 Fe    750  HEM750      0.0000
@<TRIPOS>BOND
     1    28    27    2
     2    26    23    1
     3    27    24    1
     4    23    24    2
     5    23    22    1
     6    24    25    1
     7    21    20    2
     8    22     3    2
     9    22    41    1
    10     3    18    1
    11    25    41    2
    12    25     4    1
    13    20    17    1
    14    41    43    1
    15     4    29    2
    16    18    17   ar
    17    18    40   ar
    18    17    16   ar
    19    33    30    1
    20    29    30   ar
    21    29    42   ar
    22    40    43    1
    23    40    15   ar
    24    30    31   ar
    25    43    42    1
    26    43    39    1
    27    16    15   ar
    28    16    19    1
    29    42    32   ar
    30    15     2    1
    31    31    32   ar
    32    31    34    1
    33    35    34    1
    34    35    36    1
    35    32     1    2
    36    39     8    1
    37    39     5    2
    38     2     8    2
    39    38    36   ar
    40    36    37   ar
    41     1     5    1
    42     8     7    1
    43     5     6    1
    44    14    12   ar
    45     7     6    2
    46     7     9    1
    47     6    10    1
    48    11    12    1
    49    11    10    1
    50    12    13   ar
