@<TRIPOS>MOLECULE
3nlk_H4B_A_1.pdb
 17 18 0 0 0
SMALL
GASTEIGER

@<TRIPOS>ATOM
      1  N1        10.0490    2.6750   33.9620 N.2   760  H4B760     -0.2683
      2  C2        10.1790    2.2510   32.6690 C.1   760  H4B760      0.2608
      3  N2        11.4350    2.1180   32.1340 N.pl3 760  H4B760     -0.0220
      4  N3         9.0710    1.9470   31.9280 N.2   760  H4B760     -0.2474
      5  C4         7.8220    2.0650   32.4430 C.1   760  H4B760      0.2441
      6  O4         6.8310    1.7740   31.7340 O.2   760  H4B760     -0.2063
      7  C4A        7.6710    2.5230   33.7500 C.2   760  H4B760      0.2463
      8  C8A        8.8170    2.8450   34.4980 C.1   760  H4B760      0.1270
      9  N5         6.4590    2.6660   34.3160 N.2   760  H4B760     -0.2460
     10  N8         8.7110    3.2690   35.7900 N.2   760  H4B760     -0.2054
     11  C6         6.3140    3.6240   35.4100 C.3   760  H4B760      0.1627
     12  C7         7.4090    3.4150   36.4400 C.3   760  H4B760      0.1643
     13  C9         4.9170    3.6380   36.0510 C.3   760  H4B760      0.2063
     14  O9         4.5890    2.2990   36.4080 O.3   760  H4B760     -0.2183
     15  C10        4.7720    4.5670   37.2630 C.3   760  H4B760      0.1842
     16  C11        3.3280    4.6020   37.7650 C.3   760  H4B760      0.0383
     17  O10        5.2190    5.9130   36.9730 O.3   760  H4B760     -0.2204
@<TRIPOS>BOND
     1     6     5    2
     2     4     5    2
     3     4     2    2
     4     3     2    1
     5     5     7    1
     6     2     1    2
     7     7     9    2
     8     7     8    1
     9     1     8    2
    10     9    11    1
    11     8    10    2
    12    11    13    1
    13    11    12    1
    14    10    12    1
    15    13    14    1
    16    13    15    1
    17    17    15    1
    18    15    16    1
