@<TRIPOS>MOLECULE
3nlk_JSS_A_1.pdb
 27 29 0 0 0
SMALL
GASTEIGER

@<TRIPOS>ATOM
      1  C1         7.5590    2.3560   24.1870 C.3   800  JSS800      0.1608
      2  O1         8.4860    1.5670   24.9260 O.3   800  JSS800     -0.3532
      3  C2         6.2910    2.5520   25.0170 C.3   800  JSS800      0.1207
      4  N2         6.6090    3.2590   26.2560 N.3   800  JSS800     -0.2150
      5  C3         5.5820    3.5400   27.2440 C.3   800  JSS800      0.0935
      6  C4         4.3570    4.1800   26.6170 C.3   800  JSS800      0.0452
      7  N1'       10.0020   -1.6370   25.0390 N.3   800  JSS800     -0.2154
      8  C11        3.4590    4.8380   27.6480 C.ar  800  JSS800     -0.0185
      9  C12        3.8960    5.9920   28.2890 C.ar  800  JSS800      0.0254
     10  C13        3.0630    6.6090   29.2200 C.ar  800  JSS800      0.1398
     11  F13        3.5140    7.7230   29.8310 F     800  JSS800     -0.2042
     12  C14        1.7970    6.0820   29.5150 C.ar  800  JSS800      0.0296
     13  C15        1.3540    4.9260   28.8740 C.ar  800  JSS800      0.0020
     14  C16        2.1970    4.3120   27.9370 C.ar  800  JSS800     -0.0041
     15  N1A       13.4600    0.2830   23.9220 N.2   800  JSS800     -0.3922
     16  C2'        8.9010   -0.7820   25.4790 C.3   800  JSS800      0.1182
     17  C2A       12.4880    1.1600   23.5280 C.2   800  JSS800      0.0926
     18  C3'        8.7760    0.2780   24.3740 C.3   800  JSS800      0.1343
     19  C3A       12.7240    1.9920   22.4260 C.3   800  JSS800      0.0766
     20  C4'       10.1270    0.2620   23.6430 C.3   800  JSS800      0.0527
     21  C4A       13.9290    1.9300   21.7360 C.2   800  JSS800     -0.0333
     22  C5'       10.5940   -1.1910   23.7570 C.3   800  JSS800      0.0916
     23  C5A       14.8970    1.0240   22.1510 C.2   800  JSS800      0.0427
     24  C6A       14.6490    0.2230   23.2740 C.2   800  JSS800      0.2178
     25  N6A       15.5720   -0.6710   23.6660 N.pl3 800  JSS800     -0.0932
     26  C7A       11.1550    1.2270   24.2630 C.3   800  JSS800      0.0587
     27  C8A       14.1890    2.8220   20.5390 C.3   800  JSS800      0.0269
@<TRIPOS>BOND
     1    27    21    1
     2    21    23    2
     3    21    19    1
     4    23    24    1
     5    19    17    1
     6    24    25    1
     7    24    15    2
     8    17    15    2
     9    17    26    1
    10    20    22    1
    11    20    26    1
    12    20    18    1
    13    22     7    1
    14     1     2    1
    15     1     3    1
    16    18     2    1
    17    18    16    1
    18     3     4    1
    19     7    16    1
    20     4     5    1
    21     6     5    1
    22     6     8    1
    23     8    14   ar
    24     8     9   ar
    25    14    13   ar
    26     9    10   ar
    27    13    12   ar
    28    10    12   ar
    29    10    11    1
