@<TRIPOS>MOLECULE
3nlk_HEM_A_1.pdb
 43 50 0 0 0
SMALL
GASTEIGER

@<TRIPOS>ATOM
      1  CHA       12.9530    4.7930   26.4280 C.2   750  HEM750      0.0000
      2  CHB       16.8220    1.7910   26.1250 C.2   750  HEM750      0.0000
      3  CHC       17.8550    3.6960   21.7840 C.2   750  HEM750      0.0000
      4  CHD       14.6060    7.2870   22.5470 C.2   750  HEM750      0.0000
      5  C1A       13.8130    3.7310   26.6190 C.2   750  HEM750      0.0000
      6  C2A       13.5910    2.6820   27.5770 C.2   750  HEM750      0.0000
      7  C3A       14.6620    1.8520   27.5240 C.2   750  HEM750      0.0000
      8  C4A       15.5750    2.3270   26.4870 C.2   750  HEM750      0.0000
      9  CMA       14.8940    0.5690   28.3760 C.3   750  HEM750      0.0000
     10  CAA       12.3440    2.6150   28.4800 C.3   750  HEM750      0.0000
     11  CBA       11.1330    2.1190   27.6530 C.3   750  HEM750      0.0000
     12  CGA       10.0640    1.5180   28.5180 C.2   750  HEM750      0.0000
     13  O1A       10.4210    0.9690   29.6030 O.co2 750  HEM750      0.0000
     14  O2A        8.8490    1.6020   28.1360 O.co2 750  HEM750      0.0000
     15  C1B       17.4350    1.9960   24.9180 C.ar  750  HEM750      0.0000
     16  C2B       18.5270    1.2330   24.3530 C.ar  750  HEM750      0.0000
     17  C3B       18.8170    1.7510   23.1420 C.ar  750  HEM750      0.0000
     18  C4B       17.9210    2.8820   22.9060 C.ar  750  HEM750      0.0000
     19  CMB       19.1910    0.0140   25.0500 C.3   750  HEM750      0.0000
     20  CAB       19.9110    1.1970   22.2100 C.2   750  HEM750      0.0000
     21  CBB       20.2010    1.7140   21.0200 C.2   750  HEM750      0.0000
     22  C1C       16.9910    4.7790   21.5930 C.2   750  HEM750      0.0000
     23  C2C       16.9260    5.5630   20.3800 C.2   750  HEM750      0.0000
     24  C3C       16.0320    6.5440   20.5920 C.2   750  HEM750      0.0000
     25  C4C       15.5180    6.4340   21.9410 C.2   750  HEM750      0.0000
     26  CMC       17.7090    5.2290   19.0720 C.3   750  HEM750      0.0000
     27  CAC       15.5640    7.6460   19.6280 C.2   750  HEM750      0.0000
     28  CBC       16.3690    8.1510   18.6700 C.2   750  HEM750      0.0000
     29  C1D       13.8350    6.9580   23.6480 C.ar  750  HEM750      0.0000
     30  C2D       12.7010    7.6970   24.1530 C.ar  750  HEM750      0.0000
     31  C3D       12.2180    6.9200   25.3610 C.ar  750  HEM750      0.0000
     32  C4D       13.0730    5.7790   25.4610 C.ar  750  HEM750      0.0000
     33  CMD       12.1150    9.0120   23.5860 C.3   750  HEM750      0.0000
     34  CAD       10.9940    7.2420   26.2640 C.3   750  HEM750      0.0000
     35  CBD        9.8770    6.5080   25.5280 C.3   750  HEM750      0.0000
     36  CGD        8.5810    6.4850   26.2930 C.2   750  HEM750      0.0000
     37  O1D        8.3650    7.3720   27.1760 O.co2 750  HEM750      0.0000
     38  O2D        7.7690    5.5720   25.9980 O.co2 750  HEM750      0.0000
     39  NA        15.0550    3.5190   26.0050 N.2   750  HEM750      0.0000
     40  NB        17.1460    3.0360   24.0480 N.ar  750  HEM750      0.0000
     41  NC        16.1620    5.3860   22.5360 N.2   750  HEM750      0.0000
     42  ND        14.0610    5.8790   24.4910 N.ar  750  HEM750      0.0000
     43 FE         15.6880    4.5220   24.3390 Fe    750  HEM750      0.0000
@<TRIPOS>BOND
     1    28    27    2
     2    26    23    1
     3    27    24    1
     4    23    24    2
     5    23    22    1
     6    24    25    1
     7    21    20    2
     8    22     3    2
     9    22    41    1
    10     3    18    1
    11    25    41    2
    12    25     4    1
    13    20    17    1
    14    41    43    1
    15     4    29    2
    16    18    17   ar
    17    18    40   ar
    18    17    16   ar
    19    33    30    1
    20    29    30   ar
    21    29    42   ar
    22    40    43    1
    23    40    15   ar
    24    30    31   ar
    25    43    42    1
    26    43    39    1
    27    16    15   ar
    28    16    19    1
    29    42    32   ar
    30    15     2    1
    31    31    32   ar
    32    31    34    1
    33    32     1    2
    34    35    34    1
    35    35    36    1
    36    38    36   ar
    37    39     8    1
    38    39     5    2
    39     2     8    2
    40    36    37   ar
    41     1     5    1
    42     8     7    1
    43     5     6    1
    44     7     6    2
    45     7     9    1
    46     6    10    1
    47    11    10    1
    48    11    12    1
    49    14    12   ar
    50    12    13   ar
