@<TRIPOS>MOLECULE
3nll_FMN_A_1.pdb
 31 33 0 0 0
SMALL
GASTEIGER

@<TRIPOS>ATOM
      1  N1        27.6620   14.3450   15.7940 N.2   139  FMN139     -0.2890
      2  C2        27.7810   14.0920   17.1320 C.1   139  FMN139      0.3669
      3  O2        26.8050   13.8680   17.7850 O.2   139  FMN139     -0.1744
      4  N3        29.0350   14.0830   17.7290 N.2   139  FMN139     -0.2300
      5  C4        30.2140   14.2620   17.0520 C.1   139  FMN139      0.2513
      6  O4        31.3030   14.2650   17.6220 O.2   139  FMN139     -0.2057
      7  C4A       30.0770   14.4870   15.5890 C.2   139  FMN139      0.2700
      8  N5        31.1530   14.5930   14.8380 N.2   139  FMN139     -0.3878
      9  C5A       30.9980   14.8320   13.4630 C.2   139  FMN139      0.1320
     10  C6        32.1530   15.0130   12.6520 C.2   139  FMN139      0.0250
     11  C7        32.0330   15.2420   11.3040 C.2   139  FMN139     -0.0238
     12  C7M       33.2570   15.2910   10.4370 C.3   139  FMN139      0.0308
     13  C8        30.7220   15.3850   10.7200 C.2   139  FMN139     -0.0280
     14  C8M       30.5390   15.6950    9.2540 C.3   139  FMN139      0.0304
     15  C9        29.5880   15.2270   11.4970 C.2   139  FMN139     -0.0041
     16  C9A       29.7060   14.9470   12.8700 C.3   139  FMN139      0.1497
     17  N10       28.5980   14.7730   13.7030 N.pl3 139  FMN139     -0.2691
     18  C10       28.7230   14.5380   15.0580 C.2   139  FMN139      0.2416
     19  C1'       27.2740   14.8000   13.0990 C.3   139  FMN139      0.1294
     20  C2'       26.7320   16.2100   12.8960 C.3   139  FMN139      0.2044
     21  O2'       26.8120   16.9280   14.1340 O.3   139  FMN139     -0.2185
     22  C3'       25.2800   16.1160   12.4530 C.3   139  FMN139      0.2164
     23  O3'       25.2080   15.3160   11.2780 O.3   139  FMN139     -0.2175
     24  C4'       24.4280   17.3620   12.2640 C.3   139  FMN139      0.2147
     25  O4'       23.0850   16.9720   11.9540 O.3   139  FMN139     -0.2176
     26  C5'       25.0450   18.2700   11.2050 C.3   139  FMN139      0.1892
     27  O5'       24.3340   19.4760   11.1750 O.3   139  FMN139     -0.2674
     28  P         24.7370   20.5670   10.1480 P.3   139  FMN139      0.5327
     29  O1P       26.1820   20.6000   10.0330 O.3   139  FMN139     -0.1145
     30  O2P       24.0810   21.7960   10.5830 O.3   139  FMN139     -0.1145
     31  O3P       24.1340   20.1440    8.7750 O.2   139  FMN139     -0.2224
@<TRIPOS>BOND
     1    31    28    2
     2    14    13    1
     3    29    28    1
     4    28    30    1
     5    28    27    1
     6    12    11    1
     7    13    11    1
     8    13    15    2
     9    27    26    1
    10    26    24    1
    11    23    22    1
    12    11    10    2
    13    15    16    1
    14    25    24    1
    15    24    22    1
    16    22    20    1
    17    10     9    1
    18    16     9    1
    19    16    17    1
    20    20    19    1
    21    20    21    1
    22    19    17    1
    23     9     8    2
    24    17    18    1
    25     8     7    2
    26    18     7    1
    27    18     1    2
    28     7     5    1
    29     1     2    2
    30     5     6    2
    31     5     4    2
    32     2     4    2
    33     2     3    2
