@<TRIPOS>MOLECULE
3nlm_JRR_A_1.pdb
 27 29 0 0 0
SMALL
GASTEIGER

@<TRIPOS>ATOM
      1  C1         7.1980    0.3030   24.9880 C.3   800  JRR800      0.1608
      2  O1         6.6690    1.4570   25.6480 O.3   800  JRR800     -0.3532
      3  C2         8.1980    0.7390   23.9100 C.3   800  JRR800      0.1207
      4  N2         9.4500    1.1610   24.5270 N.3   800  JRR800     -0.2150
      5  C3        10.7400    0.8840   23.9630 C.3   800  JRR800      0.0935
      6  C4        11.6820    2.0650   24.1500 C.3   800  JRR800      0.0452
      7  N1'        6.7820    1.6190   28.4800 N.3   800  JRR800     -0.2154
      8  C11       12.9230    1.7250   23.3570 C.ar  800  JRR800     -0.0185
      9  C12       13.1260    2.3500   22.1320 C.ar  800  JRR800      0.0254
     10  C13       14.2590    2.0390   21.3840 C.ar  800  JRR800      0.1398
     11  F13       14.4440    2.6600   20.1920 F     800  JRR800     -0.2042
     12  C14       15.1590    1.1030   21.8730 C.ar  800  JRR800      0.0296
     13  C15       14.9630    0.4570   23.0900 C.ar  800  JRR800      0.0020
     14  C16       13.8290    0.7670   23.8210 C.ar  800  JRR800     -0.0041
     15  N1A        5.2020    5.9440   26.6830 N.2   800  JRR800     -0.3922
     16  C2'        6.2100    0.4860   27.7710 C.3   800  JRR800      0.1182
     17  C2A        4.3720    4.8690   26.6490 C.2   800  JRR800      0.0926
     18  C3'        5.6000    1.1560   26.5460 C.3   800  JRR800      0.1343
     19  C3A        3.0750    4.9560   27.1790 C.3   800  JRR800      0.0766
     20  C4'        5.0850    2.4930   27.0900 C.3   800  JRR800      0.0527
     21  C4A        2.6690    6.1670   27.7670 C.2   800  JRR800     -0.0333
     22  C5'        6.1300    2.8850   28.1480 C.3   800  JRR800      0.0916
     23  C5A        3.5450    7.2520   27.7880 C.2   800  JRR800      0.0427
     24  C6A        4.8250    7.1230   27.2460 C.2   800  JRR800      0.2178
     25  N6A        5.6780    8.1840   27.2560 N.pl3 800  JRR800     -0.0932
     26  C7A        4.8670    3.5810   26.0200 C.3   800  JRR800      0.0587
     27  C8A        1.2880    6.3230   28.3630 C.3   800  JRR800      0.0269
@<TRIPOS>BOND
     1    11    10    1
     2    10    12   ar
     3    10     9   ar
     4    12    13   ar
     5     9     8   ar
     6    13    14   ar
     7     8    14   ar
     8     8     6    1
     9     3     4    1
    10     3     1    1
    11     5     6    1
    12     5     4    1
    13     1     2    1
    14     2    18    1
    15    26    17    1
    16    26    20    1
    17    18    20    1
    18    18    16    1
    19    17    15    2
    20    17    19    1
    21    15    24    2
    22    20    22    1
    23    19    21    1
    24    24    25    1
    25    24    23    1
    26    21    23    2
    27    21    27    1
    28    16     7    1
    29    22     7    1
