@<TRIPOS>MOLECULE
3nlm_HEM_A_1.pdb
 43 50 0 0 0
SMALL
GASTEIGER

@<TRIPOS>ATOM
      1  CHA       13.2390    4.9310   26.4460 C.2   750  HEM750      0.0000
      2  CHB       17.0250    1.9530   26.0950 C.2   750  HEM750      0.0000
      3  CHC       17.8870    3.7560   21.6990 C.2   750  HEM750      0.0000
      4  CHD       14.9070    7.4370   22.5920 C.2   750  HEM750      0.0000
      5  C1A       14.0600    3.8460   26.6090 C.2   750  HEM750      0.0000
      6  C2A       13.8380    2.7460   27.5290 C.2   750  HEM750      0.0000
      7  C3A       14.8770    1.9040   27.4410 C.2   750  HEM750      0.0000
      8  C4A       15.8100    2.4770   26.4680 C.2   750  HEM750      0.0000
      9  CMA       15.1180    0.5660   28.1970 C.3   750  HEM750      0.0000
     10  CAA       12.5670    2.5880   28.3890 C.3   750  HEM750      0.0000
     11  CBA       11.7070    1.7120   27.4850 C.3   750  HEM750      0.0000
     12  CGA       10.4000    1.4290   28.1460 C.2   750  HEM750      0.0000
     13  O1A       10.4200    1.0600   29.3480 O.co2 750  HEM750      0.0000
     14  O2A        9.3620    1.5670   27.4650 O.co2 750  HEM750      0.0000
     15  C1B       17.5430    2.1040   24.8350 C.ar  750  HEM750      0.0000
     16  C2B       18.5740    1.2990   24.2140 C.ar  750  HEM750      0.0000
     17  C3B       18.8110    1.7930   23.0060 C.ar  750  HEM750      0.0000
     18  C4B       17.9660    2.9620   22.8240 C.ar  750  HEM750      0.0000
     19  CMB       19.2370    0.0370   24.8110 C.3   750  HEM750      0.0000
     20  CAB       19.8160    1.1470   22.0350 C.2   750  HEM750      0.0000
     21  CBB       20.6390    1.8320   21.2420 C.2   750  HEM750      0.0000
     22  C1C       17.1160    4.8940   21.5140 C.2   750  HEM750      0.0000
     23  C2C       17.0660    5.7160   20.3180 C.2   750  HEM750      0.0000
     24  C3C       16.2390    6.7530   20.5540 C.2   750  HEM750      0.0000
     25  C4C       15.7640    6.6120   21.9070 C.2   750  HEM750      0.0000
     26  CMC       17.8130    5.3600   19.0290 C.3   750  HEM750      0.0000
     27  CAC       15.8130    7.9170   19.6350 C.2   750  HEM750      0.0000
     28  CBC       16.5440    8.2690   18.5600 C.2   750  HEM750      0.0000
     29  C1D       14.1290    7.0750   23.6830 C.ar  750  HEM750      0.0000
     30  C2D       12.9560    7.7840   24.1100 C.ar  750  HEM750      0.0000
     31  C3D       12.4420    7.0010   25.3170 C.ar  750  HEM750      0.0000
     32  C4D       13.3470    5.8930   25.4790 C.ar  750  HEM750      0.0000
     33  CMD       12.3800    9.0980   23.5250 C.3   750  HEM750      0.0000
     34  CAD       11.1780    7.2920   26.1450 C.3   750  HEM750      0.0000
     35  CBD       10.1280    6.5020   25.3430 C.3   750  HEM750      0.0000
     36  CGD        8.7250    6.6720   25.8880 C.2   750  HEM750      0.0000
     37  O1D        8.4430    7.7340   26.5080 O.co2 750  HEM750      0.0000
     38  O2D        7.8760    5.7530   25.7000 O.co2 750  HEM750      0.0000
     39  NA        15.3300    3.7070   26.0570 N.2   750  HEM750      0.0000
     40  NB        17.2770    3.1760   24.0090 N.ar  750  HEM750      0.0000
     41  NC        16.3400    5.5020   22.4450 N.2   750  HEM750      0.0000
     42  ND        14.3520    5.9980   24.5430 N.ar  750  HEM750      0.0000
     43 FE         15.9110    4.6610   24.3560 Fe    750  HEM750      0.0000
@<TRIPOS>BOND
     1    28    27    2
     2    26    23    1
     3    27    24    1
     4    23    24    2
     5    23    22    1
     6    24    25    1
     7    21    20    2
     8    22     3    2
     9    22    41    1
    10     3    18    1
    11    25    41    2
    12    25     4    1
    13    20    17    1
    14    41    43    1
    15     4    29    2
    16    18    17   ar
    17    18    40   ar
    18    17    16   ar
    19    33    30    1
    20    29    30   ar
    21    29    42   ar
    22    40    43    1
    23    40    15   ar
    24    30    31   ar
    25    16    19    1
    26    16    15   ar
    27    43    42    1
    28    43    39    1
    29    42    32   ar
    30    15     2    1
    31    31    32   ar
    32    31    34    1
    33    35    36    1
    34    35    34    1
    35    32     1    2
    36    38    36   ar
    37    36    37   ar
    38    39     8    1
    39    39     5    2
    40     2     8    2
    41     1     5    1
    42     8     7    1
    43     5     6    1
    44     7     6    2
    45     7     9    1
    46    14    12   ar
    47    11    12    1
    48    11    10    1
    49     6    10    1
    50    12    13   ar
