@<TRIPOS>MOLECULE
3nlm_H4B_A_1.pdb
 17 18 0 0 0
SMALL
GASTEIGER

@<TRIPOS>ATOM
      1  N1         9.9750    2.6060   33.6370 N.2   760  H4B760     -0.2683
      2  C2        10.1380    2.2720   32.3240 C.1   760  H4B760      0.2608
      3  N2        11.3740    2.1580   31.7900 N.pl3 760  H4B760     -0.0220
      4  N3         9.0550    2.0520   31.5410 N.2   760  H4B760     -0.2474
      5  C4         7.8030    2.1630   32.0460 C.1   760  H4B760      0.2441
      6  O4         6.8400    1.9090   31.2960 O.2   760  H4B760     -0.2063
      7  C4A        7.6170    2.5210   33.3870 C.2   760  H4B760      0.2463
      8  C8A        8.7420    2.7610   34.1780 C.1   760  H4B760      0.1270
      9  N5         6.3710    2.6510   33.9390 N.2   760  H4B760     -0.2460
     10  N8         8.6190    3.1300   35.5010 N.2   760  H4B760     -0.2054
     11  C6         6.2500    3.5470   35.0970 C.3   760  H4B760      0.1627
     12  C7         7.2940    3.2110   36.1460 C.3   760  H4B760      0.1643
     13  C9         4.8400    3.6360   35.6890 C.3   760  H4B760      0.2063
     14  O9         4.4370    2.3060   36.0590 O.3   760  H4B760     -0.2183
     15  C10        4.7740    4.5530   36.9150 C.3   760  H4B760      0.1842
     16  C11        3.3380    4.7460   37.3780 C.3   760  H4B760      0.0383
     17  O10        5.2880    5.8610   36.6010 O.3   760  H4B760     -0.2204
@<TRIPOS>BOND
     1     6     5    2
     2     4     5    2
     3     4     2    2
     4     3     2    1
     5     5     7    1
     6     2     1    2
     7     7     9    2
     8     7     8    1
     9     1     8    2
    10     9    11    1
    11     8    10    2
    12    11    13    1
    13    11    12    1
    14    10    12    1
    15    13    14    1
    16    13    15    1
    17    17    15    1
    18    15    16    1
