@<TRIPOS>MOLECULE
3nln_HEM_A_1.pdb
 43 50 0 0 0
SMALL
GASTEIGER

@<TRIPOS>ATOM
      1  CHA       13.0170    4.8680   26.6840 C.2   750  HEM750      0.0000
      2  CHB       16.8250    1.7990   26.2380 C.2   750  HEM750      0.0000
      3  CHC       17.8030    3.6140   21.8710 C.2   750  HEM750      0.0000
      4  CHD       14.6410    7.2530   22.7220 C.2   750  HEM750      0.0000
      5  C1A       13.8720    3.7960   26.8670 C.2   750  HEM750      0.0000
      6  C2A       13.7360    2.7660   27.8680 C.2   750  HEM750      0.0000
      7  C3A       14.7850    1.9340   27.7520 C.2   750  HEM750      0.0000
      8  C4A       15.6190    2.3780   26.6420 C.2   750  HEM750      0.0000
      9  CMA       15.1070    0.6770   28.6120 C.3   750  HEM750      0.0000
     10  CAA       12.6260    2.7180   28.9290 C.3   750  HEM750      0.0000
     11  CBA       11.2320    2.5140   28.3370 C.3   750  HEM750      0.0000
     12  CGA       10.5150    1.3920   29.0510 C.2   750  HEM750      0.0000
     13  O1A       11.0830    0.7170   29.9560 O.co2 750  HEM750      0.0000
     14  O2A        9.3320    1.1780   28.6980 O.co2 750  HEM750      0.0000
     15  C1B       17.4350    1.9860   25.0240 C.ar  750  HEM750      0.0000
     16  C2B       18.5040    1.2010   24.4670 C.ar  750  HEM750      0.0000
     17  C3B       18.7690    1.6930   23.2390 C.ar  750  HEM750      0.0000
     18  C4B       17.8860    2.8290   23.0010 C.ar  750  HEM750      0.0000
     19  CMB       19.1990   -0.0210   25.1410 C.3   750  HEM750      0.0000
     20  CAB       19.8410    1.1150   22.3030 C.2   750  HEM750      0.0000
     21  CBB       20.3000    1.7640   21.2410 C.2   750  HEM750      0.0000
     22  C1C       16.9400    4.7030   21.7020 C.2   750  HEM750      0.0000
     23  C2C       16.8620    5.5070   20.4910 C.2   750  HEM750      0.0000
     24  C3C       15.9950    6.4950   20.7350 C.2   750  HEM750      0.0000
     25  C4C       15.5130    6.3770   22.1010 C.2   750  HEM750      0.0000
     26  CMC       17.5820    5.1890   19.1330 C.3   750  HEM750      0.0000
     27  CAC       15.5340    7.6050   19.7780 C.2   750  HEM750      0.0000
     28  CBC       16.3050    7.9470   18.7340 C.2   750  HEM750      0.0000
     29  C1D       13.8880    6.9470   23.8460 C.ar  750  HEM750      0.0000
     30  C2D       12.7640    7.7020   24.3350 C.ar  750  HEM750      0.0000
     31  C3D       12.2800    6.9620   25.5590 C.ar  750  HEM750      0.0000
     32  C4D       13.1100    5.8210   25.6820 C.ar  750  HEM750      0.0000
     33  CMD       12.1990    9.0130   23.7230 C.3   750  HEM750      0.0000
     34  CAD       11.0800    7.3440   26.4820 C.3   750  HEM750      0.0000
     35  CBD        9.8770    6.8700   25.6840 C.3   750  HEM750      0.0000
     36  CGD        8.6760    6.7020   26.5700 C.2   750  HEM750      0.0000
     37  O1D        8.3860    7.6500   27.3610 O.co2 750  HEM750      0.0000
     38  O2D        8.0260    5.6310   26.4710 O.co2 750  HEM750      0.0000
     39  NA        15.0750    3.5710   26.1920 N.2   750  HEM750      0.0000
     40  NB        17.1330    3.0230   24.1530 N.ar  750  HEM750      0.0000
     41  NC        16.1520    5.3140   22.6670 N.2   750  HEM750      0.0000
     42  ND        14.1010    5.8790   24.7020 N.ar  750  HEM750      0.0000
     43 FE         15.7090    4.5330   24.4990 Fe    750  HEM750      0.0000
@<TRIPOS>BOND
     1    28    27    2
     2    26    23    1
     3    27    24    1
     4    23    24    2
     5    23    22    1
     6    24    25    1
     7    21    20    2
     8    22     3    2
     9    22    41    1
    10     3    18    1
    11    25    41    2
    12    25     4    1
    13    20    17    1
    14    41    43    1
    15     4    29    2
    16    18    17   ar
    17    18    40   ar
    18    17    16   ar
    19    33    30    1
    20    29    30   ar
    21    29    42   ar
    22    40    43    1
    23    40    15   ar
    24    30    31   ar
    25    16    15   ar
    26    16    19    1
    27    43    42    1
    28    43    39    1
    29    42    32   ar
    30    15     2    1
    31    31    32   ar
    32    31    34    1
    33    32     1    2
    34    35    34    1
    35    35    36    1
    36    39     8    1
    37    39     5    2
    38     2     8    2
    39    38    36   ar
    40    36    37   ar
    41     8     7    1
    42     1     5    1
    43     5     6    1
    44     7     6    2
    45     7     9    1
    46     6    10    1
    47    11    10    1
    48    11    12    1
    49    14    12   ar
    50    12    13   ar
