@<TRIPOS>MOLECULE
3nln_H4B_A_1.pdb
 17 18 0 0 0
SMALL
GASTEIGER

@<TRIPOS>ATOM
      1  N1        10.0760    2.6360   33.9870 N.2   760  H4B760     -0.2683
      2  C2        10.2590    2.1980   32.7160 C.1   760  H4B760      0.2608
      3  N2        11.5570    2.0890   32.2390 N.pl3 760  H4B760     -0.0220
      4  N3         9.1670    1.8990   31.9690 N.2   760  H4B760     -0.2474
      5  C4         7.8830    1.9950   32.4500 C.1   760  H4B760      0.2441
      6  O4         6.8840    1.7060   31.7390 O.2   760  H4B760     -0.2063
      7  C4A        7.7030    2.4780   33.7290 C.2   760  H4B760      0.2463
      8  C8A        8.8400    2.8200   34.4860 C.1   760  H4B760      0.1270
      9  N5         6.4940    2.6400   34.2730 N.2   760  H4B760     -0.2460
     10  N8         8.7330    3.2510   35.7650 N.2   760  H4B760     -0.2054
     11  C6         6.3840    3.6260   35.3630 C.3   760  H4B760      0.1627
     12  C7         7.4520    3.4040   36.4110 C.3   760  H4B760      0.1643
     13  C9         5.0000    3.6520   36.0110 C.3   760  H4B760      0.2063
     14  O9         4.7350    2.3160   36.3980 O.3   760  H4B760     -0.2183
     15  C10        4.8910    4.5720   37.2210 C.3   760  H4B760      0.1842
     16  C11        3.5200    4.4290   37.8660 C.3   760  H4B760      0.0383
     17  O10        5.1230    5.9600   36.8950 O.3   760  H4B760     -0.2204
@<TRIPOS>BOND
     1     6     5    2
     2     4     5    2
     3     4     2    2
     4     3     2    1
     5     5     7    1
     6     2     1    2
     7     7     9    2
     8     7     8    1
     9     1     8    2
    10     9    11    1
    11     8    10    2
    12    11    13    1
    13    11    12    1
    14    10    12    1
    15    13    14    1
    16    13    15    1
    17    17    15    1
    18    15    16    1
