@<TRIPOS>MOLECULE
3nlo_JSR_A_1.pdb
 27 29 0 0 0
SMALL
GASTEIGER

@<TRIPOS>ATOM
      1  C1         7.9300   -1.7360   25.9770 C.3   800  JSR800      0.1613
      2  O1         8.6040   -1.0520   24.8920 O.3   800  JSR800     -0.3487
      3  C2         6.4170   -1.9490   25.7440 C.3   800  JSR800      0.1207
      4  N2         5.5860   -1.5090   26.8670 N.3   800  JSR800     -0.2150
      5  C3         4.7350   -0.3130   26.8260 C.3   800  JSR800      0.0935
      6  C4         4.9450    0.6800   27.9920 C.3   800  JSR800      0.0452
      7  N1'        7.8910    2.3440   24.5770 N.2   800  JSR800     -0.2709
      8  C11        3.8400    1.7400   28.0700 C.ar  800  JSR800     -0.0185
      9  C12        4.1620    3.1140   28.1400 C.ar  800  JSR800      0.0254
     10  C13        3.1370    4.0820   28.2110 C.ar  800  JSR800      0.1398
     11  F13        3.4340    5.3990   28.2770 F     800  JSR800     -0.2042
     12  C14        1.7900    3.6810   28.2190 C.ar  800  JSR800      0.0296
     13  C15        1.4580    2.3210   28.1490 C.ar  800  JSR800      0.0020
     14  C16        2.4780    1.3590   28.0800 C.ar  800  JSR800     -0.0041
     15  N1A       13.4010    0.4090   24.0030 N.2   800  JSR800     -0.3922
     16  C2'        7.7810    1.2000   25.4380 C.2   800  JSR800      0.0961
     17  C2A       12.4460    1.3250   23.6730 C.2   800  JSR800      0.0926
     18  C3'        9.0150    0.3110   25.1930 C.3   800  JSR800      0.1579
     19  C3A       12.6690    2.0990   22.5280 C.3   800  JSR800      0.0766
     20  C4'        9.8660    1.0010   24.1110 C.3   800  JSR800      0.0640
     21  C4A       13.8070    1.8980   21.7500 C.2   800  JSR800     -0.0333
     22  C5'        9.1430    2.3070   23.8570 C.3   800  JSR800      0.1284
     23  C5A       14.7500    0.9590   22.1240 C.2   800  JSR800      0.0427
     24  C6A       14.5250    0.2180   23.2670 C.2   800  JSR800      0.2178
     25  N6A       15.4250   -0.7110   23.6520 N.pl3 800  JSR800     -0.0932
     26  C7A       11.2300    1.4930   24.5890 C.3   800  JSR800      0.0596
     27  C8A       14.0530    2.6870   20.4830 C.3   800  JSR800      0.0269
@<TRIPOS>BOND
     1    27    21    1
     2    21    23    2
     3    21    19    1
     4    23    24    1
     5    19    17    1
     6    24    25    1
     7    24    15    2
     8    17    15    2
     9    17    26    1
    10    22    20    1
    11    22     7    1
    12    20    26    1
    13    20    18    1
    14     7    16    2
    15     2    18    1
    16     2     1    1
    17    18    16    1
    18     3     1    1
    19     3     4    1
    20     5     4    1
    21     5     6    1
    22     6     8    1
    23     8    14   ar
    24     8     9   ar
    25    14    13   ar
    26     9    10   ar
    27    13    12   ar
    28    10    12   ar
    29    10    11    1
