@<TRIPOS>MOLECULE
3nlo_H4B_A_1.pdb
 17 18 0 0 0
SMALL
GASTEIGER

@<TRIPOS>ATOM
      1  N1         9.8970    2.5560   33.7860 N.2   760  H4B760     -0.2683
      2  C2        10.0820    2.0840   32.5430 C.1   760  H4B760      0.2608
      3  N2        11.3830    1.9670   32.1090 N.pl3 760  H4B760     -0.0220
      4  N3         8.9900    1.7840   31.7760 N.2   760  H4B760     -0.2474
      5  C4         7.7230    1.9180   32.2720 C.1   760  H4B760      0.2441
      6  O4         6.7390    1.6180   31.5280 O.2   760  H4B760     -0.2063
      7  C4A        7.5620    2.4070   33.5880 C.2   760  H4B760      0.2463
      8  C8A        8.6820    2.7330   34.3390 C.1   760  H4B760      0.1270
      9  N5         6.3680    2.5960   34.1840 N.2   760  H4B760     -0.2460
     10  N8         8.6220    3.1660   35.6500 N.2   760  H4B760     -0.2054
     11  C6         6.3180    3.6120   35.2550 C.3   760  H4B760      0.1627
     12  C7         7.3620    3.3670   36.3260 C.3   760  H4B760      0.1643
     13  C9         4.9640    3.5920   35.9190 C.3   760  H4B760      0.2063
     14  O9         4.7730    2.2610   36.3650 O.3   760  H4B760     -0.2183
     15  C10        4.8500    4.5580   37.0770 C.3   760  H4B760      0.1842
     16  C11        3.4930    4.3780   37.7400 C.3   760  H4B760      0.0383
     17  O10        4.9680    5.8910   36.5840 O.3   760  H4B760     -0.2204
@<TRIPOS>BOND
     1     6     5    2
     2     4     5    2
     3     4     2    2
     4     3     2    1
     5     5     7    1
     6     2     1    2
     7     7     9    2
     8     7     8    1
     9     1     8    2
    10     9    11    1
    11     8    10    2
    12    11    13    1
    13    11    12    1
    14    10    12    1
    15    13    14    1
    16    13    15    1
    17    17    15    1
    18    15    16    1
