@<TRIPOS>MOLECULE
3nlo_HEM_A_1.pdb
 43 50 0 0 0
SMALL
GASTEIGER

@<TRIPOS>ATOM
      1  CHA       12.6320    5.0530   26.6010 C.2   750  HEM750      0.0000
      2  CHB       16.4110    2.0300   26.1760 C.2   750  HEM750      0.0000
      3  CHC       17.6580    3.7040   21.8090 C.2   750  HEM750      0.0000
      4  CHD       14.4300    7.2750   22.6540 C.2   750  HEM750      0.0000
      5  C1A       13.4940    4.0060   26.7730 C.2   750  HEM750      0.0000
      6  C2A       13.3130    3.0150   27.8050 C.2   750  HEM750      0.0000
      7  C3A       14.3350    2.1650   27.6900 C.2   750  HEM750      0.0000
      8  C4A       15.2120    2.6090   26.5880 C.2   750  HEM750      0.0000
      9  CMA       14.5540    0.9160   28.5690 C.3   750  HEM750      0.0000
     10  CAA       12.0930    2.9450   28.7630 C.3   750  HEM750      0.0000
     11  CBA       11.0790    2.0810   27.9930 C.3   750  HEM750      0.0000
     12  CGA       10.2280    1.1560   28.8240 C.2   750  HEM750      0.0000
     13  O1A       10.7780    0.3770   29.6990 O.co2 750  HEM750      0.0000
     14  O2A        8.9670    1.2140   28.5610 O.co2 750  HEM750      0.0000
     15  C1B       17.0350    2.1540   24.9630 C.ar  750  HEM750      0.0000
     16  C2B       18.0500    1.2740   24.4400 C.ar  750  HEM750      0.0000
     17  C3B       18.4190    1.7310   23.2360 C.ar  750  HEM750      0.0000
     18  C4B       17.6400    2.9240   22.9560 C.ar  750  HEM750      0.0000
     19  CMB       18.6260    0.0180   25.1450 C.3   750  HEM750      0.0000
     20  CAB       19.4730    1.0420   22.3370 C.2   750  HEM750      0.0000
     21  CBB       20.2170    1.6840   21.4210 C.2   750  HEM750      0.0000
     22  C1C       16.8130    4.7850   21.5910 C.2   750  HEM750      0.0000
     23  C2C       16.7240    5.5970   20.3910 C.2   750  HEM750      0.0000
     24  C3C       15.8340    6.5760   20.6530 C.2   750  HEM750      0.0000
     25  C4C       15.3140    6.4120   21.9960 C.2   750  HEM750      0.0000
     26  CMC       17.5070    5.2820   19.0650 C.3   750  HEM750      0.0000
     27  CAC       15.3340    7.6740   19.7170 C.2   750  HEM750      0.0000
     28  CBC       16.0750    8.1100   18.7010 C.2   750  HEM750      0.0000
     29  C1D       13.6230    7.0220   23.7740 C.ar  750  HEM750      0.0000
     30  C2D       12.4550    7.7920   24.1800 C.ar  750  HEM750      0.0000
     31  C3D       11.8910    7.0870   25.3900 C.ar  750  HEM750      0.0000
     32  C4D       12.7770    5.9640   25.5810 C.ar  750  HEM750      0.0000
     33  CMD       11.8970    9.0820   23.5200 C.3   750  HEM750      0.0000
     34  CAD       10.6600    7.4320   26.2490 C.3   750  HEM750      0.0000
     35  CBD        9.3760    7.0540   25.4800 C.3   750  HEM750      0.0000
     36  CGD        8.5880    5.8510   26.0430 C.2   750  HEM750      0.0000
     37  O1D        7.7350    6.0620   26.9720 O.co2 750  HEM750      0.0000
     38  O2D        8.7770    4.6800   25.5480 O.co2 750  HEM750      0.0000
     39  NA        14.7020    3.7890   26.1040 N.2   750  HEM750      0.0000
     40  NB        16.8700    3.1970   24.0640 N.ar  750  HEM750      0.0000
     41  NC        16.0010    5.3520   22.5410 N.2   750  HEM750      0.0000
     42  ND        13.8000    5.9920   24.6570 N.ar  750  HEM750      0.0000
     43 FE         15.4410    4.6140   24.4000 Fe    750  HEM750      0.0000
@<TRIPOS>BOND
     1    28    27    2
     2    26    23    1
     3    27    24    1
     4    23    24    2
     5    23    22    1
     6    24    25    1
     7    21    20    2
     8    22     3    2
     9    22    41    1
    10     3    18    1
    11    25    41    2
    12    25     4    1
    13    20    17    1
    14    41    43    1
    15     4    29    2
    16    18    17   ar
    17    18    40   ar
    18    17    16   ar
    19    33    30    1
    20    29    30   ar
    21    29    42   ar
    22    40    43    1
    23    40    15   ar
    24    30    31   ar
    25    43    42    1
    26    43    39    1
    27    16    15   ar
    28    16    19    1
    29    42    32   ar
    30    15     2    1
    31    31    32   ar
    32    31    34    1
    33    35    36    1
    34    35    34    1
    35    38    36   ar
    36    32     1    2
    37    36    37   ar
    38    39     8    1
    39    39     5    2
    40     2     8    2
    41     8     7    1
    42     1     5    1
    43     5     6    1
    44     7     6    2
    45     7     9    1
    46     6    10    1
    47    11    10    1
    48    11    12    1
    49    14    12   ar
    50    12    13   ar
