@<TRIPOS>MOLECULE
3nlp_H4B_A_1.pdb
 17 18 0 0 0
SMALL
GASTEIGER

@<TRIPOS>ATOM
      1  N1         9.7920    2.6040   33.9870 N.2   760  H4B760     -0.2683
      2  C2         9.9590    2.1910   32.7020 C.1   760  H4B760      0.2608
      3  N2        11.2360    2.0560   32.1890 N.pl3 760  H4B760     -0.0220
      4  N3         8.8730    1.9310   31.9540 N.2   760  H4B760     -0.2474
      5  C4         7.5880    2.0630   32.4280 C.1   760  H4B760      0.2441
      6  O4         6.5950    1.7790   31.6620 O.2   760  H4B760     -0.2063
      7  C4A        7.4280    2.5170   33.7430 C.2   760  H4B760      0.2463
      8  C8A        8.5740    2.8010   34.5070 C.1   760  H4B760      0.1270
      9  N5         6.2270    2.6830   34.3290 N.2   760  H4B760     -0.2460
     10  N8         8.4910    3.2100   35.8020 N.2   760  H4B760     -0.2054
     11  C6         6.1340    3.6330   35.4510 C.3   760  H4B760      0.1627
     12  C7         7.1980    3.3760   36.4840 C.3   760  H4B760      0.1643
     13  C9         4.7530    3.6470   36.0950 C.3   760  H4B760      0.2063
     14  O9         4.3860    2.3130   36.4340 O.3   760  H4B760     -0.2183
     15  C10        4.6590    4.5220   37.3270 C.3   760  H4B760      0.1842
     16  C11        3.2120    4.5010   37.7900 C.3   760  H4B760      0.0383
     17  O10        5.0730    5.8540   36.9950 O.3   760  H4B760     -0.2204
@<TRIPOS>BOND
     1     6     5    2
     2     4     5    2
     3     4     2    2
     4     3     2    1
     5     5     7    1
     6     2     1    2
     7     7     9    2
     8     7     8    1
     9     1     8    2
    10     9    11    1
    11     8    10    2
    12    11    13    1
    13    11    12    1
    14    10    12    1
    15    13    14    1
    16    13    15    1
    17    17    15    1
    18    15    16    1
