@<TRIPOS>MOLECULE
3nlp_JSS_A_1.pdb
 27 29 0 0 0
SMALL
GASTEIGER

@<TRIPOS>ATOM
      1  C1         7.7290    2.9980   24.4890 C.3   800  JSS800      0.1608
      2  O1         8.5180    2.0680   25.2330 O.3   800  JSS800     -0.3532
      3  C2         6.3460    3.0400   25.0880 C.3   800  JSS800      0.1207
      4  N2         6.3110    3.8580   26.2810 N.3   800  JSS800     -0.2150
      5  C3         5.3740    3.5140   27.3370 C.3   800  JSS800      0.0935
      6  C4         4.6960    4.7490   27.9200 C.3   800  JSS800      0.0452
      7  N1'        9.6110   -1.2650   25.2190 N.3   800  JSS800     -0.2154
      8  C11        3.1900    4.6150   28.0070 C.ar  800  JSS800     -0.0185
      9  C12        2.5540    3.3900   27.7670 C.ar  800  JSS800      0.0254
     10  C13        1.1590    3.2930   27.8580 C.ar  800  JSS800      0.1398
     11  F13        0.5380    2.1070   27.6140 F     800  JSS800     -0.2042
     12  C14        0.4160    4.4370   28.1950 C.ar  800  JSS800      0.0296
     13  C15        1.0430    5.6610   28.4490 C.ar  800  JSS800      0.0020
     14  C16        2.4300    5.7430   28.3430 C.ar  800  JSS800     -0.0041
     15  N1A       13.2820    0.4000   24.0680 N.2   800  JSS800     -0.3924
     16  C2'        8.5380   -0.3670   25.6170 C.3   800  JSS800      0.1182
     17  C2A       12.3830    1.3420   23.7110 C.2   800  JSS800      0.1098
     18  C3'        8.6440    0.7920   24.6000 C.3   800  JSS800      0.1343
     19  C3A       12.6060    2.1260   22.5870 C.2   800  JSS800      0.0196
     20  C4'        9.9890    0.6510   23.8730 C.3   800  JSS800      0.0531
     21  C4A       13.7420    1.9410   21.8400 C.2   800  JSS800     -0.0332
     22  C5'       10.2400   -0.8590   23.9450 C.3   800  JSS800      0.0916
     23  C5A       14.6720    0.9780   22.2170 C.3   800  JSS800      0.1001
     24  C6A       14.4260    0.2310   23.3670 C.2   800  JSS800      0.2001
     25  N6A       15.2690   -0.7290   23.7820 N.pl3 800  JSS800     -0.0977
     26  C7A       11.1110    1.5100   24.5020 C.3   800  JSS800      0.0629
     27  C8A       13.9190    2.7970   20.6100 C.3   800  JSS800      0.0269
@<TRIPOS>BOND
     1    27    21    1
     2    21    23    1
     3    21    19    2
     4    23    24    1
     5    19    17    1
     6    24    25    1
     7    24    15    2
     8    17    15    2
     9    17    26    1
    10    20    22    1
    11    20    26    1
    12    20    18    1
    13    22     7    1
    14     1     3    1
    15     1     2    1
    16    18     2    1
    17    18    16    1
    18     3     4    1
    19     7    16    1
    20     4     5    1
    21     5     6    1
    22    11    10    1
    23     9    10   ar
    24     9     8   ar
    25    10    12   ar
    26     6     8    1
    27     8    14   ar
    28    12    13   ar
    29    14    13   ar
