@<TRIPOS>MOLECULE
3nlp_HEM_A_1.pdb
 43 50 0 0 0
SMALL
GASTEIGER

@<TRIPOS>ATOM
      1  CHA       12.7080    4.9350   26.7090 C.2   750  HEM750      0.0000
      2  CHB       16.4190    1.8740   26.3070 C.2   750  HEM750      0.0000
      3  CHC       17.5720    3.5750   21.9020 C.2   750  HEM750      0.0000
      4  CHD       14.4180    7.2230   22.6920 C.2   750  HEM750      0.0000
      5  C1A       13.5050    3.8280   26.9040 C.2   750  HEM750      0.0000
      6  C2A       13.2980    2.7530   27.8420 C.2   750  HEM750      0.0000
      7  C3A       14.3300    1.9150   27.7430 C.2   750  HEM750      0.0000
      8  C4A       15.2130    2.4160   26.7100 C.2   750  HEM750      0.0000
      9  CMA       14.5390    0.6110   28.5710 C.3   750  HEM750      0.0000
     10  CAA       12.1140    2.5930   28.8280 C.3   750  HEM750      0.0000
     11  CBA       10.8050    2.5130   28.0470 C.3   750  HEM750      0.0000
     12  CGA        9.7960    1.6130   28.7170 C.2   750  HEM750      0.0000
     13  O1A       10.1550    0.8630   29.6630 O.co2 750  HEM750      0.0000
     14  O2A        8.6080    1.6510   28.2800 O.co2 750  HEM750      0.0000
     15  C1B       17.0200    2.0210   25.0800 C.ar  750  HEM750      0.0000
     16  C2B       18.1040    1.1980   24.5840 C.ar  750  HEM750      0.0000
     17  C3B       18.4360    1.6450   23.3780 C.ar  750  HEM750      0.0000
     18  C4B       17.5910    2.8010   23.0730 C.ar  750  HEM750      0.0000
     19  CMB       18.6960   -0.0020   25.3580 C.3   750  HEM750      0.0000
     20  CAB       19.5350    1.0310   22.4700 C.2   750  HEM750      0.0000
     21  CBB       19.8690    1.6560   21.3440 C.2   750  HEM750      0.0000
     22  C1C       16.7720    4.6960   21.6890 C.2   750  HEM750      0.0000
     23  C2C       16.7330    5.5240   20.5000 C.2   750  HEM750      0.0000
     24  C3C       15.8660    6.5230   20.7490 C.2   750  HEM750      0.0000
     25  C4C       15.3180    6.3670   22.0750 C.2   750  HEM750      0.0000
     26  CMC       17.5070    5.2440   19.1830 C.3   750  HEM750      0.0000
     27  CAC       15.4830    7.6690   19.8100 C.2   750  HEM750      0.0000
     28  CBC       16.3610    7.9650   18.8530 C.2   750  HEM750      0.0000
     29  C1D       13.6430    6.9420   23.8090 C.ar  750  HEM750      0.0000
     30  C2D       12.5080    7.7230   24.2710 C.ar  750  HEM750      0.0000
     31  C3D       12.0080    7.0180   25.5150 C.ar  750  HEM750      0.0000
     32  C4D       12.8440    5.8630   25.6800 C.ar  750  HEM750      0.0000
     33  CMD       11.9520    9.0320   23.6630 C.3   750  HEM750      0.0000
     34  CAD       10.8250    7.4390   26.4220 C.3   750  HEM750      0.0000
     35  CBD        9.5920    6.6830   25.9550 C.3   750  HEM750      0.0000
     36  CGD        8.4830    7.0620   26.8900 C.2   750  HEM750      0.0000
     37  O1D        8.5460    8.1900   27.4620 O.co2 750  HEM750      0.0000
     38  O2D        7.5380    6.2340   27.0580 O.co2 750  HEM750      0.0000
     39  NA        14.7190    3.6240   26.2830 N.2   750  HEM750      0.0000
     40  NB        16.8170    3.0370   24.1820 N.ar  750  HEM750      0.0000
     41  NC        15.9280    5.2700   22.6250 N.2   750  HEM750      0.0000
     42  ND        13.8400    5.8980   24.6970 N.ar  750  HEM750      0.0000
     43 FE         15.4420    4.5260   24.5110 Fe    750  HEM750      0.0000
@<TRIPOS>BOND
     1    28    27    2
     2    26    23    1
     3    27    24    1
     4    23    24    2
     5    23    22    1
     6    24    25    1
     7    21    20    2
     8    22     3    2
     9    22    41    1
    10     3    18    1
    11    25    41    2
    12    25     4    1
    13    20    17    1
    14    41    43    1
    15     4    29    2
    16    18    17   ar
    17    18    40   ar
    18    17    16   ar
    19    33    30    1
    20    29    30   ar
    21    29    42   ar
    22    40    43    1
    23    40    15   ar
    24    30    31   ar
    25    43    42    1
    26    43    39    1
    27    16    15   ar
    28    16    19    1
    29    42    32   ar
    30    15     2    1
    31    31    32   ar
    32    31    34    1
    33    32     1    2
    34    35    34    1
    35    35    36    1
    36    39     8    1
    37    39     5    2
    38     2     8    2
    39     1     5    1
    40     8     7    1
    41    36    38   ar
    42    36    37   ar
    43     5     6    1
    44     7     6    2
    45     7     9    1
    46     6    10    1
    47    11    12    1
    48    11    10    1
    49    14    12   ar
    50    12    13   ar
