@<TRIPOS>MOLECULE
3nlq_HEM_A_1.pdb
 43 50 0 0 0
SMALL
GASTEIGER

@<TRIPOS>ATOM
      1  CHA       12.7290    4.9220   26.5130 C.2   750  HEM750      0.0000
      2  CHB       16.5360    1.9710   26.2020 C.2   750  HEM750      0.0000
      3  CHC       17.7610    3.5460   21.7320 C.2   750  HEM750      0.0000
      4  CHD       14.7050    7.2500   22.6750 C.2   750  HEM750      0.0000
      5  C1A       13.6040    3.8900   26.7190 C.2   750  HEM750      0.0000
      6  C2A       13.4280    2.8710   27.6880 C.2   750  HEM750      0.0000
      7  C3A       14.4540    2.0380   27.6030 C.2   750  HEM750      0.0000
      8  C4A       15.3240    2.5230   26.5650 C.2   750  HEM750      0.0000
      9  CMA       14.6910    0.7730   28.4780 C.3   750  HEM750      0.0000
     10  CAA       12.1720    2.7350   28.6020 C.3   750  HEM750      0.0000
     11  CBA       11.6010    1.4080   28.1000 C.3   750  HEM750      0.0000
     12  CGA       10.1520    1.2000   28.4540 C.2   750  HEM750      0.0000
     13  O1A        9.9240    0.6270   29.5400 O.co2 750  HEM750      0.0000
     14  O2A        9.2540    1.5520   27.6560 O.co2 750  HEM750      0.0000
     15  C1B       17.1410    2.0710   24.9710 C.ar  750  HEM750      0.0000
     16  C2B       18.2270    1.2250   24.4600 C.ar  750  HEM750      0.0000
     17  C3B       18.5610    1.6410   23.2430 C.ar  750  HEM750      0.0000
     18  C4B       17.7500    2.8100   22.9280 C.ar  750  HEM750      0.0000
     19  CMB       18.8370   -0.0050   25.1630 C.3   750  HEM750      0.0000
     20  CAB       19.6450    0.9590   22.3540 C.2   750  HEM750      0.0000
     21  CBB       20.3340    1.5940   21.3990 C.2   750  HEM750      0.0000
     22  C1C       16.9430    4.6800   21.5250 C.2   750  HEM750      0.0000
     23  C2C       16.8040    5.4740   20.3140 C.2   750  HEM750      0.0000
     24  C3C       15.9980    6.5030   20.6190 C.2   750  HEM750      0.0000
     25  C4C       15.5650    6.3970   21.9910 C.2   750  HEM750      0.0000
     26  CMC       17.5180    5.1760   18.9440 C.3   750  HEM750      0.0000
     27  CAC       15.5450    7.6340   19.6960 C.3   750  HEM750      0.0000
     28  CBC       16.4570    8.0230   18.7960 C.3   750  HEM750      0.0000
     29  C1D       13.8480    6.9380   23.7360 C.ar  750  HEM750      0.0000
     30  C2D       12.6940    7.7070   24.1570 C.ar  750  HEM750      0.0000
     31  C3D       12.0910    6.9720   25.3430 C.ar  750  HEM750      0.0000
     32  C4D       12.9350    5.8430   25.5090 C.ar  750  HEM750      0.0000
     33  CMD       12.1600    9.0150   23.5480 C.3   750  HEM750      0.0000
     34  CAD       10.8450    7.3080   26.2050 C.3   750  HEM750      0.0000
     35  CBD        9.7090    6.5070   25.5530 C.3   750  HEM750      0.0000
     36  CGD        8.3440    6.7120   26.1800 C.2   750  HEM750      0.0000
     37  O1D        8.0710    7.7700   26.8340 O.co2 750  HEM750      0.0000
     38  O2D        7.5170    5.7580   26.0000 O.co2 750  HEM750      0.0000
     39  NA        14.7910    3.7010   26.0810 N.2   750  HEM750      0.0000
     40  NB        16.9300    3.0850   24.0460 N.ar  750  HEM750      0.0000
     41  NC        16.1810    5.3020   22.5190 N.2   750  HEM750      0.0000
     42  ND        14.0100    5.8870   24.6180 N.ar  750  HEM750      0.0000
     43 FE         15.5460    4.5400   24.3870 Fe    750  HEM750      0.0000
@<TRIPOS>BOND
     1    28    27    1
     2    26    23    1
     3    27    24    1
     4    23    24    2
     5    23    22    1
     6    24    25    1
     7    21    20    2
     8    22     3    2
     9    22    41    1
    10     3    18    1
    11    25    41    2
    12    25     4    1
    13    20    17    1
    14    41    43    1
    15     4    29    2
    16    18    17   ar
    17    18    40   ar
    18    17    16   ar
    19    33    30    1
    20    29    30   ar
    21    29    42   ar
    22    40    43    1
    23    40    15   ar
    24    30    31   ar
    25    43    42    1
    26    43    39    1
    27    16    15   ar
    28    16    19    1
    29    42    32   ar
    30    15     2    1
    31    31    32   ar
    32    31    34    1
    33    32     1    2
    34    35    36    1
    35    35    34    1
    36    38    36   ar
    37    39     8    1
    38    39     5    2
    39    36    37   ar
    40     2     8    2
    41     1     5    1
    42     8     7    1
    43     5     6    1
    44     7     6    2
    45     7     9    1
    46    14    12   ar
    47     6    10    1
    48    11    12    1
    49    11    10    1
    50    12    13   ar
