@<TRIPOS>MOLECULE
3nlq_JRR_A_1.pdb
 27 29 0 0 0
SMALL
GASTEIGER

@<TRIPOS>ATOM
      1  C1         7.0470   -0.1750   25.0210 C.3   800  JRR800      0.1608
      2  O1         6.6240    1.0540   25.6050 O.3   800  JRR800     -0.3532
      3  C2         8.5670   -0.2580   25.0590 C.3   800  JRR800      0.1207
      4  N2         9.1400    0.9170   24.4430 N.3   800  JRR800     -0.2150
      5  C3        10.4470    0.7330   23.8640 C.3   800  JRR800      0.0935
      6  C4        11.4480    1.7870   24.3150 C.3   800  JRR800      0.0452
      7  N1'        6.5370    1.6860   28.7160 N.3   800  JRR800     -0.2154
      8  C11       12.7000    1.5130   23.4890 C.ar  800  JRR800     -0.0185
      9  C12       12.8160    2.1870   22.2950 C.ar  800  JRR800      0.0254
     10  C13       13.8950    1.9590   21.5070 C.ar  800  JRR800      0.1398
     11  F13       13.9140    2.6460   20.3560 F     800  JRR800     -0.2042
     12  C14       14.9200    1.0810   21.8970 C.ar  800  JRR800      0.0296
     13  C15       14.8350    0.3870   23.1020 C.ar  800  JRR800      0.0020
     14  C16       13.7030    0.6060   23.8810 C.ar  800  JRR800     -0.0041
     15  N1A        5.1420    5.6230   26.6230 N.2   800  JRR800     -0.3924
     16  C2'        6.6060    0.4740   27.9390 C.3   800  JRR800      0.1182
     17  C2A        4.3330    4.4980   26.5280 C.2   800  JRR800      0.1098
     18  C3'        5.7390    0.7970   26.7020 C.3   800  JRR800      0.1343
     19  C3A        2.9810    4.5660   26.9380 C.2   800  JRR800      0.0196
     20  C4'        4.8420    2.0110   27.0280 C.3   800  JRR800      0.0531
     21  C4A        2.4710    5.7480   27.4620 C.2   800  JRR800     -0.0332
     22  C5'        5.3220    2.4780   28.4120 C.3   800  JRR800      0.0916
     23  C5A        3.3110    6.8630   27.5520 C.3   800  JRR800      0.1001
     24  C6A        4.6590    6.8010   27.1410 C.2   800  JRR800      0.2001
     25  N6A        5.4070    7.9400   27.2300 N.pl3 800  JRR800     -0.0977
     26  C7A        4.8520    3.1600   25.9800 C.3   800  JRR800      0.0629
     27  C8A        1.0250    5.8320   27.9420 C.3   800  JRR800      0.0269
@<TRIPOS>BOND
     1    11    10    1
     2    10    12   ar
     3    10     9   ar
     4    12    13   ar
     5     9     8   ar
     6    13    14   ar
     7     8    14   ar
     8     8     6    1
     9     5     6    1
    10     5     4    1
    11     4     3    1
    12     1     3    1
    13     1     2    1
    14     2    18    1
    15    26    17    1
    16    26    20    1
    17    17    15    2
    18    17    19    1
    19    15    24    2
    20    18    20    1
    21    18    16    1
    22    19    21    2
    23    20    22    1
    24    24    25    1
    25    24    23    1
    26    21    23    1
    27    21    27    1
    28    16     7    1
    29    22     7    1
