@<TRIPOS>MOLECULE
3nlq_H4B_A_1.pdb
 17 18 0 0 0
SMALL
GASTEIGER

@<TRIPOS>ATOM
      1  N1         9.7250    2.6220   33.7830 N.2   760  H4B760     -0.2683
      2  C2         9.9300    2.2380   32.5100 C.1   760  H4B760      0.2608
      3  N2        11.2150    2.1320   31.9900 N.pl3 760  H4B760     -0.0220
      4  N3         8.8680    1.9680   31.7570 N.2   760  H4B760     -0.2474
      5  C4         7.6060    2.0890   32.2060 C.1   760  H4B760      0.2441
      6  O4         6.6790    1.7880   31.3990 O.2   760  H4B760     -0.2063
      7  C4A        7.3800    2.5130   33.5210 C.2   760  H4B760      0.2463
      8  C8A        8.5090    2.7900   34.3070 C.1   760  H4B760      0.1270
      9  N5         6.1300    2.6490   34.0790 N.2   760  H4B760     -0.2460
     10  N8         8.4200    3.1830   35.6170 N.2   760  H4B760     -0.2054
     11  C6         5.9960    3.5350   35.2480 C.3   760  H4B760      0.1627
     12  C7         7.0870    3.2990   36.2660 C.3   760  H4B760      0.1643
     13  C9         4.5940    3.5300   35.8810 C.3   760  H4B760      0.2063
     14  O9         4.1390    2.1940   36.1690 O.3   760  H4B760     -0.2183
     15  C10        4.4640    4.4160   37.1100 C.3   760  H4B760      0.1842
     16  C11        2.9820    4.5820   37.4670 C.3   760  H4B760      0.0383
     17  O10        4.9940    5.6900   36.7500 O.3   760  H4B760     -0.2204
@<TRIPOS>BOND
     1     6     5    2
     2     4     5    2
     3     4     2    2
     4     3     2    1
     5     5     7    1
     6     2     1    2
     7     7     9    2
     8     7     8    1
     9     1     8    2
    10     9    11    1
    11     8    10    2
    12    11    13    1
    13    11    12    1
    14    10    12    1
    15    13    14    1
    16    13    15    1
    17    17    15    1
    18    15    16    1
