@<TRIPOS>MOLECULE
3nlr_JRS_A_1.pdb
 27 29 0 0 0
SMALL
GASTEIGER

@<TRIPOS>ATOM
      1  C1         7.0300    3.3130   24.9420 C.3   800  JRS800      0.1608
      2  O1         7.6490    2.1090   24.5300 O.3   800  JRS800     -0.3532
      3  C2         5.7500    2.7890   25.5890 C.3   800  JRS800      0.1207
      4  N2         4.8010    3.7820   26.0840 N.3   800  JRS800     -0.2150
      5  C3         5.2030    5.0700   26.6270 C.3   800  JRS800      0.0935
      6  C4         4.7710    5.2150   28.0890 C.3   800  JRS800      0.0452
      7  N1'        9.4220   -0.6710   25.3990 N.3   800  JRS800     -0.2154
      8  C11        3.3100    5.5870   28.1560 C.ar  800  JRS800     -0.0185
      9  C12        2.4230    4.5360   28.1540 C.ar  800  JRS800      0.0254
     10  C13        1.0640    4.7950   28.2120 C.ar  800  JRS800      0.1398
     11  F13        0.2380    3.7270   28.1920 F     800  JRS800     -0.2042
     12  C14        0.5870    6.1150   28.2750 C.ar  800  JRS800      0.0296
     13  C15        1.4670    7.1850   28.2810 C.ar  800  JRS800      0.0020
     14  C16        2.8370    6.9100   28.2220 C.ar  800  JRS800     -0.0041
     15  N1A       13.2920    0.5580   24.2220 N.2   800  JRS800     -0.3924
     16  C2'        8.4800    0.3390   25.9020 C.3   800  JRS800      0.1182
     17  C2A       12.4320    1.5690   23.9120 C.2   800  JRS800      0.1098
     18  C3'        8.8010    1.6770   25.2500 C.3   800  JRS800      0.1343
     19  C3A       12.5800    2.2900   22.7220 C.2   800  JRS800      0.0196
     20  C4'        9.9770    1.3630   24.3090 C.3   800  JRS800      0.0531
     21  C4A       13.6070    1.9890   21.8440 C.2   800  JRS800     -0.0332
     22  C5'        9.9780   -0.1570   24.1390 C.3   800  JRS800      0.0916
     23  C5A       14.4790    0.9650   22.2080 C.3   800  JRS800      0.1001
     24  C6A       14.3200    0.2680   23.4030 C.2   800  JRS800      0.2001
     25  N6A       15.1660   -0.7410   23.7480 N.pl3 800  JRS800     -0.0977
     26  C7A       11.2970    1.8990   24.8520 C.3   800  JRS800      0.0629
     27  C8A       13.7310    2.7410   20.5180 C.3   800  JRS800      0.0269
@<TRIPOS>BOND
     1    27    21    1
     2    21    23    1
     3    21    19    2
     4    23    24    1
     5    19    17    1
     6    24    25    1
     7    24    15    2
     8    17    15    2
     9    17    26    1
    10    22    20    1
    11    22     7    1
    12    20    26    1
    13    20    18    1
    14     2     1    1
    15     2    18    1
    16     1     3    1
    17    18    16    1
    18     7    16    1
    19     3     4    1
    20     4     5    1
    21     5     6    1
    22     6     8    1
    23     9     8   ar
    24     9    10   ar
    25     8    14   ar
    26    11    10    1
    27    10    12   ar
    28    14    13   ar
    29    12    13   ar
