@<TRIPOS>MOLECULE
3nlr_H4B_A_1.pdb
 17 18 0 0 0
SMALL
GASTEIGER

@<TRIPOS>ATOM
      1  N1         9.7090    2.6730   33.8550 N.2   760  H4B760     -0.2683
      2  C2         9.8430    2.2430   32.5890 C.1   760  H4B760      0.2608
      3  N2        11.1010    2.0750   32.0730 N.pl3 760  H4B760     -0.0220
      4  N3         8.7300    1.9450   31.8840 N.2   760  H4B760     -0.2474
      5  C4         7.4770    2.0850   32.3810 C.1   760  H4B760      0.2441
      6  O4         6.4840    1.7870   31.6290 O.2   760  H4B760     -0.2063
      7  C4A        7.3250    2.5690   33.6850 C.2   760  H4B760      0.2463
      8  C8A        8.4980    2.8630   34.4150 C.1   760  H4B760      0.1270
      9  N5         6.0960    2.7800   34.2750 N.2   760  H4B760     -0.2460
     10  N8         8.4650    3.2810   35.7080 N.2   760  H4B760     -0.2054
     11  C6         6.0730    3.7540   35.3840 C.3   760  H4B760      0.1627
     12  C7         7.1920    3.5070   36.3950 C.3   760  H4B760      0.1643
     13  C9         4.6880    3.7610   36.0440 C.3   760  H4B760      0.2063
     14  O9         4.3770    2.4250   36.3880 O.3   760  H4B760     -0.2183
     15  C10        4.5700    4.5760   37.3000 C.3   760  H4B760      0.1842
     16  C11        3.1250    4.5320   37.7700 C.3   760  H4B760      0.0383
     17  O10        4.9520    5.9220   36.9840 O.3   760  H4B760     -0.2204
@<TRIPOS>BOND
     1     6     5    2
     2     4     5    2
     3     4     2    2
     4     3     2    1
     5     5     7    1
     6     2     1    2
     7     7     9    2
     8     7     8    1
     9     1     8    2
    10     9    11    1
    11     8    10    2
    12    11    13    1
    13    11    12    1
    14    10    12    1
    15    13    14    1
    16    13    15    1
    17    17    15    1
    18    15    16    1
