@<TRIPOS>MOLECULE
3nlr_HEM_A_1.pdb
 43 50 0 0 0
SMALL
GASTEIGER

@<TRIPOS>ATOM
      1  CHA       12.5640    4.9520   26.7310 C.2   750  HEM750      0.0000
      2  CHB       16.1750    1.7910   26.2310 C.2   750  HEM750      0.0000
      3  CHC       17.3680    3.4790   21.8620 C.2   750  HEM750      0.0000
      4  CHD       14.2840    7.1130   22.6140 C.2   750  HEM750      0.0000
      5  C1A       13.3610    3.8490   26.9390 C.2   750  HEM750      0.0000
      6  C2A       13.2600    2.8610   27.9640 C.2   750  HEM750      0.0000
      7  C3A       14.2240    1.9680   27.8010 C.2   750  HEM750      0.0000
      8  C4A       15.0270    2.3910   26.6870 C.2   750  HEM750      0.0000
      9  CMA       14.4620    0.7360   28.7050 C.3   750  HEM750      0.0000
     10  CAA       12.1400    2.7800   29.0280 C.3   750  HEM750      0.0000
     11  CBA       11.1890    1.9290   28.2140 C.3   750  HEM750      0.0000
     12  CGA        9.9790    1.4400   28.9170 C.2   750  HEM750      0.0000
     13  O1A       10.1460    0.5610   29.8060 O.co2 750  HEM750      0.0000
     14  O2A        8.8920    1.9380   28.5050 O.co2 750  HEM750      0.0000
     15  C1B       16.8150    1.9700   25.0340 C.ar  750  HEM750      0.0000
     16  C2B       17.9290    1.1780   24.5730 C.ar  750  HEM750      0.0000
     17  C3B       18.2590    1.6340   23.3580 C.ar  750  HEM750      0.0000
     18  C4B       17.3970    2.7460   23.0460 C.ar  750  HEM750      0.0000
     19  CMB       18.5580   -0.0220   25.3460 C.3   750  HEM750      0.0000
     20  CAB       19.3760    1.0650   22.4470 C.2   750  HEM750      0.0000
     21  CBB       19.7950    1.7030   21.3490 C.2   750  HEM750      0.0000
     22  C1C       16.5880    4.5860   21.6510 C.2   750  HEM750      0.0000
     23  C2C       16.5920    5.4180   20.4550 C.2   750  HEM750      0.0000
     24  C3C       15.7140    6.4180   20.7110 C.2   750  HEM750      0.0000
     25  C4C       15.1850    6.2610   22.0400 C.2   750  HEM750      0.0000
     26  CMC       17.4220    5.1230   19.1440 C.3   750  HEM750      0.0000
     27  CAC       15.2970    7.5990   19.8340 C.3   750  HEM750      0.0000
     28  CBC       16.1240    7.8190   18.8260 C.3   750  HEM750      0.0000
     29  C1D       13.5770    6.8490   23.7770 C.ar  750  HEM750      0.0000
     30  C2D       12.5420    7.7400   24.3050 C.ar  750  HEM750      0.0000
     31  C3D       12.0850    7.0760   25.5690 C.ar  750  HEM750      0.0000
     32  C4D       12.8090    5.8380   25.7020 C.ar  750  HEM750      0.0000
     33  CMD       12.0380    9.1200   23.7840 C.3   750  HEM750      0.0000
     34  CAD       10.9920    7.6090   26.4860 C.3   750  HEM750      0.0000
     35  CBD        9.7530    6.9850   25.8940 C.3   750  HEM750      0.0000
     36  CGD        8.5990    7.2540   26.8000 C.2   750  HEM750      0.0000
     37  O1D        8.5960    8.3910   27.4130 O.co2 750  HEM750      0.0000
     38  O2D        7.7180    6.3150   26.8630 O.co2 750  HEM750      0.0000
     39  NA        14.4750    3.5510   26.2010 N.2   750  HEM750      0.0000
     40  NB        16.5450    2.9410   24.1020 N.ar  750  HEM750      0.0000
     41  NC        15.7030    5.1160   22.5700 N.2   750  HEM750      0.0000
     42  ND        13.7360    5.7500   24.6420 N.ar  750  HEM750      0.0000
     43 FE         15.3970    4.6100   24.5510 Fe    750  HEM750      0.0000
@<TRIPOS>BOND
     1    28    27    1
     2    26    23    1
     3    27    24    1
     4    23    24    2
     5    23    22    1
     6    24    25    1
     7    21    20    2
     8    22     3    2
     9    22    41    1
    10     3    18    1
    11    25    41    2
    12    25     4    1
    13    20    17    1
    14    41    43    1
    15     4    29    2
    16    18    17   ar
    17    18    40   ar
    18    17    16   ar
    19    29    30   ar
    20    29    42   ar
    21    33    30    1
    22    40    43    1
    23    40    15   ar
    24    30    31   ar
    25    43    42    1
    26    43    39    1
    27    16    15   ar
    28    16    19    1
    29    42    32   ar
    30    15     2    1
    31    31    32   ar
    32    31    34    1
    33    32     1    2
    34    35    34    1
    35    35    36    1
    36    39     8    1
    37    39     5    2
    38     2     8    2
    39     8     7    1
    40     1     5    1
    41    36    38   ar
    42    36    37   ar
    43     5     6    1
    44     7     6    2
    45     7     9    1
    46     6    10    1
    47    11    12    1
    48    11    10    1
    49    14    12   ar
    50    12    13   ar
