@<TRIPOS>MOLECULE
3nls_016_B_1.pdb
 45 49 0 0 0
SMALL
GASTEIGER

@<TRIPOS>ATOM
      1  N30       19.7460   25.2280   17.7120 N.am  100  016100     -0.1986
      2  O30       21.3780   27.3410   17.8870 O.3   100  016100     -0.2206
      3  C31       20.6110   25.4230   16.5510 C.3   100  016100      0.1478
      4  C32       20.0590   26.0720   15.3590 C.ar  100  016100     -0.0040
      5  C33       18.8320   25.8160   14.7350 C.ar  100  016100     -0.0029
      6  C34       18.5540   26.5530   13.5790 C.ar  100  016100     -0.0003
      7  C35       21.7880   26.3440   16.9530 C.3   100  016100      0.1802
      8  C36       20.9750   26.9850   14.8670 C.ar  100  016100     -0.0218
      9  C37       20.7060   27.7300   13.7180 C.ar  100  016100     -0.0044
     10  C38       19.4820   27.4910   13.0880 C.ar  100  016100     -0.0003
     11  C39       22.2240   27.0830   15.6950 C.3   100  016100      0.0611
     12  C40       14.6200   19.7160   18.0230 C.2   100  016100      0.2859
     13  O40       15.8180   19.5520   18.0010 O.2   100  016100     -0.2693
     14  C41       13.7820   18.5200   18.4420 C.3   100  016100      0.2911
     15  O41       12.5720   18.8620   19.1110 O.3   100  016100     -0.4662
     16  C42       11.8380   17.8390   19.6690 C.ar  100  016100      0.1312
     17  C43       10.8930   17.1910   18.8970 C.ar  100  016100      0.0118
     18  C44       10.6630   17.6150   17.4690 C.3   100  016100      0.0342
     19  C45       10.1180   16.1570   19.4410 C.ar  100  016100     -0.0013
     20  C46       10.3200   15.7790   20.7720 C.ar  100  016100     -0.0004
     21  C47       11.2900   16.4260   21.5350 C.ar  100  016100     -0.0013
     22  C48       12.0410   17.4600   20.9930 C.ar  100  016100      0.0118
     23  C49       13.0760   18.1460   21.8390 C.3   100  016100      0.0342
     24  C50       17.1810   22.1380   20.0760 C.3   100  016100      0.1527
     25  N50       17.0810   23.3050   19.1640 N.am  100  016100     -0.2602
     26  O50       19.1250   23.1250   17.0860 O.2   100  016100     -0.2715
     27  S50       18.9020   21.7510   20.3710 S.3   100  016100     -0.1182
     28  C51       19.1890   23.5020   20.3540 C.3   100  016100      0.0661
     29  C52       18.7570   24.1260   21.6930 C.3   100  016100      0.0131
     30  C53       20.6840   23.7930   20.2640 C.3   100  016100      0.0131
     31  C54       18.3260   24.0270   19.1880 C.3   100  016100      0.1633
     32  C55       19.0900   24.0770   17.8780 C.2   100  016100      0.2606
     33  C60       14.6590   22.0860   17.2780 C.3   100  016100      0.1390
     34  N60       13.9880   20.8510   17.7310 N.am  100  016100     -0.2006
     35  O60       14.4200   22.5010   19.6600 O.3   100  016100     -0.2114
     36  C61       13.7300   22.6460   16.2200 C.3   100  016100      0.0511
     37  O61       16.1720   24.7500   17.6940 O.2   100  016100     -0.2720
     38  C62       13.7070   21.5890   15.1400 C.ar  100  016100     -0.0204
     39  C63       12.5910   20.7440   14.9780 C.ar  100  016100     -0.0042
     40  C64       12.6390   19.7590   13.9920 C.ar  100  016100     -0.0003
     41  C65       13.7850   19.6050   13.2030 C.ar  100  016100     -0.0000
     42  C66       14.8990   20.4340   13.3750 C.ar  100  016100     -0.0003
     43  C67       14.8560   21.4550   14.3550 C.ar  100  016100     -0.0042
     44  C68       14.7150   23.1040   18.3990 C.3   100  016100      0.2475
     45  C69       16.0540   23.7850   18.4150 C.2   100  016100      0.2589
@<TRIPOS>BOND
     1    10     6   ar
     2    10     9   ar
     3    41    42   ar
     4    41    40   ar
     5    42    43   ar
     6     6     5   ar
     7     9     8   ar
     8    40    39   ar
     9    43    38   ar
    10     5     4   ar
    11     8     4   ar
    12     8    11    1
    13    39    38   ar
    14    38    36    1
    15     4     3    1
    16    11     7    1
    17    36    33    1
    18     3     7    1
    19     3     1    1
    20     7     2    1
    21    26    32    2
    22    33    34    1
    23    33    44    1
    24    18    17    1
    25    37    45    2
    26     1    32   am
    27    34    12   am
    28    32    31    1
    29    13    12    2
    30    12    14    1
    31    44    45    1
    32    44    35    1
    33    45    25   am
    34    14    15    1
    35    17    19   ar
    36    17    16   ar
    37    15    16    1
    38    25    31    1
    39    25    24    1
    40    31    28    1
    41    19    20   ar
    42    16    22   ar
    43    24    27    1
    44    30    28    1
    45    28    27    1
    46    28    29    1
    47    20    21   ar
    48    22    21   ar
    49    22    23    1
