@<TRIPOS>MOLECULE
3nlt_HEM_A_1.pdb
 43 50 0 0 0
SMALL
GASTEIGER

@<TRIPOS>ATOM
      1  CHA        9.2750    8.9710   35.3690 C.2   500  HEM500      0.0000
      2  CHB        4.6970    8.8760   33.9610 C.2   500  HEM500      0.0000
      3  CHC        5.9830    7.2830   29.5950 C.2   500  HEM500      0.0000
      4  CHD       10.3650    6.5560   31.2610 C.2   500  HEM500      0.0000
      5  C1A        7.9460    9.2260   35.3190 C.2   500  HEM500      0.0000
      6  C2A        7.1990   10.0260   36.2540 C.2   500  HEM500      0.0000
      7  C3A        5.9150    9.9960   35.8620 C.2   500  HEM500      0.0000
      8  C4A        5.8310    9.1780   34.6700 C.2   500  HEM500      0.0000
      9  CMA        4.7460   10.7300   36.5460 C.3   500  HEM500      0.0000
     10  CAA        7.7820   10.8110   37.4600 C.3   500  HEM500      0.0000
     11  CBA        8.2890   12.1600   36.9060 C.3   500  HEM500      0.0000
     12  CGA        8.5440   13.2320   37.9480 C.2   500  HEM500      0.0000
     13  O1A        7.5520   13.6740   38.6100 O.co2 500  HEM500      0.0000
     14  O2A        9.7290   13.6690   38.0940 O.co2 500  HEM500      0.0000
     15  C1B        4.6690    8.4800   32.6520 C.ar  500  HEM500      0.0000
     16  C2B        3.4810    8.5120   31.8070 C.ar  500  HEM500      0.0000
     17  C3B        3.8460    8.0560   30.6160 C.ar  500  HEM500      0.0000
     18  C4B        5.2720    7.7460   30.6610 C.ar  500  HEM500      0.0000
     19  CMB        2.0410    8.9440   32.1720 C.3   500  HEM500      0.0000
     20  CAB        2.9200    7.9060   29.3980 C.2   500  HEM500      0.0000
     21  CBB        3.2030    6.9670   28.4970 C.2   500  HEM500      0.0000
     22  C1C        7.2900    7.0210   29.6350 C.2   500  HEM500      0.0000
     23  C2C        8.1420    6.6810   28.5080 C.2   500  HEM500      0.0000
     24  C3C        9.3700    6.5100   28.9930 C.2   500  HEM500      0.0000
     25  C4C        9.3150    6.7180   30.4150 C.2   500  HEM500      0.0000
     26  CMC        7.7530    6.5790   27.0160 C.3   500  HEM500      0.0000
     27  CAC       10.6300    6.1290   28.1850 C.2   500  HEM500      0.0000
     28  CBC       10.5850    5.1360   27.3010 C.2   500  HEM500      0.0000
     29  C1D       10.4920    7.1380   32.4930 C.ar  500  HEM500      0.0000
     30  C2D       11.7180    7.2160   33.2460 C.ar  500  HEM500      0.0000
     31  C3D       11.3800    7.9570   34.5110 C.ar  500  HEM500      0.0000
     32  C4D        9.9810    8.2760   34.3940 C.ar  500  HEM500      0.0000
     33  CMD       13.0930    6.6500   32.8780 C.3   500  HEM500      0.0000
     34  CAD       12.3500    8.3040   35.6520 C.3   500  HEM500      0.0000
     35  CBD       12.7260    9.7810   35.5490 C.3   500  HEM500      0.0000
     36  CGD       13.8270   10.0010   36.5630 C.2   500  HEM500      0.0000
     37  O1D       14.4420    8.9710   37.0030 O.co2 500  HEM500      0.0000
     38  O2D       14.0660   11.2000   36.9250 O.co2 500  HEM500      0.0000
     39  NA         7.0860    8.6960   34.3850 N.2   500  HEM500      0.0000
     40  NB         5.7320    7.9720   31.9310 N.ar  500  HEM500      0.0000
     41  NC         8.0180    7.0090   30.7830 N.2   500  HEM500      0.0000
     42  ND         9.4860    7.7310   33.2000 N.ar  500  HEM500      0.0000
     43 FE          7.5530    7.7820   32.5620 Fe    500  HEM500      0.0000
@<TRIPOS>BOND
     1    26    23    1
     2    28    27    2
     3    27    24    1
     4    21    20    2
     5    23    24    2
     6    23    22    1
     7    24    25    1
     8    20    17    1
     9     3    22    2
    10     3    18    1
    11    22    41    1
    12    25    41    2
    13    25     4    1
    14    17    18   ar
    15    17    16   ar
    16    18    40   ar
    17    41    43    1
    18     4    29    2
    19    16    19    1
    20    16    15   ar
    21    40    43    1
    22    40    15   ar
    23    29    42   ar
    24    29    30   ar
    25    43    42    1
    26    43    39    1
    27    15     2    1
    28    33    30    1
    29    42    32   ar
    30    30    31   ar
    31     2     8    2
    32    39     8    1
    33    39     5    2
    34    32    31   ar
    35    32     1    2
    36    31    34    1
    37     8     7    1
    38     5     1    1
    39     5     6    1
    40    35    34    1
    41    35    36    1
    42     7     6    2
    43     7     9    1
    44     6    10    1
    45    36    38   ar
    46    36    37   ar
    47    11    10    1
    48    11    12    1
    49    12    14   ar
    50    12    13   ar
