@<TRIPOS>MOLECULE
3nlt_3XF_A_1.pdb
 28 30 0 0 0
SMALL
GASTEIGER

@<TRIPOS>ATOM
      1  O1        11.0420   14.1030   34.7050 O.3   800  3XF800     -0.3532
      2  C2        12.4170   14.3340   34.3730 C.3   800  3XF800      0.1609
      3  C3        13.3840   13.7580   35.4240 C.3   800  3XF800      0.1209
      4  N4        13.1230   14.2170   36.7920 N.3   800  3XF800     -0.2093
      5  C5        14.1790   14.4920   37.7770 C.3   800  3XF800      0.1609
      6  C6        14.5280   15.9830   37.9390 C.3   800  3XF800      0.3100
      7  F7        13.6510   16.7480   37.2700 F     800  3XF800     -0.1967
      8  F8        14.4980   16.3090   39.2420 F     800  3XF800     -0.1967
      9  N1'        7.9570   16.0250   34.3680 N.3   800  3XF800     -0.2154
     10  N11       16.1740   15.8880   36.0010 N.2   800  3XF800     -0.2737
     11  C12       15.9410   16.3150   37.3890 C.2   800  3XF800      0.0928
     12  C13       17.1150   16.0500   38.3540 C.3   800  3XF800      0.0465
     13  C14       17.7910   14.7110   38.0570 C.3   800  3XF800      0.0082
     14  C15       18.2060   14.5970   36.5850 C.3   800  3XF800      0.0267
     15  C16       17.0060   14.7440   35.6500 C.3   800  3XF800      0.1249
     16  N1A        6.8150   12.2520   32.4790 N.2   800  3XF800     -0.3922
     17  C2'        9.1630   15.7550   35.1390 C.3   800  3XF800      0.1182
     18  C2A        8.1520   12.2580   32.3150 C.2   800  3XF800      0.0926
     19  C3'       10.1350   15.0720   34.1340 C.3   800  3XF800      0.1343
     20  C3A        8.7270   11.5450   31.2570 C.3   800  3XF800      0.0766
     21  C4'        9.2310   14.4930   33.0400 C.3   800  3XF800      0.0527
     22  C4A        7.8940   10.8480   30.3750 C.2   800  3XF800     -0.0333
     23  C5'        7.9810   15.3900   33.0520 C.3   800  3XF800      0.0916
     24  C5A        6.5120   10.8610   30.5610 C.2   800  3XF800      0.0427
     25  C6A        5.9830   11.5880   31.6390 C.2   800  3XF800      0.2178
     26  N6A        4.6360   11.6560   31.8800 N.pl3 800  3XF800     -0.0932
     27  C7A        8.9690   13.0180   33.3290 C.3   800  3XF800      0.0587
     28  C8A        8.4790   10.0930   29.2250 C.3   800  3XF800      0.0269
@<TRIPOS>BOND
     1    28    22    1
     2    22    24    2
     3    22    20    1
     4    24    25    1
     5    20    18    1
     6    25    26    1
     7    25    16    2
     8    18    16    2
     9    18    27    1
    10    21    23    1
    11    21    27    1
    12    21    19    1
    13    23     9    1
    14    19     1    1
    15    19    17    1
    16     9    17    1
    17     2     1    1
    18     2     3    1
    19     3     4    1
    20    15    10    1
    21    15    14    1
    22    10    11    2
    23    14    13    1
    24     4     5    1
    25     7     6    1
    26    11     6    1
    27    11    12    1
    28     5     6    1
    29     6     8    1
    30    13    12    1
