@<TRIPOS>MOLECULE
3nlt_H4B_A_1.pdb
 17 18 0 0 0
SMALL
GASTEIGER

@<TRIPOS>ATOM
      1  N1         8.4300   11.6080   42.8140 N.2   600  H4B600     -0.2683
      2  C2         8.3950   12.0160   41.5060 C.1   600  H4B600      0.2608
      3  N2         7.5910   11.4320   40.5810 N.pl3 600  H4B600     -0.0220
      4  N3         9.1810   13.0210   41.0940 N.2   600  H4B600     -0.2474
      5  C4         9.9990   13.6500   41.9840 C.1   600  H4B600      0.2441
      6  O4        10.7230   14.5990   41.5820 O.2   600  H4B600     -0.2063
      7  C4A       10.0360   13.2640   43.3280 C.2   600  H4B600      0.2463
      8  C8A        9.2110   12.2130   43.7300 C.1   600  H4B600      0.1270
      9  N5        10.8630   13.8840   44.2170 N.2   600  H4B600     -0.2460
     10  N8         9.2160   11.8000   45.0200 N.2   600  H4B600     -0.2054
     11  C6        11.3140   13.1120   45.3660 C.3   600  H4B600      0.1627
     12  C7        10.0850   12.4500   46.0370 C.3   600  H4B600      0.1643
     13  C9        12.1880   13.9950   46.2860 C.3   600  H4B600      0.2063
     14  O9        11.6240   15.2900   46.5700 O.3   600  H4B600     -0.2183
     15  C10       12.4940   13.4130   47.6580 C.3   600  H4B600      0.1842
     16  C11       13.2230   14.4900   48.4320 C.3   600  H4B600      0.0383
     17  O10       13.3100   12.2380   47.6110 O.3   600  H4B600     -0.2204
@<TRIPOS>BOND
     1     3     2    1
     2     4     2    2
     3     4     5    2
     4     2     1    2
     5     6     5    2
     6     5     7    1
     7     1     8    2
     8     7     8    1
     9     7     9    2
    10     8    10    2
    11     9    11    1
    12    10    12    1
    13    11    12    1
    14    11    13    1
    15    13    14    1
    16    13    15    1
    17    17    15    1
    18    15    16    1
