@<TRIPOS>MOLECULE
3nlu_H4B_A_1.pdb
 17 18 0 0 0
SMALL
GASTEIGER

@<TRIPOS>ATOM
      1  N1         8.5480   11.7000   42.8790 N.2   600  H4B600     -0.2683
      2  C2         8.4700   12.0630   41.5700 C.1   600  H4B600      0.2608
      3  N2         7.6430   11.4070   40.6950 N.pl3 600  H4B600     -0.0220
      4  N3         9.2330   13.0920   41.1380 N.2   600  H4B600     -0.2474
      5  C4        10.0490   13.7610   41.9820 C.1   600  H4B600      0.2441
      6  O4        10.7240   14.7070   41.5360 O.2   600  H4B600     -0.2063
      7  C4A       10.1260   13.4110   43.3260 C.2   600  H4B600      0.2463
      8  C8A        9.3490   12.3520   43.7390 C.1   600  H4B600      0.1270
      9  N5        10.9420   14.0450   44.2280 N.2   600  H4B600     -0.2460
     10  N8         9.4050   11.9470   45.0140 N.2   600  H4B600     -0.2054
     11  C6        11.4430   13.2350   45.3260 C.3   600  H4B600      0.1627
     12  C7        10.2410   12.5900   46.0200 C.3   600  H4B600      0.1643
     13  C9        12.3410   13.9830   46.3260 C.3   600  H4B600      0.2063
     14  O9        11.7560   15.2110   46.7590 O.3   600  H4B600     -0.2183
     15  C10       12.6070   13.1380   47.5750 C.3   600  H4B600      0.1842
     16  C11       13.6470   13.7820   48.4760 C.3   600  H4B600      0.0383
     17  O10       13.0620   11.8240   47.1970 O.3   600  H4B600     -0.2204
@<TRIPOS>BOND
     1     3     2    1
     2     4     2    2
     3     4     5    2
     4     6     5    2
     5     2     1    2
     6     5     7    1
     7     1     8    2
     8     7     8    1
     9     7     9    2
    10     8    10    2
    11     9    11    1
    12    10    12    1
    13    11    12    1
    14    11    13    1
    15    13    14    1
    16    13    15    1
    17    17    15    1
    18    15    16    1
