@<TRIPOS>MOLECULE
3nlu_HEM_A_1.pdb
 43 50 0 0 0
SMALL
GASTEIGER

@<TRIPOS>ATOM
      1  CHA        9.1440    8.8520   35.2890 C.2   500  HEM500      0.0000
      2  CHB        4.5730    8.9160   33.8680 C.2   500  HEM500      0.0000
      3  CHC        6.0080    7.2350   29.6150 C.2   500  HEM500      0.0000
      4  CHD       10.4240    6.4070   31.2610 C.2   500  HEM500      0.0000
      5  C1A        7.8050    9.1540   35.2620 C.2   500  HEM500      0.0000
      6  C2A        7.0450    9.9770   36.1860 C.2   500  HEM500      0.0000
      7  C3A        5.7610    9.9960   35.7980 C.2   500  HEM500      0.0000
      8  C4A        5.6970    9.1860   34.6020 C.2   500  HEM500      0.0000
      9  CMA        4.5770   10.7610   36.4940 C.3   500  HEM500      0.0000
     10  CAA        7.6010   10.7210   37.4090 C.3   500  HEM500      0.0000
     11  CBA        8.5160   11.8070   36.8410 C.3   500  HEM500      0.0000
     12  CGA        8.6540   13.0830   37.6510 C.2   500  HEM500      0.0000
     13  O1A        7.7740   13.4190   38.4970 O.co2 500  HEM500      0.0000
     14  O2A        9.6650   13.7880   37.3990 O.co2 500  HEM500      0.0000
     15  C1B        4.5580    8.4990   32.5680 C.ar  500  HEM500      0.0000
     16  C2B        3.4060    8.4870   31.6870 C.ar  500  HEM500      0.0000
     17  C3B        3.8230    7.9970   30.5220 C.ar  500  HEM500      0.0000
     18  C4B        5.2360    7.7120   30.6310 C.ar  500  HEM500      0.0000
     19  CMB        1.9610    8.9140   32.0180 C.3   500  HEM500      0.0000
     20  CAB        2.9860    7.7880   29.2490 C.2   500  HEM500      0.0000
     21  CBB        3.3490    6.8030   28.4190 C.2   500  HEM500      0.0000
     22  C1C        7.3310    6.9520   29.6660 C.2   500  HEM500      0.0000
     23  C2C        8.1410    6.5950   28.5250 C.2   500  HEM500      0.0000
     24  C3C        9.3690    6.3700   28.9800 C.2   500  HEM500      0.0000
     25  C4C        9.3780    6.5720   30.4110 C.2   500  HEM500      0.0000
     26  CMC        7.7040    6.5050   27.0490 C.3   500  HEM500      0.0000
     27  CAC       10.5560    5.9630   28.1050 C.2   500  HEM500      0.0000
     28  CBC       10.4270    4.9120   27.2960 C.2   500  HEM500      0.0000
     29  C1D       10.5010    7.0210   32.4800 C.ar  500  HEM500      0.0000
     30  C2D       11.7180    7.1610   33.2450 C.ar  500  HEM500      0.0000
     31  C3D       11.3130    7.9080   34.4900 C.ar  500  HEM500      0.0000
     32  C4D        9.8980    8.1720   34.3490 C.ar  500  HEM500      0.0000
     33  CMD       13.1240    6.6500   32.8790 C.3   500  HEM500      0.0000
     34  CAD       12.2570    8.3380   35.6230 C.3   500  HEM500      0.0000
     35  CBD       12.7200    9.7190   35.1530 C.3   500  HEM500      0.0000
     36  CGD       13.8650   10.3240   35.9190 C.2   500  HEM500      0.0000
     37  O1D       14.4620    9.6310   36.7940 O.co2 500  HEM500      0.0000
     38  O2D       14.1630   11.5210   35.6340 O.co2 500  HEM500      0.0000
     39  NA         6.9490    8.6840   34.3160 N.2   500  HEM500      0.0000
     40  NB         5.6520    7.9990   31.9020 N.ar  500  HEM500      0.0000
     41  NC         8.1050    6.9050   30.8080 N.2   500  HEM500      0.0000
     42  ND         9.4500    7.6100   33.1570 N.ar  500  HEM500      0.0000
     43 FE          7.5630    7.7450   32.5520 Fe    500  HEM500      0.0000
@<TRIPOS>BOND
     1    26    23    1
     2    28    27    2
     3    27    24    1
     4    21    20    2
     5    23    24    2
     6    23    22    1
     7    24    25    1
     8    20    17    1
     9     3    22    2
    10     3    18    1
    11    22    41    1
    12    25    41    2
    13    25     4    1
    14    17    18   ar
    15    17    16   ar
    16    18    40   ar
    17    41    43    1
    18     4    29    2
    19    16    19    1
    20    16    15   ar
    21    40    43    1
    22    40    15   ar
    23    29    42   ar
    24    29    30   ar
    25    43    42    1
    26    43    39    1
    27    15     2    1
    28    33    30    1
    29    42    32   ar
    30    30    31   ar
    31     2     8    2
    32    39     8    1
    33    39     5    2
    34    32    31   ar
    35    32     1    2
    36    31    34    1
    37     8     7    1
    38    35    34    1
    39    35    36    1
    40     5     1    1
    41     5     6    1
    42    38    36   ar
    43     7     6    2
    44     7     9    1
    45    36    37   ar
    46     6    10    1
    47    11    10    1
    48    11    12    1
    49    14    12   ar
    50    12    13   ar
