@<TRIPOS>MOLECULE
3nlu_3XB_A_1.pdb
 29 31 0 0 0
SMALL
GASTEIGER

@<TRIPOS>ATOM
      1  C1        11.0720   16.3720   34.7640 C.3   800  3XB800      0.1609
      2  O1        11.9050   15.7150   35.7090 O.3   800  3XB800     -0.3532
      3  C2        10.6410   15.3000   33.7890 C.3   800  3XB800      0.1209
      4  N2         9.9470   14.2150   34.4560 N.3   800  3XB800     -0.2094
      5  C3         9.2480   13.2160   33.6720 C.3   800  3XB800      0.1596
      6  C4         8.3670   13.8320   32.5730 C.3   800  3XB800      0.2985
      7  F5         9.0960   14.5180   31.7130 F     800  3XB800     -0.1980
      8  F6         7.5220   14.7360   33.0530 F     800  3XB800     -0.1980
      9  N1'       11.2300   15.4010   38.7550 N.3   800  3XB800     -0.2154
     10  C11        7.6590   12.7270   31.8290 C.ar  800  3XB800      0.0414
     11  C12        8.3250   11.9980   30.8410 C.ar  800  3XB800      0.0306
     12  C13        7.6410   11.0080   30.1530 C.ar  800  3XB800      0.1400
     13  F13        8.2420   10.2930   29.2040 F     800  3XB800     -0.2042
     14  C14        6.3150   10.7400   30.4430 C.ar  800  3XB800      0.0296
     15  C15        5.6440   11.4660   31.4190 C.ar  800  3XB800      0.0022
     16  C16        6.3240   12.4590   32.1100 C.ar  800  3XB800      0.0011
     17  N1A       15.6220   13.0980   37.2940 N.2   800  3XB800     -0.3924
     18  C2'       10.9840   16.5080   37.8470 C.3   800  3XB800      0.1182
     19  C2A       15.2750   14.4090   37.2720 C.2   800  3XB800      0.1098
     20  C3'       12.1780   16.4720   36.8910 C.3   800  3XB800      0.1343
     21  C3A       16.0620   15.3880   37.8640 C.2   800  3XB800      0.0196
     22  C4'       13.2720   15.6980   37.6050 C.3   800  3XB800      0.0531
     23  C4A       17.2360   15.0020   38.4840 C.2   800  3XB800     -0.0332
     24  C5'       12.5810   14.8640   38.6730 C.3   800  3XB800      0.0916
     25  C5A       17.5940   13.6460   38.5060 C.3   800  3XB800      0.1001
     26  C6A       16.7680   12.6870   37.8920 C.2   800  3XB800      0.2001
     27  N6A       17.0880   11.3640   37.8830 N.pl3 800  3XB800     -0.0977
     28  C7A       14.0060   14.8180   36.6120 C.3   800  3XB800      0.0629
     29  C8A       18.0850   16.0690   39.1160 C.3   800  3XB800      0.0269
@<TRIPOS>BOND
     1    13    12    1
     2    12    14   ar
     3    12    11   ar
     4    14    15   ar
     5    11    10   ar
     6    15    16   ar
     7     7     6    1
     8    10    16   ar
     9    10     6    1
    10     6     8    1
    11     6     5    1
    12     5     4    1
    13     3     4    1
    14     3     1    1
    15     1     2    1
    16     2    20    1
    17    28    19    1
    18    28    22    1
    19    20    22    1
    20    20    18    1
    21    19    17    2
    22    19    21    1
    23    17    26    2
    24    22    24    1
    25    18     9    1
    26    21    23    2
    27    27    26    1
    28    26    25    1
    29    23    25    1
    30    23    29    1
    31    24     9    1
