@<TRIPOS>MOLECULE
3nlv_H4B_A_1.pdb
 17 18 0 0 0
SMALL
GASTEIGER

@<TRIPOS>ATOM
      1  N1         9.8210    2.5990   33.8460 N.2   760  H4B760     -0.2683
      2  C2         9.9640    2.1950   32.5670 C.1   760  H4B760      0.2608
      3  N2        11.2320    2.0580   32.0580 N.pl3 760  H4B760     -0.0220
      4  N3         8.8620    1.9550   31.8170 N.2   760  H4B760     -0.2474
      5  C4         7.6020    2.0770   32.3140 C.1   760  H4B760      0.2441
      6  O4         6.6090    1.8340   31.5660 O.2   760  H4B760     -0.2063
      7  C4A        7.4490    2.5050   33.6400 C.2   760  H4B760      0.2463
      8  C8A        8.6060    2.7670   34.3910 C.1   760  H4B760      0.1270
      9  N5         6.2340    2.6500   34.2300 N.2   760  H4B760     -0.2460
     10  N8         8.5590    3.1260   35.7030 N.2   760  H4B760     -0.2054
     11  C6         6.1920    3.5930   35.3620 C.3   760  H4B760      0.1627
     12  C7         7.2880    3.3020   36.3970 C.3   760  H4B760      0.1643
     13  C9         4.8260    3.6770   36.0180 C.3   760  H4B760      0.2063
     14  O9         4.4880    2.3490   36.4070 O.3   760  H4B760     -0.2183
     15  C10        4.8040    4.5670   37.2430 C.3   760  H4B760      0.1842
     16  C11        3.3920    4.6160   37.8330 C.3   760  H4B760      0.0383
     17  O10        5.1750    5.9070   36.9190 O.3   760  H4B760     -0.2204
@<TRIPOS>BOND
     1     6     5    2
     2     4     5    2
     3     4     2    2
     4     3     2    1
     5     5     7    1
     6     2     1    2
     7     7     9    2
     8     7     8    1
     9     1     8    2
    10     9    11    1
    11     8    10    2
    12    11    13    1
    13    11    12    1
    14    10    12    1
    15    13    14    1
    16    13    15    1
    17    17    15    1
    18    15    16    1
