@<TRIPOS>MOLECULE
3nlv_HEM_A_1.pdb
 43 50 0 0 0
SMALL
GASTEIGER

@<TRIPOS>ATOM
      1  CHA       12.9540    4.8110   26.5140 C.2   750  HEM750      0.0000
      2  CHB       16.7350    1.7860   26.1800 C.2   750  HEM750      0.0000
      3  CHC       17.7420    3.5700   21.7830 C.2   750  HEM750      0.0000
      4  CHD       14.7170    7.2920   22.6670 C.2   750  HEM750      0.0000
      5  C1A       13.7810    3.7300   26.7050 C.2   750  HEM750      0.0000
      6  C2A       13.5650    2.6570   27.6550 C.2   750  HEM750      0.0000
      7  C3A       14.6070    1.8220   27.5940 C.2   750  HEM750      0.0000
      8  C4A       15.5150    2.3150   26.5640 C.2   750  HEM750      0.0000
      9  CMA       14.8050    0.5360   28.4290 C.3   750  HEM750      0.0000
     10  CAA       12.3320    2.5500   28.5760 C.3   750  HEM750      0.0000
     11  CBA       11.2000    2.0260   27.6900 C.3   750  HEM750      0.0000
     12  CGA       10.0290    1.5140   28.4730 C.2   750  HEM750      0.0000
     13  O1A       10.1880    1.0880   29.6550 O.co2 750  HEM750      0.0000
     14  O2A        8.9070    1.5430   27.8970 O.co2 750  HEM750      0.0000
     15  C1B       17.3260    1.9640   24.9600 C.ar  750  HEM750      0.0000
     16  C2B       18.3880    1.1610   24.3940 C.ar  750  HEM750      0.0000
     17  C3B       18.6550    1.6480   23.1840 C.ar  750  HEM750      0.0000
     18  C4B       17.7960    2.7990   22.9390 C.ar  750  HEM750      0.0000
     19  CMB       19.0880   -0.0720   25.0630 C.3   750  HEM750      0.0000
     20  CAB       19.7240    1.0390   22.2380 C.2   750  HEM750      0.0000
     21  CBB       20.4000    1.7280   21.3140 C.2   750  HEM750      0.0000
     22  C1C       16.9560    4.7030   21.5950 C.2   750  HEM750      0.0000
     23  C2C       16.8950    5.5050   20.3990 C.2   750  HEM750      0.0000
     24  C3C       16.0630    6.5320   20.6550 C.2   750  HEM750      0.0000
     25  C4C       15.5800    6.4170   22.0150 C.2   750  HEM750      0.0000
     26  CMC       17.6390    5.1940   19.0650 C.3   750  HEM750      0.0000
     27  CAC       15.6280    7.6790   19.7260 C.2   750  HEM750      0.0000
     28  CBC       16.3560    8.0510   18.6640 C.2   750  HEM750      0.0000
     29  C1D       13.9010    6.9660   23.7440 C.ar  750  HEM750      0.0000
     30  C2D       12.7470    7.6950   24.1980 C.ar  750  HEM750      0.0000
     31  C3D       12.2390    6.9130   25.3890 C.ar  750  HEM750      0.0000
     32  C4D       13.0950    5.7810   25.5380 C.ar  750  HEM750      0.0000
     33  CMD       12.1260    9.0180   23.6480 C.3   750  HEM750      0.0000
     34  CAD       10.9920    7.2540   26.2340 C.3   750  HEM750      0.0000
     35  CBD        9.8830    6.4660   25.5330 C.3   750  HEM750      0.0000
     36  CGD        8.5920    6.6720   26.2630 C.2   750  HEM750      0.0000
     37  O1D        8.4370    7.7230   26.9380 O.co2 750  HEM750      0.0000
     38  O2D        7.7470    5.7660   26.1940 O.co2 750  HEM750      0.0000
     39  NA        15.0080    3.5210   26.1040 N.2   750  HEM750      0.0000
     40  NB        17.0330    3.0030   24.0790 N.ar  750  HEM750      0.0000
     41  NC        16.1910    5.3220   22.5630 N.2   750  HEM750      0.0000
     42  ND        14.1190    5.8870   24.6010 N.ar  750  HEM750      0.0000
     43 FE         15.6780    4.4760   24.4000 Fe    750  HEM750      0.0000
@<TRIPOS>BOND
     1    28    27    2
     2    26    23    1
     3    27    24    1
     4    23    24    2
     5    23    22    1
     6    24    25    1
     7    21    20    2
     8    22     3    2
     9    22    41    1
    10     3    18    1
    11    25    41    2
    12    25     4    1
    13    20    17    1
    14    41    43    1
    15     4    29    2
    16    18    17   ar
    17    18    40   ar
    18    17    16   ar
    19    33    30    1
    20    29    30   ar
    21    29    42   ar
    22    40    43    1
    23    40    15   ar
    24    30    31   ar
    25    16    15   ar
    26    16    19    1
    27    43    42    1
    28    43    39    1
    29    42    32   ar
    30    15     2    1
    31    31    32   ar
    32    31    34    1
    33    35    34    1
    34    35    36    1
    35    32     1    2
    36    39     8    1
    37    39     5    2
    38     2     8    2
    39    38    36   ar
    40    36    37   ar
    41     1     5    1
    42     8     7    1
    43     5     6    1
    44     7     6    2
    45     7     9    1
    46     6    10    1
    47    11    12    1
    48    11    10    1
    49    14    12   ar
    50    12    13   ar
