@<TRIPOS>MOLECULE
3nlv_3XA_A_1.pdb
 29 31 0 0 0
SMALL
GASTEIGER

@<TRIPOS>ATOM
      1  O1         8.4790    1.5750   24.8710 O.3   800  3XA800     -0.3532
      2  C2         7.2840    2.1320   24.3560 C.3   800  3XA800      0.1609
      3  C3         6.3140    2.1570   25.5070 C.3   800  3XA800      0.1209
      4  N4         6.4430    3.4270   26.1930 N.3   800  3XA800     -0.2094
      5  C5         5.5360    3.7720   27.2690 C.3   800  3XA800      0.1596
      6  C6         4.0970    3.7250   26.7630 C.3   800  3XA800      0.2985
      7  F7         4.0350    4.1630   25.5180 F     800  3XA800     -0.1980
      8  F8         3.6840    2.4650   26.8170 F     800  3XA800     -0.1980
      9  N1'        9.8050   -1.7180   24.9630 N.3   800  3XA800     -0.2154
     10  C11        3.2140    4.5850   27.6150 C.ar  800  3XA800      0.0414
     11  C12        3.7390    5.7070   28.2480 C.ar  800  3XA800      0.0306
     12  C13        2.9090    6.4950   29.0430 C.ar  800  3XA800      0.1400
     13  F13        3.4190    7.5750   29.6630 F     800  3XA800     -0.2042
     14  C14        1.5570    6.1650   29.1940 C.ar  800  3XA800      0.0296
     15  C15        1.0280    5.0430   28.5540 C.ar  800  3XA800      0.0022
     16  C16        1.8640    4.2550   27.7650 C.ar  800  3XA800      0.0011
     17  N1A       13.3750    0.2190   23.9440 N.2   800  3XA800     -0.3922
     18  C2'        8.8130   -0.7890   25.4830 C.3   800  3XA800      0.1182
     19  C2A       12.4360    1.1120   23.5350 C.2   800  3XA800      0.0926
     20  C3'        8.7240    0.2660   24.3710 C.3   800  3XA800      0.1343
     21  C3A       12.7140    1.9330   22.4320 C.3   800  3XA800      0.0766
     22  C4'       10.0640    0.2440   23.6350 C.3   800  3XA800      0.0527
     23  C4A       13.9280    1.8290   21.7480 C.2   800  3XA800     -0.0333
     24  C5'       10.4630   -1.2300   23.7360 C.3   800  3XA800      0.0916
     25  C5A       14.8760    0.9050   22.1940 C.2   800  3XA800      0.0427
     26  C6A       14.5620    0.1090   23.3110 C.2   800  3XA800      0.2178
     27  N6A       15.4200   -0.8160   23.7810 N.pl3 800  3XA800     -0.0932
     28  C7A       11.0990    1.1850   24.2710 C.3   800  3XA800      0.0587
     29  C8A       14.2160    2.7260   20.5600 C.3   800  3XA800      0.0269
@<TRIPOS>BOND
     1    29    23    1
     2    23    25    2
     3    23    21    1
     4    25    26    1
     5    21    19    1
     6    26    27    1
     7    26    17    2
     8    19    17    2
     9    19    28    1
    10    22    24    1
    11    22    28    1
    12    22    20    1
    13    24     9    1
    14     2     1    1
    15     2     3    1
    16    20     1    1
    17    20    18    1
    18     9    18    1
    19     3     4    1
    20     7     6    1
    21     4     5    1
    22     6     8    1
    23     6     5    1
    24     6    10    1
    25    10    16   ar
    26    10    11   ar
    27    16    15   ar
    28    11    12   ar
    29    15    14   ar
    30    12    14   ar
    31    12    13    1
