@<TRIPOS>MOLECULE
3nlw_3XF_A_1.pdb
 28 30 0 0 0
SMALL
GASTEIGER

@<TRIPOS>ATOM
      1  O1         8.2790    1.6010   24.9470 O.3   800  3XF800     -0.3532
      2  C2         7.0820    2.1090   24.3690 C.3   800  3XF800      0.1609
      3  C3         6.7250    3.3890   25.0980 C.3   800  3XF800      0.1209
      4  N4         6.1040    3.1350   26.3820 N.3   800  3XF800     -0.2097
      5  C5         5.0320    4.0060   26.8320 C.3   800  3XF800      0.1566
      6  C6         3.8650    3.1520   27.3190 C.3   800  3XF800      0.2940
      7  F7         3.7560    2.0700   26.5660 F     800  3XF800     -0.2013
      8  F8         4.1050    2.7780   28.5650 F     800  3XF800     -0.2013
      9  N1'        9.7120   -1.6560   24.8840 N.3   800  3XF800     -0.2154
     10  N11        2.6290    5.2160   27.8820 N.3   800  3XF800     -0.2139
     11  C12        2.5450    3.9180   27.2260 C.3   800  3XF800      0.1352
     12  C13        1.3380    3.1000   27.7230 C.3   800  3XF800      0.0231
     13  C14        0.0080    3.8550   27.6100 C.3   800  3XF800      0.0031
     14  C15        0.1420    5.3790   27.7500 C.3   800  3XF800      0.0189
     15  C16        1.4310    5.8180   28.4550 C.3   800  3XF800      0.0889
     16  N1A       13.2370    0.2590   23.9950 N.2   800  3XF800     -0.3924
     17  C2'        8.7150   -0.7670   25.4630 C.3   800  3XF800      0.1182
     18  C2A       12.3100    1.1620   23.6020 C.2   800  3XF800      0.1098
     19  C3'        8.5880    0.3330   24.3890 C.3   800  3XF800      0.1343
     20  C3A       12.5770    1.9880   22.5130 C.2   800  3XF800      0.0196
     21  C4'        9.9230    0.3630   23.6470 C.3   800  3XF800      0.0531
     22  C4A       13.7660    1.8940   21.8220 C.2   800  3XF800     -0.0332
     23  C5'       10.3310   -1.1120   23.6620 C.3   800  3XF800      0.0916
     24  C5A       14.7150    0.9530   22.2380 C.3   800  3XF800      0.1001
     25  C6A       14.4140    0.1470   23.3520 C.2   800  3XF800      0.2001
     26  N6A       15.2680   -0.7880   23.7890 N.pl3 800  3XF800     -0.0977
     27  C7A       10.9660    1.2720   24.3250 C.3   800  3XF800      0.0629
     28  C8A       13.9890    2.8250   20.6370 C.3   800  3XF800      0.0269
@<TRIPOS>BOND
     1    28    22    1
     2    22    24    1
     3    22    20    2
     4    24    25    1
     5    20    18    1
     6    25    26    1
     7    25    16    2
     8    18    16    2
     9    18    27    1
    10    21    23    1
    11    21    27    1
    12    21    19    1
    13    23     9    1
    14     2     1    1
    15     2     3    1
    16    19     1    1
    17    19    17    1
    18     9    17    1
    19     3     4    1
    20     4     5    1
    21     7     6    1
    22     5     6    1
    23    11     6    1
    24    11    12    1
    25    11    10    1
    26     6     8    1
    27    13    12    1
    28    13    14    1
    29    14    15    1
    30    10    15    1
