@<TRIPOS>MOLECULE
3nlw_HEM_A_1.pdb
 43 50 0 0 0
SMALL
GASTEIGER

@<TRIPOS>ATOM
      1  CHA       12.8620    4.6820   26.5180 C.2   750  HEM750      0.0000
      2  CHB       16.7070    1.7610   26.1390 C.2   750  HEM750      0.0000
      3  CHC       17.6650    3.5450   21.7510 C.2   750  HEM750      0.0000
      4  CHD       14.5980    7.2230   22.6960 C.2   750  HEM750      0.0000
      5  C1A       13.7200    3.6280   26.6850 C.2   750  HEM750      0.0000
      6  C2A       13.5520    2.5460   27.6280 C.2   750  HEM750      0.0000
      7  C3A       14.6080    1.7380   27.5410 C.2   750  HEM750      0.0000
      8  C4A       15.4840    2.2750   26.5140 C.2   750  HEM750      0.0000
      9  CMA       14.8830    0.4450   28.3570 C.3   750  HEM750      0.0000
     10  CAA       12.3380    2.3920   28.5680 C.3   750  HEM750      0.0000
     11  CBA       11.2100    1.8840   27.6830 C.3   750  HEM750      0.0000
     12  CGA       10.0480    1.3990   28.4980 C.2   750  HEM750      0.0000
     13  O1A       10.2620    1.0240   29.6910 O.co2 750  HEM750      0.0000
     14  O2A        8.9100    1.3920   27.9240 O.co2 750  HEM750      0.0000
     15  C1B       17.2770    1.9310   24.9080 C.ar  750  HEM750      0.0000
     16  C2B       18.3420    1.1320   24.3390 C.ar  750  HEM750      0.0000
     17  C3B       18.6090    1.6190   23.1250 C.ar  750  HEM750      0.0000
     18  C4B       17.7320    2.7600   22.8950 C.ar  750  HEM750      0.0000
     19  CMB       19.0240   -0.1000   25.0240 C.3   750  HEM750      0.0000
     20  CAB       19.6590    1.0010   22.1620 C.2   750  HEM750      0.0000
     21  CBB       20.3500    1.6580   21.2300 C.2   750  HEM750      0.0000
     22  C1C       16.8750    4.6780   21.5980 C.2   750  HEM750      0.0000
     23  C2C       16.8170    5.4940   20.4080 C.2   750  HEM750      0.0000
     24  C3C       15.9850    6.5130   20.6780 C.2   750  HEM750      0.0000
     25  C4C       15.4720    6.3680   22.0340 C.2   750  HEM750      0.0000
     26  CMC       17.5790    5.2010   19.0740 C.3   750  HEM750      0.0000
     27  CAC       15.5570    7.6650   19.7410 C.2   750  HEM750      0.0000
     28  CBC       16.2840    7.9980   18.6680 C.2   750  HEM750      0.0000
     29  C1D       13.7810    6.8830   23.7760 C.ar  750  HEM750      0.0000
     30  C2D       12.6210    7.5980   24.2690 C.ar  750  HEM750      0.0000
     31  C3D       12.1350    6.7940   25.4470 C.ar  750  HEM750      0.0000
     32  C4D       13.0030    5.6730   25.5620 C.ar  750  HEM750      0.0000
     33  CMD       11.9580    8.9200   23.7750 C.3   750  HEM750      0.0000
     34  CAD       10.8970    7.0980   26.3060 C.3   750  HEM750      0.0000
     35  CBD        9.7510    6.3360   25.6190 C.3   750  HEM750      0.0000
     36  CGD        8.4820    6.6260   26.3580 C.2   750  HEM750      0.0000
     37  O1D        8.4440    7.6390   27.1110 O.co2 750  HEM750      0.0000
     38  O2D        7.5260    5.8280   26.2270 O.co2 750  HEM750      0.0000
     39  NA        14.9360    3.4660   26.0670 N.2   750  HEM750      0.0000
     40  NB        16.9710    2.9620   24.0430 N.ar  750  HEM750      0.0000
     41  NC        16.0860    5.2670   22.5800 N.2   750  HEM750      0.0000
     42  ND        14.0070    5.7970   24.6030 N.ar  750  HEM750      0.0000
     43 FE         15.5890    4.4320   24.3840 Fe    750  HEM750      0.0000
@<TRIPOS>BOND
     1    28    27    2
     2    26    23    1
     3    27    24    1
     4    23    24    2
     5    23    22    1
     6    24    25    1
     7    21    20    2
     8    22     3    2
     9    22    41    1
    10     3    18    1
    11    25    41    2
    12    25     4    1
    13    20    17    1
    14    41    43    1
    15     4    29    2
    16    18    17   ar
    17    18    40   ar
    18    17    16   ar
    19    33    30    1
    20    29    30   ar
    21    29    42   ar
    22    40    43    1
    23    40    15   ar
    24    30    31   ar
    25    16    15   ar
    26    16    19    1
    27    43    42    1
    28    43    39    1
    29    42    32   ar
    30    15     2    1
    31    31    32   ar
    32    31    34    1
    33    32     1    2
    34    35    34    1
    35    35    36    1
    36    39     8    1
    37    39     5    2
    38     2     8    2
    39    38    36   ar
    40    36    37   ar
    41     8     7    1
    42     1     5    1
    43     5     6    1
    44     7     6    2
    45     7     9    1
    46     6    10    1
    47    11    12    1
    48    11    10    1
    49    14    12   ar
    50    12    13   ar
