@<TRIPOS>MOLECULE
3nlw_H4B_A_1.pdb
 17 18 0 0 0
SMALL
GASTEIGER

@<TRIPOS>ATOM
      1  N1         9.7720    2.5710   33.8290 N.2   760  H4B760     -0.2683
      2  C2         9.9300    2.2020   32.5460 C.1   760  H4B760      0.2608
      3  N2        11.2000    2.0880   32.0680 N.pl3 760  H4B760     -0.0220
      4  N3         8.8300    1.9810   31.7640 N.2   760  H4B760     -0.2474
      5  C4         7.5720    2.1010   32.2610 C.1   760  H4B760      0.2441
      6  O4         6.5920    1.8740   31.4960 O.2   760  H4B760     -0.2063
      7  C4A        7.4020    2.4950   33.6010 C.2   760  H4B760      0.2463
      8  C8A        8.5550    2.7290   34.3720 C.1   760  H4B760      0.1270
      9  N5         6.1800    2.6330   34.1850 N.2   760  H4B760     -0.2460
     10  N8         8.5140    3.0710   35.6880 N.2   760  H4B760     -0.2054
     11  C6         6.1300    3.5330   35.3480 C.3   760  H4B760      0.1627
     12  C7         7.2270    3.2370   36.3690 C.3   760  H4B760      0.1643
     13  C9         4.7620    3.5990   36.0120 C.3   760  H4B760      0.2063
     14  O9         4.4490    2.2720   36.4540 O.3   760  H4B760     -0.2183
     15  C10        4.7130    4.5830   37.1860 C.3   760  H4B760      0.1842
     16  C11        3.2890    4.7490   37.6870 C.3   760  H4B760      0.0383
     17  O10        5.2070    5.8870   36.8290 O.3   760  H4B760     -0.2204
@<TRIPOS>BOND
     1     6     5    2
     2     4     5    2
     3     4     2    2
     4     3     2    1
     5     5     7    1
     6     2     1    2
     7     7     9    2
     8     7     8    1
     9     1     8    2
    10     9    11    1
    11     8    10    2
    12    11    13    1
    13    11    12    1
    14    10    12    1
    15    13    14    1
    16    13    15    1
    17    17    15    1
    18    15    16    1
