@<TRIPOS>MOLECULE
3nlx_HEM_A_1.pdb
 43 50 0 0 0
SMALL
GASTEIGER

@<TRIPOS>ATOM
      1  CHA       13.2630    4.8150   26.4200 C.2   750  HEM750      0.0000
      2  CHB       16.9960    1.7230   25.9620 C.2   750  HEM750      0.0000
      3  CHC       17.9100    3.6740   21.6630 C.2   750  HEM750      0.0000
      4  CHD       14.8900    7.3660   22.5940 C.2   750  HEM750      0.0000
      5  C1A       14.1110    3.7380   26.5820 C.2   750  HEM750      0.0000
      6  C2A       13.9250    2.6780   27.5390 C.2   750  HEM750      0.0000
      7  C3A       14.9380    1.8030   27.4440 C.2   750  HEM750      0.0000
      8  C4A       15.8230    2.2930   26.3990 C.2   750  HEM750      0.0000
      9  CMA       15.1250    0.5180   28.2980 C.3   750  HEM750      0.0000
     10  CAA       12.7050    2.6090   28.4610 C.3   750  HEM750      0.0000
     11  CBA       11.6870    1.9870   27.5000 C.3   750  HEM750      0.0000
     12  CGA       10.4330    1.4970   28.1360 C.2   750  HEM750      0.0000
     13  O1A       10.4720    1.1240   29.3320 O.co2 750  HEM750      0.0000
     14  O2A        9.4060    1.4790   27.4230 O.co2 750  HEM750      0.0000
     15  C1B       17.5560    1.9800   24.7510 C.ar  750  HEM750      0.0000
     16  C2B       18.6290    1.2110   24.1590 C.ar  750  HEM750      0.0000
     17  C3B       18.9030    1.7250   22.9710 C.ar  750  HEM750      0.0000
     18  C4B       18.0010    2.8550   22.7630 C.ar  750  HEM750      0.0000
     19  CMB       19.3090   -0.0030   24.8290 C.3   750  HEM750      0.0000
     20  CAB       19.9980    1.1220   22.0530 C.2   750  HEM750      0.0000
     21  CBB       20.5650    1.7730   21.0350 C.2   750  HEM750      0.0000
     22  C1C       17.1370    4.8070   21.5140 C.2   750  HEM750      0.0000
     23  C2C       17.1050    5.6600   20.3390 C.2   750  HEM750      0.0000
     24  C3C       16.2650    6.6860   20.5940 C.2   750  HEM750      0.0000
     25  C4C       15.7610    6.5170   21.9340 C.2   750  HEM750      0.0000
     26  CMC       17.8720    5.3630   19.0290 C.3   750  HEM750      0.0000
     27  CAC       15.8610    7.8750   19.6830 C.2   750  HEM750      0.0000
     28  CBC       16.6060    8.2290   18.6270 C.2   750  HEM750      0.0000
     29  C1D       14.1100    7.0130   23.6810 C.ar  750  HEM750      0.0000
     30  C2D       12.9500    7.7370   24.1360 C.ar  750  HEM750      0.0000
     31  C3D       12.4380    6.9330   25.3320 C.ar  750  HEM750      0.0000
     32  C4D       13.3400    5.8150   25.4710 C.ar  750  HEM750      0.0000
     33  CMD       12.3780    9.0580   23.5380 C.3   750  HEM750      0.0000
     34  CAD       11.1830    7.2270   26.1940 C.3   750  HEM750      0.0000
     35  CBD       10.1040    6.4860   25.3860 C.3   750  HEM750      0.0000
     36  CGD        8.6900    6.6680   25.8960 C.2   750  HEM750      0.0000
     37  O1D        8.3530    7.6960   26.5390 O.co2 750  HEM750      0.0000
     38  O2D        7.8820    5.7420   25.6620 O.co2 750  HEM750      0.0000
     39  NA        15.2870    3.4720   25.9020 N.2   750  HEM750      0.0000
     40  NB        17.2120    3.0000   23.8800 N.ar  750  HEM750      0.0000
     41  NC        16.3020    5.3650   22.4540 N.2   750  HEM750      0.0000
     42  ND        14.3110    5.8970   24.4930 N.ar  750  HEM750      0.0000
     43 FE         16.0150    4.6560   24.3800 Fe    750  HEM750      0.0000
@<TRIPOS>BOND
     1    28    27    2
     2    26    23    1
     3    27    24    1
     4    23    24    2
     5    23    22    1
     6    24    25    1
     7    21    20    2
     8    22     3    2
     9    22    41    1
    10     3    18    1
    11    25    41    2
    12    25     4    1
    13    20    17    1
    14    41    43    1
    15     4    29    2
    16    18    17   ar
    17    18    40   ar
    18    17    16   ar
    19    33    30    1
    20    29    30   ar
    21    29    42   ar
    22    40    43    1
    23    40    15   ar
    24    30    31   ar
    25    16    15   ar
    26    16    19    1
    27    43    42    1
    28    43    39    1
    29    42    32   ar
    30    15     2    1
    31    31    32   ar
    32    31    34    1
    33    35    36    1
    34    35    34    1
    35    32     1    2
    36    38    36   ar
    37    36    37   ar
    38    39     8    1
    39    39     5    2
    40     2     8    2
    41     8     7    1
    42     1     5    1
    43     5     6    1
    44    14    12   ar
    45     7     6    2
    46     7     9    1
    47    11    12    1
    48    11    10    1
    49     6    10    1
    50    12    13   ar
