@<TRIPOS>MOLECULE
3nlx_3XB_A_1.pdb
 29 31 0 0 0
SMALL
GASTEIGER

@<TRIPOS>ATOM
      1  C1         6.9260    0.3370   24.7180 C.3   800  3XB800      0.1609
      2  O1         6.7580    1.4080   25.6500 O.3   800  3XB800     -0.3532
      3  C2         8.1380    0.6710   23.8490 C.3   800  3XB800      0.1209
      4  N2         9.3670    0.3610   24.5700 N.3   800  3XB800     -0.2094
      5  C3        10.6420    0.9020   24.1420 C.3   800  3XB800      0.1596
      6  C4        11.1080    0.0850   22.9380 C.3   800  3XB800      0.2985
      7  F5        10.3620    0.3610   21.8810 F     800  3XB800     -0.1980
      8  F6        10.9720   -1.2180   23.1680 F     800  3XB800     -0.1980
      9  N1'        6.9960    1.5840   28.5500 N.3   800  3XB800     -0.2154
     10  C11       12.5270    0.4740   22.6050 C.ar  800  3XB800      0.0414
     11  C12       12.7280    1.3110   21.5140 C.ar  800  3XB800      0.0306
     12  C13       14.0160    1.6930   21.1570 C.ar  800  3XB800      0.1400
     13  F13       14.1860    2.5050   20.0970 F     800  3XB800     -0.2042
     14  C14       15.0970    1.2330   21.8970 C.ar  800  3XB800      0.0296
     15  C15       14.9150    0.3950   22.9990 C.ar  800  3XB800      0.0022
     16  C16       13.6180    0.0110   23.3540 C.ar  800  3XB800      0.0011
     17  N1A        5.3660    5.9680   26.7470 N.2   800  3XB800     -0.3924
     18  C2'        6.3670    0.4750   27.8550 C.3   800  3XB800      0.1182
     19  C2A        4.5540    4.8810   26.7440 C.2   800  3XB800      0.1098
     20  C3'        5.7690    1.1680   26.6410 C.3   800  3XB800      0.1343
     21  C3A        3.2780    4.9520   27.2930 C.2   800  3XB800      0.0196
     22  C4'        5.3120    2.5180   27.1880 C.3   800  3XB800      0.0531
     23  C4A        2.8670    6.1530   27.8690 C.2   800  3XB800     -0.0332
     24  C5'        6.4020    2.8680   28.1930 C.3   800  3XB800      0.0916
     25  C5A        3.7220    7.2530   27.8610 C.3   800  3XB800      0.1001
     26  C6A        4.9910    7.1450   27.2940 C.2   800  3XB800      0.2001
     27  N6A        5.8450    8.2070   27.2760 N.pl3 800  3XB800     -0.0977
     28  C7A        5.0350    3.5890   26.1150 C.3   800  3XB800      0.0629
     29  C8A        1.4840    6.2580   28.4790 C.3   800  3XB800      0.0269
@<TRIPOS>BOND
     1    13    12    1
     2    12    11   ar
     3    12    14   ar
     4    11    10   ar
     5     7     6    1
     6    14    15   ar
     7    10     6    1
     8    10    16   ar
     9     6     8    1
    10     6     5    1
    11    15    16   ar
    12     3     4    1
    13     3     1    1
    14     5     4    1
    15     1     2    1
    16     2    20    1
    17    28    19    1
    18    28    22    1
    19    20    22    1
    20    20    18    1
    21    19    17    2
    22    19    21    1
    23    17    26    2
    24    22    24    1
    25    27    26    1
    26    21    23    2
    27    26    25    1
    28    18     9    1
    29    25    23    1
    30    23    29    1
    31    24     9    1
