@<TRIPOS>MOLECULE
3nlx_H4B_A_1.pdb
 17 18 0 0 0
SMALL
GASTEIGER

@<TRIPOS>ATOM
      1  N1        10.0230    2.5690   33.6140 N.2   760  H4B760     -0.2683
      2  C2        10.1940    2.2400   32.3030 C.1   760  H4B760      0.2608
      3  N2        11.4540    2.1300   31.8000 N.pl3 760  H4B760     -0.0220
      4  N3         9.1080    1.9750   31.5340 N.2   760  H4B760     -0.2474
      5  C4         7.8500    2.0800   32.0450 C.1   760  H4B760      0.2441
      6  O4         6.8600    1.7990   31.3140 O.2   760  H4B760     -0.2063
      7  C4A        7.6710    2.4460   33.3880 C.2   760  H4B760      0.2463
      8  C8A        8.7990    2.6980   34.1600 C.1   760  H4B760      0.1270
      9  N5         6.4380    2.5700   33.9690 N.2   760  H4B760     -0.2460
     10  N8         8.7050    3.0850   35.4660 N.2   760  H4B760     -0.2054
     11  C6         6.3290    3.4700   35.1320 C.3   760  H4B760      0.1627
     12  C7         7.4140    3.1910   36.1670 C.3   760  H4B760      0.1643
     13  C9         4.9360    3.4940   35.7530 C.3   760  H4B760      0.2063
     14  O9         4.5490    2.1610   36.1160 O.3   760  H4B760     -0.2183
     15  C10        4.8470    4.3760   37.0070 C.3   760  H4B760      0.1842
     16  C11        3.3820    4.4940   37.4060 C.3   760  H4B760      0.0383
     17  O10        5.3100    5.7050   36.7010 O.3   760  H4B760     -0.2204
@<TRIPOS>BOND
     1     6     5    2
     2     4     5    2
     3     4     2    2
     4     3     2    1
     5     5     7    1
     6     2     1    2
     7     7     9    2
     8     7     8    1
     9     1     8    2
    10     9    11    1
    11     8    10    2
    12    11    13    1
    13    11    12    1
    14    10    12    1
    15    13    14    1
    16    13    15    1
    17    17    15    1
    18    15    16    1
