@<TRIPOS>MOLECULE
3nly_3XC_A_1.pdb
 29 31 0 0 0
SMALL
GASTEIGER

@<TRIPOS>ATOM
      1  C1         7.3610    0.0740   25.1640 C.3   800  3XC800      0.1609
      2  O1         6.7360    1.2580   25.6830 O.3   800  3XC800     -0.3532
      3  C2         8.3370    0.4910   24.0730 C.3   800  3XC800      0.1209
      4  N2         9.5320    1.1100   24.6320 N.3   800  3XC800     -0.2094
      5  C3        10.7310    0.8340   23.9050 C.3   800  3XC800      0.1596
      6  C4        11.7930    1.8360   24.3540 C.3   800  3XC800      0.2984
      7  F5        11.3000    3.0800   24.3940 F     800  3XC800     -0.1980
      8  F6        12.1670    1.5550   25.5900 F     800  3XC800     -0.1980
      9  N1'        7.1950    1.8910   28.5840 N.3   800  3XC800     -0.2154
     10  C11       12.9750    1.6140   23.4380 C.ar  800  3XC800      0.0393
     11  C12       13.1970    2.4210   22.3260 C.ar  800  3XC800      0.0033
     12  C13       14.2900    2.1270   21.5250 C.ar  800  3XC800      0.0295
     13  C14       15.1540    1.0630   21.8380 C.ar  800  3XC800      0.1401
     14  F14       16.2280    0.8160   21.0440 F     800  3XC800     -0.2042
     15  C15       14.9360    0.2510   22.9520 C.ar  800  3XC800      0.0295
     16  C16       13.8330    0.5320   23.7270 C.ar  800  3XC800      0.0033
     17  N1A        5.2400    5.5990   26.7170 N.2   800  3XC800     -0.3922
     18  C2'        6.8470    0.6010   28.0350 C.3   800  3XC800      0.1182
     19  C2A        4.3910    4.5340   26.7010 C.2   800  3XC800      0.0926
     20  C3'        5.9520    0.9850   26.8530 C.3   800  3XC800      0.1343
     21  C3A        3.0990    4.6440   27.2360 C.3   800  3XC800      0.0766
     22  C4'        5.2450    2.2760   27.2800 C.3   800  3XC800      0.0527
     23  C4A        2.7130    5.8800   27.7660 C.2   800  3XC800     -0.0333
     24  C5'        6.2050    2.9240   28.2760 C.3   800  3XC800      0.0916
     25  C5A        3.6090    6.9650   27.7650 C.2   800  3XC800      0.0427
     26  C6A        4.8870    6.8070   27.2290 C.2   800  3XC800      0.2178
     27  N6A        5.7820    7.8490   27.2170 N.pl3 800  3XC800     -0.0932
     28  C7A        4.8820    3.2190   26.1170 C.3   800  3XC800      0.0587
     29  C8A        1.3130    6.0510   28.3450 C.3   800  3XC800      0.0269
@<TRIPOS>BOND
     1    14    13    1
     2    12    13   ar
     3    12    11   ar
     4    13    15   ar
     5    11    10   ar
     6    15    16   ar
     7    10    16   ar
     8    10     6    1
     9     5     6    1
    10     5     4    1
    11     3     4    1
    12     3     1    1
    13     6     7    1
    14     6     8    1
    15     1     2    1
    16     2    20    1
    17    28    19    1
    18    28    22    1
    19    19    17    2
    20    19    21    1
    21    17    26    2
    22    20    22    1
    23    20    18    1
    24    27    26    1
    25    26    25    1
    26    21    23    1
    27    22    24    1
    28    25    23    2
    29    23    29    1
    30    18     9    1
    31    24     9    1
