@<TRIPOS>MOLECULE
3nly_HEM_A_1.pdb
 43 50 0 0 0
SMALL
GASTEIGER

@<TRIPOS>ATOM
      1  CHA       12.9580    4.9160   26.5330 C.2   750  HEM750      0.0000
      2  CHB       16.6520    1.8480   26.1460 C.2   750  HEM750      0.0000
      3  CHC       17.6370    3.5730   21.7530 C.2   750  HEM750      0.0000
      4  CHD       14.7430    7.3470   22.6420 C.2   750  HEM750      0.0000
      5  C1A       13.7950    3.8580   26.7850 C.2   750  HEM750      0.0000
      6  C2A       13.6860    2.8680   27.8170 C.2   750  HEM750      0.0000
      7  C3A       14.7190    2.0270   27.6980 C.2   750  HEM750      0.0000
      8  C4A       15.4960    2.4580   26.5790 C.2   750  HEM750      0.0000
      9  CMA       15.0790    0.7880   28.5620 C.3   750  HEM750      0.0000
     10  CAA       12.5720    2.8110   28.8780 C.3   750  HEM750      0.0000
     11  CBA       11.2140    2.8250   28.1840 C.3   750  HEM750      0.0000
     12  CGA       10.4750    1.5170   28.3300 C.2   750  HEM750      0.0000
     13  O1A       10.7020    0.7960   29.3300 O.co2 750  HEM750      0.0000
     14  O2A        9.6300    1.2120   27.4610 O.co2 750  HEM750      0.0000
     15  C1B       17.2300    2.0170   24.9330 C.ar  750  HEM750      0.0000
     16  C2B       18.3780    1.2620   24.4180 C.ar  750  HEM750      0.0000
     17  C3B       18.6420    1.7260   23.2080 C.ar  750  HEM750      0.0000
     18  C4B       17.7320    2.8360   22.9270 C.ar  750  HEM750      0.0000
     19  CMB       19.1070    0.0680   25.0930 C.3   750  HEM750      0.0000
     20  CAB       19.7710    1.1320   22.3390 C.2   750  HEM750      0.0000
     21  CBB       20.3000    1.7930   21.3310 C.2   750  HEM750      0.0000
     22  C1C       16.9240    4.7410   21.5610 C.2   750  HEM750      0.0000
     23  C2C       16.9210    5.5740   20.3640 C.2   750  HEM750      0.0000
     24  C3C       16.1100    6.6220   20.6130 C.2   750  HEM750      0.0000
     25  C4C       15.5890    6.4810   21.9620 C.2   750  HEM750      0.0000
     26  CMC       17.7080    5.2180   19.0560 C.3   750  HEM750      0.0000
     27  CAC       15.7590    7.8280   19.6940 C.2   750  HEM750      0.0000
     28  CBC       16.4230    8.0180   18.5350 C.2   750  HEM750      0.0000
     29  C1D       13.9620    7.0240   23.7480 C.ar  750  HEM750      0.0000
     30  C2D       12.8020    7.7470   24.1630 C.ar  750  HEM750      0.0000
     31  C3D       12.2700    6.9740   25.3550 C.ar  750  HEM750      0.0000
     32  C4D       13.1400    5.8530   25.5280 C.ar  750  HEM750      0.0000
     33  CMD       12.2280    9.0630   23.5700 C.3   750  HEM750      0.0000
     34  CAD       11.0190    7.2660   26.2050 C.3   750  HEM750      0.0000
     35  CBD        9.9500    6.4620   25.4530 C.3   750  HEM750      0.0000
     36  CGD        8.5800    6.7560   25.9980 C.2   750  HEM750      0.0000
     37  O1D        8.3610    7.9000   26.4990 O.co2 750  HEM750      0.0000
     38  O2D        7.7400    5.8150   25.9480 O.co2 750  HEM750      0.0000
     39  NA        14.9070    3.5910   26.0400 N.2   750  HEM750      0.0000
     40  NB        16.8870    3.0030   24.0230 N.ar  750  HEM750      0.0000
     41  NC        16.0850    5.3060   22.4820 N.2   750  HEM750      0.0000
     42  ND        14.1490    5.9190   24.5740 N.ar  750  HEM750      0.0000
     43 FE         15.8260    4.7320   24.4360 Fe    750  HEM750      0.0000
@<TRIPOS>BOND
     1    28    27    2
     2    26    23    1
     3    27    24    1
     4    23    24    2
     5    23    22    1
     6    24    25    1
     7    21    20    2
     8    22     3    2
     9    22    41    1
    10     3    18    1
    11    25    41    2
    12    25     4    1
    13    20    17    1
    14    41    43    1
    15     4    29    2
    16    18    17   ar
    17    18    40   ar
    18    17    16   ar
    19    33    30    1
    20    29    30   ar
    21    29    42   ar
    22    40    43    1
    23    40    15   ar
    24    30    31   ar
    25    16    15   ar
    26    16    19    1
    27    43    42    1
    28    43    39    1
    29    42    32   ar
    30    15     2    1
    31    31    32   ar
    32    31    34    1
    33    35    36    1
    34    35    34    1
    35    32     1    2
    36    38    36   ar
    37    36    37   ar
    38    39     8    1
    39    39     5    2
    40     2     8    2
    41     1     5    1
    42     8     7    1
    43     5     6    1
    44    14    12   ar
    45     7     6    2
    46     7     9    1
    47     6    10    1
    48    11    12    1
    49    11    10    1
    50    12    13   ar
