@<TRIPOS>MOLECULE
3nly_H4B_A_1.pdb
 17 18 0 0 0
SMALL
GASTEIGER

@<TRIPOS>ATOM
      1  N1         9.9600    2.5640   33.6740 N.2   760  H4B760     -0.2683
      2  C2        10.1250    2.2150   32.3920 C.1   760  H4B760      0.2608
      3  N2        11.3740    2.0960   31.8530 N.pl3 760  H4B760     -0.0220
      4  N3         9.0480    2.0010   31.6320 N.2   760  H4B760     -0.2474
      5  C4         7.8040    2.0910   32.1010 C.1   760  H4B760      0.2441
      6  O4         6.8610    1.8200   31.3150 O.2   760  H4B760     -0.2063
      7  C4A        7.6150    2.4680   33.4270 C.2   760  H4B760      0.2463
      8  C8A        8.7370    2.7220   34.1980 C.1   760  H4B760      0.1270
      9  N5         6.3780    2.6120   33.9780 N.2   760  H4B760     -0.2460
     10  N8         8.6540    3.0850   35.5050 N.2   760  H4B760     -0.2054
     11  C6         6.3040    3.5230   35.1130 C.3   760  H4B760      0.1627
     12  C7         7.3600    3.2110   36.1610 C.3   760  H4B760      0.1643
     13  C9         4.9310    3.6240   35.7360 C.3   760  H4B760      0.2063
     14  O9         4.4800    2.3140   36.0860 O.3   760  H4B760     -0.2183
     15  C10        4.9940    4.5230   36.9550 C.3   760  H4B760      0.1842
     16  C11        3.6130    4.8150   37.5200 C.3   760  H4B760      0.0383
     17  O10        5.6300    5.7510   36.5740 O.3   760  H4B760     -0.2204
@<TRIPOS>BOND
     1     6     5    2
     2     4     5    2
     3     4     2    2
     4     3     2    1
     5     5     7    1
     6     2     1    2
     7     7     9    2
     8     7     8    1
     9     1     8    2
    10     9    11    1
    11     8    10    2
    12    11    13    1
    13    11    12    1
    14    10    12    1
    15    13    14    1
    16    13    15    1
    17    17    15    1
    18    15    16    1
