@<TRIPOS>MOLECULE
3nlz_H4B_A_1.pdb
 17 18 0 0 0
SMALL
GASTEIGER

@<TRIPOS>ATOM
      1  N1         9.9400    2.5860   33.5170 N.2   760  H4B760     -0.2683
      2  C2        10.0850    2.2630   32.2020 C.1   760  H4B760      0.2608
      3  N2        11.3420    2.1630   31.6570 N.pl3 760  H4B760     -0.0220
      4  N3         8.9910    2.0520   31.4340 N.2   760  H4B760     -0.2474
      5  C4         7.7350    2.1420   31.9650 C.1   760  H4B760      0.2441
      6  O4         6.7570    1.8830   31.2170 O.2   760  H4B760     -0.2063
      7  C4A        7.5790    2.4810   33.3100 C.2   760  H4B760      0.2463
      8  C8A        8.7230    2.7100   34.0810 C.1   760  H4B760      0.1270
      9  N5         6.3530    2.5950   33.9180 N.2   760  H4B760     -0.2460
     10  N8         8.6420    3.0760   35.3950 N.2   760  H4B760     -0.2054
     11  C6         6.2700    3.4980   35.0580 C.3   760  H4B760      0.1627
     12  C7         7.3430    3.1690   36.0820 C.3   760  H4B760      0.1643
     13  C9         4.8610    3.5410   35.6510 C.3   760  H4B760      0.2063
     14  O9         4.4760    2.1870   35.9770 O.3   760  H4B760     -0.2183
     15  C10        4.8090    4.4450   36.8810 C.3   760  H4B760      0.1842
     16  C11        3.3640    4.5800   37.3490 C.3   760  H4B760      0.0383
     17  O10        5.2780    5.7730   36.5410 O.3   760  H4B760     -0.2204
@<TRIPOS>BOND
     1     6     5    2
     2     4     5    2
     3     4     2    2
     4     3     2    1
     5     5     7    1
     6     2     1    2
     7     7     9    2
     8     7     8    1
     9     1     8    2
    10     9    11    1
    11     8    10    2
    12    11    13    1
    13    11    12    1
    14    10    12    1
    15    13    14    1
    16    13    15    1
    17    17    15    1
    18    15    16    1
