@<TRIPOS>MOLECULE
3nlz_HEM_A_1.pdb
 43 50 0 0 0
SMALL
GASTEIGER

@<TRIPOS>ATOM
      1  CHA       13.1030    4.8570   26.3460 C.2   750  HEM750      0.0000
      2  CHB       16.8290    1.7570   25.8520 C.2   750  HEM750      0.0000
      3  CHC       17.7510    3.6320   21.5180 C.2   750  HEM750      0.0000
      4  CHD       14.7970    7.3560   22.5180 C.2   750  HEM750      0.0000
      5  C1A       13.9440    3.7920   26.4910 C.2   750  HEM750      0.0000
      6  C2A       13.7430    2.7220   27.4330 C.2   750  HEM750      0.0000
      7  C3A       14.7470    1.8460   27.3130 C.2   750  HEM750      0.0000
      8  C4A       15.6480    2.3500   26.2810 C.2   750  HEM750      0.0000
      9  CMA       14.9510    0.5290   28.1280 C.3   750  HEM750      0.0000
     10  CAA       12.5160    2.6660   28.3470 C.3   750  HEM750      0.0000
     11  CBA       11.5330    1.9280   27.4360 C.3   750  HEM750      0.0000
     12  CGA       10.2800    1.4990   28.1100 C.2   750  HEM750      0.0000
     13  O1A       10.3400    1.1450   29.3170 O.co2 750  HEM750      0.0000
     14  O2A        9.2290    1.4910   27.4160 O.co2 750  HEM750      0.0000
     15  C1B       17.4190    1.9790   24.6330 C.ar  750  HEM750      0.0000
     16  C2B       18.5270    1.2440   24.0770 C.ar  750  HEM750      0.0000
     17  C3B       18.7920    1.7480   22.8790 C.ar  750  HEM750      0.0000
     18  C4B       17.8690    2.8440   22.6380 C.ar  750  HEM750      0.0000
     19  CMB       19.2390    0.0630   24.7610 C.3   750  HEM750      0.0000
     20  CAB       19.9110    1.1860   21.9780 C.2   750  HEM750      0.0000
     21  CBB       20.4140    1.8020   20.9120 C.2   750  HEM750      0.0000
     22  C1C       17.0130    4.7980   21.3920 C.2   750  HEM750      0.0000
     23  C2C       16.9890    5.6610   20.2370 C.2   750  HEM750      0.0000
     24  C3C       16.1770    6.6970   20.5230 C.2   750  HEM750      0.0000
     25  C4C       15.6750    6.5180   21.8590 C.2   750  HEM750      0.0000
     26  CMC       17.7560    5.3580   18.9120 C.3   750  HEM750      0.0000
     27  CAC       15.7890    7.9090   19.6430 C.2   750  HEM750      0.0000
     28  CBC       16.3690    8.1320   18.4530 C.2   750  HEM750      0.0000
     29  C1D       13.9930    7.0210   23.5990 C.ar  750  HEM750      0.0000
     30  C2D       12.8630    7.7660   24.0760 C.ar  750  HEM750      0.0000
     31  C3D       12.3700    6.9800   25.2790 C.ar  750  HEM750      0.0000
     32  C4D       13.2270    5.8400   25.3950 C.ar  750  HEM750      0.0000
     33  CMD       12.2930    9.1060   23.5370 C.3   750  HEM750      0.0000
     34  CAD       11.1470    7.2500   26.1510 C.3   750  HEM750      0.0000
     35  CBD       10.0810    6.4800   25.3300 C.3   750  HEM750      0.0000
     36  CGD        8.6660    6.6690   25.8340 C.2   750  HEM750      0.0000
     37  O1D        8.3710    7.7220   26.4620 O.co2 750  HEM750      0.0000
     38  O2D        7.8180    5.7720   25.5890 O.co2 750  HEM750      0.0000
     39  NA        15.1150    3.5370   25.8000 N.2   750  HEM750      0.0000
     40  NB        17.0610    2.9690   23.7370 N.ar  750  HEM750      0.0000
     41  NC        16.1750    5.3360   22.3380 N.2   750  HEM750      0.0000
     42  ND        14.1760    5.8930   24.4080 N.ar  750  HEM750      0.0000
     43 FE         15.9090    4.6690   24.2820 Fe    750  HEM750      0.0000
@<TRIPOS>BOND
     1    28    27    2
     2    26    23    1
     3    27    24    1
     4    23    24    2
     5    23    22    1
     6    24    25    1
     7    21    20    2
     8    22     3    2
     9    22    41    1
    10     3    18    1
    11    25    41    2
    12    25     4    1
    13    20    17    1
    14    41    43    1
    15     4    29    2
    16    18    17   ar
    17    18    40   ar
    18    17    16   ar
    19    33    30    1
    20    29    30   ar
    21    29    42   ar
    22    40    43    1
    23    40    15   ar
    24    30    31   ar
    25    16    15   ar
    26    16    19    1
    27    43    42    1
    28    43    39    1
    29    42    32   ar
    30    15     2    1
    31    31    32   ar
    32    31    34    1
    33    35    36    1
    34    35    34    1
    35    32     1    2
    36    38    36   ar
    37    39     8    1
    38    39     5    2
    39    36    37   ar
    40     2     8    2
    41     8     7    1
    42     1     5    1
    43     5     6    1
    44     7     6    2
    45     7     9    1
    46    14    12   ar
    47     6    10    1
    48    11    12    1
    49    11    10    1
    50    12    13   ar
