@<TRIPOS>MOLECULE
3nlz_3XD_A_1.pdb
 28 30 0 0 0
SMALL
GASTEIGER

@<TRIPOS>ATOM
      1  C1         6.7050    0.4150   24.5290 C.3   800  3XD800      0.1609
      2  O1         6.6390    1.3880   25.5630 O.3   800  3XD800     -0.3532
      3  C2         7.9370    0.7190   23.6910 C.3   800  3XD800      0.1209
      4  N2         9.1380    0.4370   24.4590 N.3   800  3XD800     -0.2094
      5  C3        10.4150    0.9830   24.0350 C.3   800  3XD800      0.1596
      6  C4        10.8940    0.2100   22.8040 C.3   800  3XD800      0.2984
      7  F5        10.1060    0.4590   21.7680 F     800  3XD800     -0.1980
      8  F6        10.8100   -1.0790   23.0950 F     800  3XD800     -0.1980
      9  N1'        6.7800    1.5720   28.4300 N.3   800  3XD800     -0.2154
     10  C11       12.3110    0.6250   22.4540 C.ar  800  3XD800      0.0392
     11  C12       12.5440    1.4890   21.3870 C.ar  800  3XD800      0.0010
     12  C13       13.8450    1.8820   21.0540 C.ar  800  3XD800     -0.0002
     13  C14       14.9060    1.3990   21.8210 C.ar  800  3XD800     -0.0000
     14  C15       14.6950    0.5400   22.8940 C.ar  800  3XD800     -0.0002
     15  C16       13.3910    0.1480   23.2070 C.ar  800  3XD800      0.0010
     16  N1A        5.2620    5.9910   26.5660 N.2   800  3XD800     -0.3924
     17  C2'        6.1590    0.4620   27.7380 C.3   800  3XD800      0.1182
     18  C2A        4.4480    4.8920   26.5910 C.2   800  3XD800      0.1098
     19  C3'        5.5920    1.1560   26.5080 C.3   800  3XD800      0.1343
     20  C3A        3.1970    4.9490   27.2080 C.2   800  3XD800      0.0196
     21  C4'        5.1390    2.5210   27.0310 C.3   800  3XD800      0.0531
     22  C4A        2.8010    6.1450   27.8030 C.2   800  3XD800     -0.0332
     23  C5'        6.2230    2.8740   28.0570 C.3   800  3XD800      0.0916
     24  C5A        3.6520    7.2560   27.7600 C.3   800  3XD800      0.1001
     25  C6A        4.8980    7.1770   27.1310 C.2   800  3XD800      0.2001
     26  N6A        5.7300    8.2720   27.0770 N.pl3 800  3XD800     -0.0977
     27  C7A        4.9080    3.5960   25.9460 C.3   800  3XD800      0.0629
     28  C8A        1.4530    6.2330   28.4840 C.3   800  3XD800      0.0269
@<TRIPOS>BOND
     1    12    11   ar
     2    12    13   ar
     3    11    10   ar
     4     7     6    1
     5    13    14   ar
     6    10     6    1
     7    10    15   ar
     8     6     8    1
     9     6     5    1
    10    14    15   ar
    11     3     4    1
    12     3     1    1
    13     5     4    1
    14     1     2    1
    15     2    19    1
    16    27    18    1
    17    27    21    1
    18    19    21    1
    19    19    17    1
    20    16    18    2
    21    16    25    2
    22    18    20    1
    23    21    23    1
    24    26    25    1
    25    25    24    1
    26    20    22    2
    27    17     9    1
    28    24    22    1
    29    22    28    1
    30    23     9    1
