@<TRIPOS>MOLECULE
3nm0_3XE_A_1.pdb
 28 30 0 0 0
SMALL
GASTEIGER

@<TRIPOS>ATOM
      1  C1         6.5010    0.6740   24.3860 C.3   800  3XE800      0.1609
      2  O1         6.6060    1.3870   25.6120 O.3   800  3XE800     -0.3532
      3  C2         7.8110    0.8980   23.6410 C.3   800  3XE800      0.1209
      4  N2         8.9570    0.5070   24.4500 N.3   800  3XE800     -0.2094
      5  C3        10.2860    1.0370   24.1700 C.3   800  3XE800      0.1596
      6  C4        10.9040    0.2030   23.0570 C.3   800  3XE800      0.2984
      7  F5        10.2280    0.4150   21.9400 F     800  3XE800     -0.1980
      8  F6        10.7630   -1.0820   23.3530 F     800  3XE800     -0.1980
      9  N1'        6.6740    1.3190   28.6020 N.3   800  3XE800     -0.2154
     10  C11       12.3560    0.5710   22.8370 C.ar  800  3XE800      0.0392
     11  C12       12.6820    1.6210   21.9750 C.ar  800  3XE800      0.0010
     12  C13       14.0220    1.9490   21.7550 C.ar  800  3XE800     -0.0002
     13  C14       15.0240    1.2240   22.3980 C.ar  800  3XE800     -0.0000
     14  C15       14.7240    0.1710   23.2650 C.ar  800  3XE800     -0.0002
     15  C16       13.3800   -0.1450   23.4730 C.ar  800  3XE800      0.0010
     16  N1A        5.2250    6.0010   26.7870 N.2   800  3XE800     -0.3970
     17  C2'        6.1430    0.2990   27.7250 C.3   800  3XE800      0.1182
     18  C2A        4.5370    4.8430   26.9570 C.2   800  3XE800      0.0881
     19  C3'        5.5720    1.1080   26.5560 C.3   800  3XE800      0.1343
     20  C3A        3.0220    5.0020   27.0040 C.3   800  3XE800      0.0549
     21  C4'        5.1390    2.4390   27.1740 C.3   800  3XE800      0.0527
     22  C4A        2.7800    6.0070   28.1200 C.3   800  3XE800      0.0152
     23  C5'        6.1650    2.6560   28.2910 C.3   800  3XE800      0.0916
     24  C5A        3.5050    7.3320   27.8540 C.3   800  3XE800      0.0784
     25  C6A        4.7620    7.2090   27.2320 C.2   800  3XE800      0.1957
     26  N6A        5.5090    8.3480   27.0530 N.pl3 800  3XE800     -0.0980
     27  C7A        5.0330    3.6220   26.1900 C.3   800  3XE800      0.0583
     28  C8A        1.2920    6.2210   28.3830 C.3   800  3XE800      0.0009
@<TRIPOS>BOND
     1    12    11   ar
     2    12    13   ar
     3     7     6    1
     4    11    10   ar
     5    13    14   ar
     6    10     6    1
     7    10    15   ar
     8     6     8    1
     9     6     5    1
    10    14    15   ar
    11     3     1    1
    12     3     4    1
    13     5     4    1
    14     1     2    1
    15     2    19    1
    16    27    18    1
    17    27    21    1
    18    19    21    1
    19    19    17    1
    20    16    18    2
    21    16    25    2
    22    18    20    1
    23    20    22    1
    24    26    25    1
    25    21    23    1
    26    25    24    1
    27    17     9    1
    28    24    22    1
    29    22    28    1
    30    23     9    1
