@<TRIPOS>MOLECULE
3nm0_HEM_A_1.pdb
 43 50 0 0 0
SMALL
GASTEIGER

@<TRIPOS>ATOM
      1  CHA       13.1650    4.8230   26.4860 C.2   750  HEM750      0.0000
      2  CHB       16.9190    1.7860   26.0250 C.2   750  HEM750      0.0000
      3  CHC       17.8190    3.6800   21.6930 C.2   750  HEM750      0.0000
      4  CHD       14.7860    7.3420   22.6100 C.2   750  HEM750      0.0000
      5  C1A       14.0100    3.7480   26.6130 C.2   750  HEM750      0.0000
      6  C2A       13.7550    2.6360   27.4890 C.2   750  HEM750      0.0000
      7  C3A       14.7760    1.7830   27.3840 C.2   750  HEM750      0.0000
      8  C4A       15.7170    2.3310   26.4110 C.2   750  HEM750      0.0000
      9  CMA       14.9160    0.4470   28.1580 C.3   750  HEM750      0.0000
     10  CAA       12.4950    2.5130   28.3690 C.3   750  HEM750      0.0000
     11  CBA       11.4840    1.7540   27.4990 C.3   750  HEM750      0.0000
     12  CGA       10.1670    1.5040   28.1810 C.2   750  HEM750      0.0000
     13  O1A       10.1830    1.1830   29.3940 O.co2 750  HEM750      0.0000
     14  O2A        9.1090    1.5840   27.4940 O.co2 750  HEM750      0.0000
     15  C1B       17.4810    1.9830   24.7990 C.ar  750  HEM750      0.0000
     16  C2B       18.5100    1.1790   24.1840 C.ar  750  HEM750      0.0000
     17  C3B       18.7650    1.6970   22.9840 C.ar  750  HEM750      0.0000
     18  C4B       17.9070    2.8660   22.8080 C.ar  750  HEM750      0.0000
     19  CMB       19.1640   -0.0780   24.8270 C.3   750  HEM750      0.0000
     20  CAB       19.8010    1.0510   22.0280 C.2   750  HEM750      0.0000
     21  CBB       20.4890    1.6870   21.0860 C.2   750  HEM750      0.0000
     22  C1C       17.0410    4.8100   21.5240 C.2   750  HEM750      0.0000
     23  C2C       16.9950    5.6380   20.3360 C.2   750  HEM750      0.0000
     24  C3C       16.1530    6.6580   20.5760 C.2   750  HEM750      0.0000
     25  C4C       15.6550    6.5090   21.9320 C.2   750  HEM750      0.0000
     26  CMC       17.7440    5.3130   19.0090 C.3   750  HEM750      0.0000
     27  CAC       15.7420    7.8370   19.6480 C.2   750  HEM750      0.0000
     28  CBC       16.4600    8.1600   18.5530 C.2   750  HEM750      0.0000
     29  C1D       14.0300    6.9740   23.7170 C.ar  750  HEM750      0.0000
     30  C2D       12.8640    7.6750   24.1890 C.ar  750  HEM750      0.0000
     31  C3D       12.3650    6.9000   25.3830 C.ar  750  HEM750      0.0000
     32  C4D       13.2580    5.7880   25.5190 C.ar  750  HEM750      0.0000
     33  CMD       12.2700    9.0000   23.6240 C.3   750  HEM750      0.0000
     34  CAD       11.1080    7.2240   26.2350 C.3   750  HEM750      0.0000
     35  CBD       10.0430    6.4400   25.4590 C.3   750  HEM750      0.0000
     36  CGD        8.6480    6.6110   26.0190 C.2   750  HEM750      0.0000
     37  O1D        8.3650    7.6670   26.6300 O.co2 750  HEM750      0.0000
     38  O2D        7.8120    5.6880   25.8340 O.co2 750  HEM750      0.0000
     39  NA        15.2440    3.5810   26.0130 N.2   750  HEM750      0.0000
     40  NB        17.1980    3.0630   23.9790 N.ar  750  HEM750      0.0000
     41  NC        16.2360    5.3890   22.4890 N.2   750  HEM750      0.0000
     42  ND        14.2770    5.8920   24.5610 N.ar  750  HEM750      0.0000
     43 FE         15.8340    4.5600   24.3600 Fe    750  HEM750      0.0000
@<TRIPOS>BOND
     1    28    27    2
     2    26    23    1
     3    27    24    1
     4    23    24    2
     5    23    22    1
     6    24    25    1
     7    21    20    2
     8    22     3    2
     9    22    41    1
    10     3    18    1
    11    25    41    2
    12    25     4    1
    13    20    17    1
    14    41    43    1
    15     4    29    2
    16    18    17   ar
    17    18    40   ar
    18    17    16   ar
    19    33    30    1
    20    29    30   ar
    21    29    42   ar
    22    40    43    1
    23    40    15   ar
    24    16    15   ar
    25    16    19    1
    26    30    31   ar
    27    43    42    1
    28    43    39    1
    29    42    32   ar
    30    15     2    1
    31    31    32   ar
    32    31    34    1
    33    35    36    1
    34    35    34    1
    35    32     1    2
    36    38    36   ar
    37    39     8    1
    38    39     5    2
    39    36    37   ar
    40     2     8    2
    41     8     7    1
    42     1     5    1
    43     5     6    1
    44     7     6    2
    45     7     9    1
    46     6    10    1
    47    14    12   ar
    48    11    12    1
    49    11    10    1
    50    12    13   ar
