@<TRIPOS>MOLECULE
3nm0_H4B_A_1.pdb
 17 18 0 0 0
SMALL
GASTEIGER

@<TRIPOS>ATOM
      1  N1         9.8960    2.5800   33.6200 N.2   760  H4B760     -0.2683
      2  C2        10.0550    2.2460   32.3290 C.1   760  H4B760      0.2608
      3  N2        11.3210    2.1680   31.8310 N.pl3 760  H4B760     -0.0220
      4  N3         8.9630    1.9970   31.5570 N.2   760  H4B760     -0.2474
      5  C4         7.7110    2.1060   32.0900 C.1   760  H4B760      0.2441
      6  O4         6.7240    1.8300   31.3510 O.2   760  H4B760     -0.2063
      7  C4A        7.5510    2.4620   33.4320 C.2   760  H4B760      0.2463
      8  C8A        8.6920    2.7210   34.1920 C.1   760  H4B760      0.1270
      9  N5         6.3270    2.5910   34.0420 N.2   760  H4B760     -0.2460
     10  N8         8.6230    3.0890   35.5060 N.2   760  H4B760     -0.2054
     11  C6         6.2520    3.5190   35.1710 C.3   760  H4B760      0.1627
     12  C7         7.3330    3.2060   36.1990 C.3   760  H4B760      0.1643
     13  C9         4.8400    3.5740   35.7650 C.3   760  H4B760      0.2063
     14  O9         4.4100    2.2290   36.0890 O.3   760  H4B760     -0.2183
     15  C10        4.7450    4.4800   36.9920 C.3   760  H4B760      0.1842
     16  C11        3.3030    4.5850   37.4760 C.3   760  H4B760      0.0383
     17  O10        5.1690    5.8190   36.6460 O.3   760  H4B760     -0.2204
@<TRIPOS>BOND
     1     6     5    2
     2     4     5    2
     3     4     2    2
     4     3     2    1
     5     5     7    1
     6     2     1    2
     7     7     9    2
     8     7     8    1
     9     1     8    2
    10     9    11    1
    11     8    10    2
    12    11    13    1
    13    11    12    1
    14    10    12    1
    15    13    14    1
    16    13    15    1
    17    17    15    1
    18    15    16    1
