@<TRIPOS>MOLECULE
3nm1_IFP_A_1.pdb
 12 12 0 0 0
SMALL
GASTEIGER

@<TRIPOS>ATOM
      1  N1A      -14.0480  -19.1620   42.0650 N.2   542  IFP542     -0.1796
      2  C2A      -13.7110  -20.1560   41.2360 C.1   542  IFP542      0.1609
      3  CM2      -14.1490  -21.5420   41.5410 C.3   542  IFP542      0.4892
      4  N3A      -12.9790  -19.8960   40.0990 N.2   542  IFP542     -0.3291
      5  C4A      -12.5860  -18.6190   39.8400 C.2   542  IFP542      0.2279
      6  N4A      -11.8010  -18.3940   38.6740 N.pl3 542  IFP542     -0.0925
      7  C5A      -12.9330  -17.5930   40.6990 C.2   542  IFP542      0.0459
      8  C6A      -13.6450  -17.8520   41.7890 C.2   542  IFP542      0.1101
      9  C7A      -12.5770  -16.1720   40.4060 C.3   542  IFP542      0.0369
     10  F1       -15.2600  -21.4300   42.2500 F     542  IFP542     -0.1566
     11  F2       -13.2610  -22.1890   42.2930 F     542  IFP542     -0.1566
     12  F3       -14.3760  -22.1980   40.4060 F     542  IFP542     -0.1566
@<TRIPOS>BOND
     1     6     5    1
     2     5     4    2
     3     5     7    1
     4     4     2    2
     5     9     7    1
     6    12     3    1
     7     7     8    2
     8     2     3    1
     9     2     1    2
    10     3    10    1
    11     3    11    1
    12     8     1    1
