@<TRIPOS>MOLECULE
3nm1_3NM_A_1.pdb
 16 16 0 0 0
SMALL
GASTEIGER

@<TRIPOS>ATOM
      1  N        -10.1110  -16.2270   41.7010 N.2   541  3NM541     -0.3924
      2  P         -4.3600  -19.4780   44.9140 P.3   541  3NM541      0.5329
      3  S         -8.4450  -16.4270   43.5930 S.3   541  3NM541     -0.0468
      4  C1        -8.6330  -17.7240   39.8990 C.3   541  3NM541      0.0670
      5  O1       -10.6490  -14.6590   45.1370 O.co2 541  3NM541     -0.2371
      6  C2        -8.8520  -17.1070   41.2310 C.2   541  3NM541      0.1161
      7  O2       -12.0370  -14.7670   43.3630 O.co2 541  3NM541     -0.2371
      8  C3        -9.9220  -15.7980   43.0730 C.2   541  3NM541      0.2401
      9  O3        -5.6870  -19.1300   44.1950 O.3   541  3NM541     -0.2653
     10  C4       -10.9340  -15.0120   43.8340 C.2   541  3NM541      0.4230
     11  O4        -4.0700  -18.3830   45.9780 O.3   541  3NM541     -0.1145
     12  C5        -7.8470  -17.1950   42.4460 C.2   541  3NM541      0.0556
     13  O5        -3.2090  -19.5630   43.8660 O.2   541  3NM541     -0.2224
     14  C6        -6.5550  -17.9120   42.3710 C.2   541  3NM541      0.0150
     15  O6        -4.5270  -20.8290   45.5740 O.3   541  3NM541     -0.1145
     16  C7        -5.7670  -17.9100   43.6050 C.3   541  3NM541      0.1805
@<TRIPOS>BOND
     1     4     6    1
     2     6     1    2
     3     6    12    1
     4     1     8    2
     5    14    12    2
     6    14    16    1
     7    12     3    1
     8     8     3    1
     9     8    10    1
    10     7    10   ar
    11    16     9    1
    12    10     5   ar
    13    13     2    2
    14     9     2    1
    15     2    15    1
    16     2    11    1
