@<TRIPOS>MOLECULE
3nm3_TPS_A_1.pdb
 22 23 0 0 0
SMALL
GASTEIGER

@<TRIPOS>ATOM
      1  CM2      -14.2620  -22.2470   41.4190 C.3   2001  TPS2001     0.1291
      2  N3       -10.5020  -17.0170   41.2150 N.3   2001  TPS2001    -0.2601
      3  C2       -10.2730  -15.9760   42.2950 C.3   2001  TPS2001     0.1316
      4  S1        -9.3020  -16.8060   43.5620 S.3   2001  TPS2001    -0.1220
      5  C5        -8.4590  -17.7930   42.5540 C.3   2001  TPS2001     0.0661
      6  C4        -9.4060  -18.1700   41.3300 C.3   2001  TPS2001     0.0686
      7  CM4       -8.8660  -18.9650   40.1430 C.3   2001  TPS2001     0.0183
      8  C6        -6.9520  -18.1210   42.5870 C.3   2001  TPS2001     0.0449
      9  C7        -6.5510  -18.9040   43.8280 C.3   2001  TPS2001     0.1547
     10  O7        -5.2340  -19.3500   43.7320 O.3   2001  TPS2001    -0.2702
     11  N1A      -13.7280  -19.8590   42.0410 N.2   2001  TPS2001    -0.1861
     12  C2A      -13.6200  -20.8770   41.1410 C.1   2001  TPS2001     0.0663
     13  N3A      -12.9160  -20.7270   39.9680 N.2   2001  TPS2001    -0.3368
     14  C4A      -12.2750  -19.4790   39.7230 C.2   2001  TPS2001     0.2289
     15  N4A      -11.5100  -19.2650   38.5080 N.pl3 2001  TPS2001    -0.0925
     16  C5A      -12.3790  -18.4200   40.6660 C.2   2001  TPS2001     0.0616
     17  C6A      -13.0530  -18.5700   41.7830 C.2   2001  TPS2001     0.1112
     18  C7A      -11.6460  -17.1040   40.3630 C.3   2001  TPS2001     0.1054
     19  P1        -4.4200  -19.9880   45.0020 P.3   2001  TPS2001     0.5326
     20  O1        -4.7160  -19.0560   46.2940 O.3   2001  TPS2001    -0.1145
     21  O2        -2.8430  -19.8900   44.6460 O.2   2001  TPS2001    -0.2224
     22  O3        -4.8010  -21.3540   45.2920 O.3   2001  TPS2001    -0.1145
@<TRIPOS>BOND
     1    15    14    1
     2    14    13    2
     3    14    16    1
     4    13    12    2
     5     7     6    1
     6    18    16    1
     7    18     2    1
     8    16    17    2
     9    12     1    1
    10    12    11    2
    11     2     6    1
    12     2     3    1
    13     6     5    1
    14    17    11    1
    15     3     4    1
    16     5     8    1
    17     5     4    1
    18     8     9    1
    19    10     9    1
    20    10    19    1
    21    21    19    2
    22    19    22    1
    23    19    20    1
