@<TRIPOS>MOLECULE
3nm5_FMC_A_1.pdb
 19 21 0 0 0
SMALL
GASTEIGER

@<TRIPOS>ATOM
      1  N1        19.1120   26.3330   22.0270 N.2   501  FMC501     -0.0278
      2  C2        19.6800   27.4130   22.7330 C.3   501  FMC501      0.3922
      3  N3        20.4900   28.2510   22.1820 N.2   501  FMC501     -0.2155
      4  C4        20.7960   28.0700   20.8620 C.2   501  FMC501      0.1251
      5  C5        20.2690   27.0230   20.0720 C.2   501  FMC501      0.2111
      6  C6        19.3970   26.1310   20.7080 C.2   501  FMC501      0.4334
      7  N6        18.8510   25.1150   20.0650 N.pl3 501  FMC501      0.2178
      8  N7        20.7140   27.0670   18.7920 N.2   501  FMC501     -0.1387
      9  N8        21.5410   28.1400   18.7860 N.2   501  FMC501     -0.1480
     10  C9        21.6290   28.7780   19.9890 C.2   501  FMC501      0.1291
     11  C1'       22.4850   29.9910   20.1880 C.3   501  FMC501      0.1910
     12  C2'       22.5430   30.4910   21.6340 C.3   501  FMC501      0.2173
     13  O2'       22.0900   31.8420   21.6990 O.3   501  FMC501     -0.2173
     14  C3'       23.9970   30.4300   22.0560 C.3   501  FMC501      0.2144
     15  O3'       24.6530   31.6960   21.8870 O.3   501  FMC501     -0.2176
     16  C4'       24.5980   29.4490   21.0820 C.3   501  FMC501      0.1814
     17  O4'       23.8070   29.5400   19.8990 O.3   501  FMC501     -0.3446
     18  C5'       24.4570   28.0460   21.5560 C.3   501  FMC501      0.2141
     19  O5'       25.0840   27.8710   22.8400 O.3   501  FMC501     -0.2176
@<TRIPOS>BOND
     1     9     8    1
     2     9    10    2
     3     8     5    2
     4    17    11    1
     5    17    16    1
     6    10    11    1
     7    10     4    1
     8     7     6    1
     9     5     6    1
    10     5     4    1
    11    11    12    1
    12     6     1    2
    13     4     3    2
    14    16    18    1
    15    16    14    1
    16    18    19    1
    17    12    13    1
    18    12    14    1
    19    15    14    1
    20     1     2    1
    21     3     2    1
