@<TRIPOS>MOLECULE
3nm6_ADE_B_1.pdb
 10 11 0 0 0
SMALL
GASTEIGER

@<TRIPOS>ATOM
      1  N9        35.6020   -3.1330   64.5400 N.2   231  ADE231     -0.1914
      2  C8        34.9220   -3.4100   63.3870 C.3   231  ADE231      0.2618
      3  N7        33.6150   -3.2860   63.4980 N.2   231  ADE231     -0.2267
      4  C5        33.4150   -2.8990   64.8120 C.2   231  ADE231      0.2303
      5  C6        32.2440   -2.6120   65.5430 C.2   231  ADE231      0.4393
      6  N6        31.0080   -2.6730   65.0200 N.pl3 231  ADE231      0.2185
      7  N1        32.3930   -2.2610   66.8400 N.2   231  ADE231     -0.0265
      8  C2        33.6340   -2.2060   67.3500 C.3   231  ADE231      0.4008
      9  N3        34.8060   -2.4590   66.7570 N.2   231  ADE231     -0.1640
     10  C4        34.6290   -2.8010   65.4730 C.1   231  ADE231      0.0579
@<TRIPOS>BOND
     1     2     3    1
     2     2     1    1
     3     3     4    2
     4     1    10    2
     5     4    10    1
     6     4     5    1
     7     6     5    1
     8    10     9    2
     9     5     7    2
    10     9     8    1
    11     7     8    1
