@<TRIPOS>MOLECULE
3nma_NUC_C_1.pdb
 40 43 0 0 0
SMALL
GASTEIGER

@<TRIPOS>ATOM
      1  P         36.1390   21.0230   30.7800 P.3   918  RC918       0.3942
      2  OP1       35.1350   20.6750   29.7490 O.3   918  RC918      -0.1425
      3  OP2       36.9970   22.2170   30.6040 O.3   918  RC918      -0.1425
      4  O5'       35.4180   21.1390   32.2040 O.3   918  RC918      -0.2926
      5  C5'       34.8940   19.9720   32.8280 C.3   918  RC918       0.1829
      6  C4'       33.8180   20.3220   33.8410 C.3   918  RC918       0.1772
      7  O4'       34.2230   21.4870   34.6000 O.3   918  RC918      -0.3321
      8  C3'       32.4580   20.6700   33.2500 C.3   918  RC918       0.1857
      9  O3'       31.6820   19.4830   33.0800 O.3   918  RC918      -0.3112
     10  C2'       31.8570   21.6160   34.2910 C.3   918  RC918       0.2291
     11  O2'       31.1020   20.9420   35.2810 O.3   918  RC918      -0.2158
     12  C1'       33.0910   22.2760   34.9180 C.3   918  RC918       0.2399
     13  N1        33.3600   23.7020   34.4870 N.am  918  RC918      -0.1778
     14  C2        33.4860   24.7170   35.4570 C.1   918  RC918       0.2756
     15  O2        33.3680   24.4460   36.6600 O.2   918  RC918      -0.1925
     16  N3        33.7310   25.9920   35.0450 N.2   918  RC918      -0.3024
     17  C4        33.8540   26.2730   33.7420 C.2   918  RC918       0.2346
     18  N4        34.0950   27.5400   33.3930 N.pl3 918  RC918      -0.0921
     19  C5        33.7350   25.2610   32.7390 C.2   918  RC918       0.0687
     20  C6        33.4940   24.0090   33.1540 C.2   918  RC918       0.0836
     21  P         31.0590   19.0880   31.6560 P.3   919  RC919       0.2141
     22  OP1       31.1460   17.6180   31.5230 O.3   919  RC919      -0.4373
     23  OP2       31.6660   19.9410   30.6090 O.2   919  RC919      -0.5172
     24  O5'       29.5250   19.5200   31.8130 O.3   919  RC919      -0.3114
     25  C5'       28.6450   18.8130   32.6880 C.3   919  RC919       0.1813
     26  C4'       27.3960   19.6210   32.9990 C.3   919  RC919       0.1799
     27  O4'       27.7840   20.7860   33.7640 O.3   919  RC919      -0.3320
     28  C3'       26.6350   20.1520   31.7870 C.3   919  RC919       0.2158
     29  O3'       25.6250   19.2280   31.3970 O.3   919  RC919      -0.2175
     30  C2'       26.0430   21.4730   32.2770 C.3   919  RC919       0.2319
     31  O2'       24.7280   21.3390   32.7860 O.3   919  RC919      -0.2157
     32  C1'       26.9990   21.9040   33.3920 C.3   919  RC919       0.2400
     33  N1        27.9040   23.0560   33.0270 N.am  919  RC919      -0.1778
     34  C2        27.6280   24.3430   33.5240 C.1   919  RC919       0.2756
     35  O2        26.6470   24.5270   34.2570 O.2   919  RC919      -0.1925
     36  N3        28.4560   25.3690   33.1840 N.2   919  RC919      -0.3024
     37  C4        29.5120   25.1530   32.3910 C.2   919  RC919       0.2346
     38  N4        30.2930   26.1960   32.0890 N.pl3 919  RC919      -0.0921
     39  C5        29.8140   23.8550   31.8750 C.2   919  RC919       0.0687
     40  C6        28.9930   22.8520   32.2160 C.2   919  RC919       0.0836
@<TRIPOS>BOND
     1     2     1    1
     2     3     1    1
     3    23    21    2
     4     1     4    1
     5    29    28    1
     6    22    21    1
     7    21    24    1
     8    21     9    1
     9    28    30    1
    10    28    26    1
    11    24    25    1
    12    39    40    2
    13    39    37    1
    14    38    37    1
    15     4     5    1
    16    40    33    1
    17    30    31    1
    18    30    32    1
    19    37    36    2
    20    25    26    1
    21    19    20    2
    22    19    17    1
    23     5     6    1
    24    26    27    1
    25    33    32    1
    26    33    34   am
    27     9     8    1
    28    20    13    1
    29    36    34    2
    30     8     6    1
    31     8    10    1
    32    32    27    1
    33    18    17    1
    34    34    35    2
    35    17    16    2
    36     6     7    1
    37    10    12    1
    38    10    11    1
    39    13    12    1
    40    13    14   am
    41     7    12    1
    42    16    14    2
    43    14    15    2
