@<TRIPOS>MOLECULE
3nmi_HEM_A_1.pdb
 43 50 0 0 0
SMALL
GASTEIGER

@<TRIPOS>ATOM
      1  CHA      -17.9970   18.3700   57.0750 C.2   150  HEM150      0.0000
      2  CHB      -22.6390   18.1100   58.4150 C.2   150  HEM150      0.0000
      3  CHC      -23.4750   15.0160   54.7690 C.2   150  HEM150      0.0000
      4  CHD      -18.7760   15.0050   53.6520 C.2   150  HEM150      0.0000
      5  C1A      -19.1940   18.6170   57.7190 C.2   150  HEM150      0.0000
      6  C2A      -19.3670   19.4930   58.8390 C.2   150  HEM150      0.0000
      7  C3A      -20.6560   19.4800   59.1820 C.2   150  HEM150      0.0000
      8  C4A      -21.3320   18.5380   58.3220 C.2   150  HEM150      0.0000
      9  CMA      -21.2620   20.2740   60.3660 C.3   150  HEM150      0.0000
     10  CAA      -18.2970   20.4750   59.3720 C.3   150  HEM150      0.0000
     11  CBA      -18.2520   21.6590   58.3970 C.3   150  HEM150      0.0000
     12  CGA      -17.1650   22.6600   58.7840 C.2   150  HEM150      0.0000
     13  O1A      -17.4990   23.7850   59.1820 O.co2 150  HEM150      0.0000
     14  O2A      -15.9660   22.3190   58.7890 O.co2 150  HEM150      0.0000
     15  C1B      -23.2580   17.2500   57.5290 C.ar  150  HEM150      0.0000
     16  C2B      -24.6550   16.8520   57.5680 C.ar  150  HEM150      0.0000
     17  C3B      -24.8660   15.9700   56.5810 C.ar  150  HEM150      0.0000
     18  C4B      -23.6110   15.7940   55.8830 C.ar  150  HEM150      0.0000
     19  CMB      -25.6430   17.2770   58.6830 C.3   150  HEM150      0.0000
     20  CAB      -26.1590   15.2100   56.2150 C.2   150  HEM150      0.0000
     21  CBB      -27.3350   15.9000   56.1390 C.2   150  HEM150      0.0000
     22  C1C      -22.2710   14.6980   54.2090 C.2   150  HEM150      0.0000
     23  C2C      -22.0590   13.6960   53.2100 C.2   150  HEM150      0.0000
     24  C3C      -20.7370   13.6380   52.9640 C.2   150  HEM150      0.0000
     25  C4C      -20.1040   14.6710   53.7470 C.2   150  HEM150      0.0000
     26  CMC      -23.1560   12.8090   52.5770 C.3   150  HEM150      0.0000
     27  CAC      -20.0640   12.7850   51.8820 C.2   150  HEM150      0.0000
     28  CBC      -20.8110   12.2290   50.9110 C.2   150  HEM150      0.0000
     29  C1D      -18.1570   15.9220   54.4480 C.ar  150  HEM150      0.0000
     30  C2D      -16.7500   16.2600   54.3270 C.ar  150  HEM150      0.0000
     31  C3D      -16.4850   17.1570   55.5090 C.ar  150  HEM150      0.0000
     32  C4D      -17.7900   17.4790   56.0620 C.ar  150  HEM150      0.0000
     33  CMD      -15.6860   15.5890   53.4120 C.3   150  HEM150      0.0000
     34  CAD      -15.1670   17.9020   55.7900 C.3   150  HEM150      0.0000
     35  CBD      -15.1130   19.0940   54.8420 C.3   150  HEM150      0.0000
     36  CGD      -13.8500   19.9050   55.1020 C.2   150  HEM150      0.0000
     37  O1D      -13.2500   19.8340   56.2150 O.co2 150  HEM150      0.0000
     38  O2D      -13.4590   20.6430   54.1740 O.co2 150  HEM150      0.0000
     39  NA       -20.3950   17.9780   57.4740 N.2   150  HEM150      0.0000
     40  NB       -22.6680   16.6150   56.4620 N.ar  150  HEM150      0.0000
     41  NC       -21.0610   15.3050   54.5480 N.2   150  HEM150      0.0000
     42  ND       -18.7420   16.6620   55.4700 N.ar  150  HEM150      0.0000
     43 FE        -20.7100   16.6330   55.9990 Fe    150  HEM150      0.0000
@<TRIPOS>BOND
     1    28    27    2
     2    27    24    1
     3    26    23    1
     4    24    23    2
     5    24    25    1
     6    23    22    1
     7    33    30    1
     8     4    25    1
     9     4    29    2
    10    25    41    2
    11    38    36   ar
    12    22    41    1
    13    22     3    2
    14    30    29   ar
    15    30    31   ar
    16    29    42   ar
    17    41    43    1
    18     3    18    1
    19    35    36    1
    20    35    34    1
    21    36    37   ar
    22    42    43    1
    23    42    32   ar
    24    31    34    1
    25    31    32   ar
    26    18    40   ar
    27    18    17   ar
    28    43    40    1
    29    43    39    1
    30    32     1    2
    31    21    20    2
    32    20    17    1
    33    40    15   ar
    34    17    16   ar
    35     1     5    1
    36    39     5    2
    37    39     8    1
    38    15    16   ar
    39    15     2    1
    40    16    19    1
    41     5     6    1
    42     8     2    2
    43     8     7    1
    44    11    12    1
    45    11    10    1
    46    12    14   ar
    47    12    13   ar
    48     6     7    2
    49     6    10    1
    50     7     9    1
