@<TRIPOS>MOLECULE
3nmi_PXX_A_1.pdb
 18 20 0 0 0
SMALL
GASTEIGER

@<TRIPOS>ATOM
      1  CAA      -17.6510    7.4820   39.7740 C.3   151  PXX151      0.0964
      2  CAM      -17.8040    8.9310   40.1250 C.2   151  PXX151      0.2424
      3  OAB      -18.8110    9.3790   40.6440 O.2   151  PXX151     -0.2733
      4  NAL      -16.8020    9.7100   39.7410 N.am  151  PXX151     -0.1981
      5  CAN      -16.7070   11.0730   40.0560 C.3   151  PXX151      0.1407
      6  CAP      -16.2320   11.9770   39.0940 C.ar  151  PXX151      0.0207
      7  CAH      -16.0480   11.5810   37.7750 C.ar  151  PXX151      0.0008
      8  CAD      -15.6350   12.5100   36.8240 C.ar  151  PXX151      0.0204
      9  CAF      -15.4550   13.8220   37.2190 C.ar  151  PXX151      0.0989
     10  NAK      -15.6360   14.1890   38.4930 N.ar  151  PXX151     -0.2426
     11  CAR      -16.0520   13.3090   39.4280 C.ar  151  PXX151      0.0965
     12  CAQ      -16.2150   13.7230   40.7490 C.2   151  PXX151      0.0947
     13  NAJ      -16.0200   15.0250   41.0770 N.2   151  PXX151     -0.2430
     14  CAE      -16.0930   15.4420   42.3470 C.2   151  PXX151      0.0946
     15  CAC      -16.5730   14.5800   43.3340 C.2   151  PXX151     -0.0008
     16  CAG      -16.7350   13.2220   43.0510 C.3   151  PXX151      0.0552
     17  CAO      -16.5720   12.7960   41.7330 C.2   151  PXX151     -0.0009
     18  CAI      -16.7700   11.4650   41.3910 C.2   151  PXX151     -0.0028
@<TRIPOS>BOND
     1     8     9   ar
     2     8     7   ar
     3     9    10   ar
     4     7     6   ar
     5    10    11   ar
     6     6    11   ar
     7     6     5    1
     8    11    12    1
     9     4     5    1
    10     4     2   am
    11     1     2    1
    12     5    18    1
    13     2     3    2
    14    12    13    2
    15    12    17    1
    16    13    14    1
    17    18    17    2
    18    17    16    1
    19    14    15    2
    20    16    15    1
