@<TRIPOS>MOLECULE
3nmj_PXX_A_1.pdb
 18 20 0 0 0
SMALL
GASTEIGER

@<TRIPOS>ATOM
      1  CAA       19.8990  -47.1510   13.2580 C.3   151  PXX151      0.0968
      2  CAM       20.3240  -47.8080   14.5370 C.2   151  PXX151      0.2461
      3  OAB       20.4730  -49.0210   14.6460 O.2   151  PXX151     -0.2730
      4  NAL       20.5830  -46.9330   15.5070 N.am  151  PXX151     -0.1791
      5  CAN       21.0730  -47.3090   16.7650 C.ar  151  PXX151      0.0749
      6  CAP       21.8250  -46.3860   17.4880 C.ar  151  PXX151      0.0345
      7  CAH       22.0800  -45.1310   16.9460 C.ar  151  PXX151      0.0044
      8  CAD       22.7900  -44.2130   17.7090 C.ar  151  PXX151      0.0207
      9  CAF       23.2750  -44.5900   18.9630 C.ar  151  PXX151      0.0989
     10  NAK       23.0260  -45.8110   19.4680 N.ar  151  PXX151     -0.2423
     11  CAR       22.2970  -46.7060   18.7640 C.ar  151  PXX151      0.1001
     12  CAQ       22.0400  -47.9620   19.3050 C.ar  151  PXX151      0.0989
     13  NAJ       22.5150  -48.2680   20.5290 N.ar  151  PXX151     -0.2423
     14  CAE       22.3010  -49.4760   21.0560 C.ar  151  PXX151      0.0989
     15  CAC       21.5550  -50.4350   20.3730 C.ar  151  PXX151      0.0207
     16  CAG       21.0690  -50.1550   19.1050 C.ar  151  PXX151      0.0032
     17  CAO       21.3190  -48.9010   18.5630 C.ar  151  PXX151      0.0205
     18  CAI       20.8260  -48.5730   17.2990 C.ar  151  PXX151      0.0182
@<TRIPOS>BOND
     1     1     2    1
     2     2     3    2
     3     2     4   am
     4     4     5    1
     5     5    18   ar
     6     5     6   ar
     7     7     6   ar
     8     7     8   ar
     9    18    17   ar
    10     6    11   ar
    11     8     9   ar
    12    17    16   ar
    13    17    12   ar
    14    11    12   ar
    15    11    10   ar
    16     9    10   ar
    17    16    15   ar
    18    12    13   ar
    19    15    14   ar
    20    13    14   ar
