@<TRIPOS>MOLECULE
3nmj_HEM_A_1.pdb
 43 50 0 0 0
SMALL
GASTEIGER

@<TRIPOS>ATOM
      1  CHA       12.3430  -29.7960    6.3680 C.2   150  HEM150      0.0000
      2  CHB       15.8700  -28.1140    3.5050 C.2   150  HEM150      0.0000
      3  CHC       18.0400  -32.4350    3.5770 C.2   150  HEM150      0.0000
      4  CHD       14.6000  -34.1330    6.5850 C.2   150  HEM150      0.0000
      5  C1A       13.0700  -28.9910    5.5250 C.ar  150  HEM150      0.0000
      6  C2A       12.7010  -27.6540    5.0900 C.ar  150  HEM150      0.0000
      7  C3A       13.6650  -27.2070    4.2790 C.ar  150  HEM150      0.0000
      8  C4A       14.6850  -28.2320    4.1880 C.ar  150  HEM150      0.0000
      9  CMA       13.7200  -25.8250    3.5890 C.3   150  HEM150      0.0000
     10  CAA       11.3800  -26.9110    5.4050 C.3   150  HEM150      0.0000
     11  CBA       10.8670  -27.2660    6.7990 C.3   150  HEM150      0.0000
     12  CGA       10.9970  -26.0650    7.6970 C.2   150  HEM150      0.0000
     13  O1A       11.9340  -25.2600    7.4830 O.co2 150  HEM150      0.0000
     14  O2A       10.1720  -25.9150    8.6330 O.co2 150  HEM150      0.0000
     15  C1B       16.7550  -29.1350    3.2540 C.2   150  HEM150      0.0000
     16  C2B       17.8570  -29.0870    2.3180 C.2   150  HEM150      0.0000
     17  C3B       18.4710  -30.2740    2.3340 C.2   150  HEM150      0.0000
     18  C4B       17.7460  -31.1300    3.2590 C.2   150  HEM150      0.0000
     19  CMB       18.2360  -27.8590    1.4620 C.3   150  HEM150      0.0000
     20  CAB       19.7040  -30.6770    1.4870 C.2   150  HEM150      0.0000
     21  CBB       20.9380  -30.2420    1.7720 C.2   150  HEM150      0.0000
     22  C1C       17.2950  -33.2530    4.3990 C.ar  150  HEM150      0.0000
     23  C2C       17.6040  -34.6360    4.7000 C.ar  150  HEM150      0.0000
     24  C3C       16.6640  -35.1010    5.5280 C.ar  150  HEM150      0.0000
     25  C4C       15.7200  -34.0310    5.7900 C.ar  150  HEM150      0.0000
     26  CMC       18.8120  -35.4290    4.1640 C.3   150  HEM150      0.0000
     27  CAC       16.5860  -36.5370    6.0910 C.2   150  HEM150      0.0000
     28  CBC       17.6980  -37.2710    6.2120 C.2   150  HEM150      0.0000
     29  C1D       13.6690  -33.1430    6.8140 C.2   150  HEM150      0.0000
     30  C2D       12.5070  -33.2620    7.6710 C.2   150  HEM150      0.0000
     31  C3D       11.8340  -31.8890    7.6410 C.2   150  HEM150      0.0000
     32  C4D       12.6170  -31.0990    6.7170 C.2   150  HEM150      0.0000
     33  CMD       12.0880  -34.4670    8.5340 C.3   150  HEM150      0.0000
     34  CAD       10.5640  -31.4640    8.4090 C.3   150  HEM150      0.0000
     35  CBD       10.9430  -30.6690    9.6570 C.3   150  HEM150      0.0000
     36  CGD        9.7070  -30.3770   10.4740 C.2   150  HEM150      0.0000
     37  O1D        8.6820  -31.0900   10.3200 O.co2 150  HEM150      0.0000
     38  O2D        9.7430  -29.4230   11.2890 O.co2 150  HEM150      0.0000
     39  NA        14.3040  -29.2990    4.9810 N.ar  150  HEM150      0.0000
     40  NB        16.7420  -30.3840    3.8450 N.2   150  HEM150      0.0000
     41  NC        16.1420  -32.9140    5.0890 N.ar  150  HEM150      0.0000
     42  ND        13.6950  -31.8630    6.2680 N.2   150  HEM150      0.0000
     43 FE         15.2440  -31.1200    5.0670 Fe    150  HEM150      0.0000
@<TRIPOS>BOND
     1    19    16    1
     2    20    21    2
     3    20    17    1
     4    16    17    2
     5    16    15    1
     6    17    18    1
     7    15     2    1
     8    15    40    2
     9    18     3    2
    10    18    40    1
    11     2     8    2
    12     3    22    1
    13     9     7    1
    14    40    43    1
    15    26    23    1
    16     8     7   ar
    17     8    39   ar
    18     7     6   ar
    19    22    23   ar
    20    22    41   ar
    21    23    24   ar
    22    39    43    1
    23    39     5   ar
    24    43    41    1
    25    43    42    1
    26    41    25   ar
    27     6    10    1
    28     6     5   ar
    29    10    11    1
    30     5     1    2
    31    24    25   ar
    32    24    27    1
    33    25     4    1
    34    27    28    2
    35    42    32    2
    36    42    29    1
    37     1    32    1
    38     4    29    2
    39    32    31    1
    40    11    12    1
    41    29    30    1
    42    13    12   ar
    43    31    30    2
    44    31    34    1
    45    30    33    1
    46    12    14   ar
    47    34    35    1
    48    35    36    1
    49    37    36   ar
    50    36    38   ar
