@<TRIPOS>MOLECULE
3nmk_PXX_A_1.pdb
 18 20 0 0 0
SMALL
GASTEIGER

@<TRIPOS>ATOM
      1  CAA      -31.1440   40.4610  -14.0250 C.3   151  PXX151      0.0968
      2  CAM      -31.5050   41.2440  -15.2560 C.2   151  PXX151      0.2461
      3  OAB      -32.4950   41.9560  -15.3330 O.2   151  PXX151     -0.2730
      4  NAL      -30.6230   41.1140  -16.2430 N.am  151  PXX151     -0.1791
      5  CAN      -30.6820   41.8460  -17.4350 C.ar  151  PXX151      0.0749
      6  CAP      -29.4820   42.1870  -18.0470 C.ar  151  PXX151      0.0345
      7  CAH      -28.2810   41.7540  -17.4860 C.ar  151  PXX151      0.0044
      8  CAD      -27.1070   42.0280  -18.1660 C.ar  151  PXX151      0.0207
      9  CAF      -27.1680   42.7510  -19.3650 C.ar  151  PXX151      0.0989
     10  NAK      -28.3370   43.1130  -19.9290 N.ar  151  PXX151     -0.2423
     11  CAR      -29.4980   42.8130  -19.2950 C.ar  151  PXX151      0.1001
     12  CAQ      -30.7090   43.1800  -19.8680 C.ar  151  PXX151      0.0989
     13  NAJ      -30.7100   43.8290  -21.0530 N.ar  151  PXX151     -0.2423
     14  CAE      -31.8670   44.2350  -21.5980 C.ar  151  PXX151      0.0989
     15  CAC      -33.0930   43.9680  -20.9880 C.ar  151  PXX151      0.0207
     16  CAG      -33.1160   43.2810  -19.7830 C.ar  151  PXX151      0.0032
     17  CAO      -31.9070   42.9010  -19.2110 C.ar  151  PXX151      0.0205
     18  CAI      -31.8970   42.2150  -18.0020 C.ar  151  PXX151      0.0182
@<TRIPOS>BOND
     1    14    13   ar
     2    14    15   ar
     3    13    12   ar
     4    15    16   ar
     5    10     9   ar
     6    10    11   ar
     7    12    11   ar
     8    12    17   ar
     9    16    17   ar
    10     9     8   ar
    11    11     6   ar
    12    17    18   ar
    13     8     7   ar
    14     6     7   ar
    15     6     5   ar
    16    18     5   ar
    17     5     4    1
    18     4     2   am
    19     3     2    2
    20     2     1    1
