@<TRIPOS>MOLECULE
3nmk_HEM_A_1.pdb
 43 50 0 0 0
SMALL
GASTEIGER

@<TRIPOS>ATOM
      1  CHA      -19.9240   25.8030   -6.5730 C.2   150  HEM150      0.0000
      2  CHB      -16.7090   28.0580   -3.7220 C.2   150  HEM150      0.0000
      3  CHC      -19.3040   32.1440   -3.9460 C.2   150  HEM150      0.0000
      4  CHD      -22.5080   29.9310   -6.8550 C.2   150  HEM150      0.0000
      5  C1A      -18.8300   26.0600   -5.7830 C.2   150  HEM150      0.0000
      6  C2A      -17.7780   25.1100   -5.4760 C.2   150  HEM150      0.0000
      7  C3A      -16.8760   25.7360   -4.7070 C.2   150  HEM150      0.0000
      8  C4A      -17.3330   27.1000   -4.4920 C.2   150  HEM150      0.0000
      9  CMA      -15.5800   25.1210   -4.1390 C.3   150  HEM150      0.0000
     10  CAA      -17.6990   23.6550   -5.9940 C.3   150  HEM150      0.0000
     11  CBA      -17.5920   23.6770   -7.5170 C.3   150  HEM150      0.0000
     12  CGA      -16.8740   22.4550   -8.0480 C.2   150  HEM150      0.0000
     13  O1A      -15.6160   22.4460   -8.0490 O.co2 150  HEM150      0.0000
     14  O2A      -17.5500   21.5450   -8.5960 O.co2 150  HEM150      0.0000
     15  C1B      -17.1880   29.3200   -3.4550 C.ar  150  HEM150      0.0000
     16  C2B      -16.6160   30.2640   -2.5190 C.ar  150  HEM150      0.0000
     17  C3B      -17.3230   31.3880   -2.5760 C.ar  150  HEM150      0.0000
     18  C4B      -18.3490   31.2210   -3.5850 C.ar  150  HEM150      0.0000
     19  CMB      -15.4000   30.0280   -1.5950 C.3   150  HEM150      0.0000
     20  CAB      -17.0310   32.6570   -1.7450 C.2   150  HEM150      0.0000
     21  CBB      -15.8980   33.3410   -1.9660 C.2   150  HEM150      0.0000
     22  C1C      -20.4050   31.8860   -4.7360 C.2   150  HEM150      0.0000
     23  C2C      -21.4680   32.8210   -5.0400 C.2   150  HEM150      0.0000
     24  C3C      -22.3660   32.1980   -5.8130 C.2   150  HEM150      0.0000
     25  C4C      -21.8920   30.8530   -6.0500 C.2   150  HEM150      0.0000
     26  CMC      -21.5690   34.2610   -4.4940 C.3   150  HEM150      0.0000
     27  CAC      -23.6980   32.7960   -6.3180 C.2   150  HEM150      0.0000
     28  CBC      -23.7460   34.1260   -6.4980 C.2   150  HEM150      0.0000
     29  C1D      -22.1070   28.6350   -7.0950 C.ar  150  HEM150      0.0000
     30  C2D      -22.8030   27.6760   -7.9440 C.ar  150  HEM150      0.0000
     31  C3D      -21.9870   26.3930   -7.8610 C.ar  150  HEM150      0.0000
     32  C4D      -20.9110   26.6930   -6.9370 C.ar  150  HEM150      0.0000
     33  CMD      -24.0380   27.9060   -8.8400 C.3   150  HEM150      0.0000
     34  CAD      -22.2300   25.0970   -8.6670 C.3   150  HEM150      0.0000
     35  CBD      -21.3030   25.0560   -9.8870 C.3   150  HEM150      0.0000
     36  CGD      -21.6600   23.9310  -10.8360 C.2   150  HEM150      0.0000
     37  O1D      -22.6620   23.2100  -10.5940 O.co2 150  HEM150      0.0000
     38  O2D      -20.9830   23.8010  -11.8900 O.co2 150  HEM150      0.0000
     39  NA       -18.5080   27.2740   -5.2010 N.2   150  HEM150      0.0000
     40  NB       -18.2130   29.9580   -4.1280 N.ar  150  HEM150      0.0000
     41  NC       -20.6990   30.6900   -5.3700 N.2   150  HEM150      0.0000
     42  ND       -21.0290   28.0100   -6.4890 N.ar  150  HEM150      0.0000
     43 FE        -19.5810   29.0470   -5.3210 Fe    150  HEM150      0.0000
@<TRIPOS>BOND
     1    38    36   ar
     2    36    37   ar
     3    36    35    1
     4    35    34    1
     5    33    30    1
     6    34    31    1
     7    14    12   ar
     8    13    12   ar
     9    12    11    1
    10    30    31   ar
    11    30    29   ar
    12    31    32   ar
    13    11    10    1
    14    29     4    2
    15    29    42   ar
    16    32     1    2
    17    32    42   ar
    18     4    25    1
    19     1     5    1
    20    28    27    2
    21    42    43    1
    22    27    24    1
    23    25    24    1
    24    25    41    2
    25    10     6    1
    26    24    23    2
    27     5     6    1
    28     5    39    2
    29     6     7    2
    30    41    43    1
    31    41    22    1
    32    43    39    1
    33    43    40    1
    34    39     8    1
    35    23    22    1
    36    23    26    1
    37    22     3    2
    38     7     8    1
    39     7     9    1
    40     8     2    2
    41    40    18   ar
    42    40    15   ar
    43     3    18    1
    44     2    15    1
    45    18    17   ar
    46    15    16   ar
    47    17    16   ar
    48    17    20    1
    49    16    19    1
    50    21    20    2
