@<TRIPOS>MOLECULE
3nmq_7PP_A_1.pdb
 29 31 0 0 0
SMALL
GASTEIGER

@<TRIPOS>ATOM
      1 CL         -1.0080    9.1800   28.0850 Cl      1  7PP1       -0.0507
      2  C1        -0.7040    9.8680   26.4610 C.2     1  7PP1        0.1920
      3  N5        -1.6830   10.4400   25.7600 N.2     1  7PP1       -0.3178
      4  C21       -1.4380   10.9800   24.5480 C.1     1  7PP1        0.2429
      5  N4        -2.4570   11.5350   23.8540 N.pl3   1  7PP1       -0.0232
      6  N3        -0.1860   10.9850   24.0350 N.2     1  7PP1       -0.3139
      7  C20        0.8180   10.4400   24.7030 C.2     1  7PP1        0.1899
      8  C2         0.5600    9.8590   25.9470 C.3     1  7PP1        0.1635
      9  N1         2.1190   10.3280   24.3890 N.pl3   1  7PP1       -0.2574
     10  C11        2.7690   10.8640   23.1630 C.3     1  7PP1        0.1431
     11  C12        3.8290   11.9130   23.6480 C.ar    1  7PP1        0.0783
     12  C18        3.5360   13.1930   24.1520 C.ar    1  7PP1        0.0270
     13  C19        2.1270   13.7260   24.2720 C.3     1  7PP1        0.0355
     14  C16        4.6060   14.0670   24.5600 C.ar    1  7PP1        0.1333
     15  O2         4.3380   15.3140   25.0370 O.3     1  7PP1       -0.4720
     16  C17        4.6230   15.6990   26.3680 C.3     1  7PP1        0.2524
     17  C14        5.9390   13.6570   24.4270 C.ar    1  7PP1        0.0309
     18  C15        7.1030   14.5460   24.8330 C.3     1  7PP1        0.0358
     19  C13        6.1620   12.3870   23.9210 C.ar    1  7PP1        0.0972
     20  N2         5.1510   11.5880   23.5700 N.ar    1  7PP1       -0.2469
     21  C10        2.7290    9.6650   25.3830 C.2     1  7PP1        0.0722
     22  C3         1.7800    9.4190   26.3580 C.2     1  7PP1        0.0497
     23  C4         2.0830    8.7440   27.4850 C.1     1  7PP1       -0.0665
     24  C5         2.3450    8.1040   28.4390 C.1     1  7PP1       -0.0841
     25  C6         2.7330    7.2830   29.6350 C.3     1  7PP1        0.1066
     26  C7         2.0140    5.9290   29.7950 C.3     1  7PP1        0.1388
     27  C9         2.4570    5.2210   31.0960 C.3     1  7PP1        0.0340
     28  C8         2.2090    5.0250   28.5850 C.3     1  7PP1        0.0340
     29  O1         0.6040    6.1690   29.9420 O.3     1  7PP1       -0.2246
@<TRIPOS>BOND
     1    10    11    1
     2    10     9    1
     3    20    11   ar
     4    20    19   ar
     5    11    12   ar
     6     5     4    1
     7    19    17   ar
     8     6     4    2
     9     6     7    2
    10    12    13    1
    11    12    14   ar
    12     9     7    1
    13     9    21    1
    14    17    14   ar
    15    17    18    1
    16     4     3    2
    17    14    15    1
    18     7     8    1
    19    15    16    1
    20    21    22    2
    21     3     2    2
    22     8    22    1
    23     8     2    1
    24    22    23    1
    25     2     1    1
    26    23    24    3
    27    24    25    1
    28    28    26    1
    29    25    26    1
    30    26    29    1
    31    26    27    1
