@<TRIPOS>MOLECULE
3nmu_SAM_F_1.pdb
 26 28 0 0 0
SMALL
GASTEIGER

@<TRIPOS>ATOM
      1  N         56.3610   -4.8550  -21.4280 N.3   228  SAM228     -0.1245
      2  CA        56.2070   -3.5260  -22.0350 C.3   228  SAM228      0.1570
      3  C         56.0030   -3.5770  -23.5620 C.2   228  SAM228      0.2261
      4  O         56.4640   -4.4710  -24.2950 O.2   228  SAM228     -0.2867
      5  CB        57.3960   -2.6250  -21.6820 C.3   228  SAM228      0.0379
      6  CG        57.6280   -1.4860  -22.6780 C.3   228  SAM228      0.0502
      7  SD        58.9790   -0.3180  -22.3040 S.3   228  SAM228     -0.1761
      8  CE        59.9760   -1.3070  -21.1490 C.3   228  SAM228      0.0590
      9  C5'       58.1190    1.2220  -21.7500 C.3   228  SAM228      0.0806
     10  C4'       58.5650    2.0890  -20.5610 C.3   228  SAM228      0.1622
     11  O4'       58.9350    3.4360  -20.8620 O.3   228  SAM228     -0.3153
     12  C3'       57.4000    2.2640  -19.5900 C.3   228  SAM228      0.2168
     13  O3'       57.6880    1.5340  -18.4290 O.3   228  SAM228     -0.2175
     14  C2'       57.2440    3.7600  -19.2920 C.3   228  SAM228      0.2569
     15  O2'       57.1070    3.9920  -17.9150 O.3   228  SAM228     -0.2130
     16  C1'       58.5320    4.3530  -19.8110 C.3   228  SAM228      0.3185
     17  N9        58.3740    5.6990  -20.3890 N.pl3 228  SAM228     -0.1439
     18  C8        57.3020    6.1260  -21.1270 C.3   228  SAM228      0.3377
     19  N7        57.5510    7.3860  -21.5640 N.2   228  SAM228     -0.2095
     20  C5        58.7610    7.7870  -21.1100 C.2   228  SAM228      0.2526
     21  C6        59.4740    8.9770  -21.2660 C.2   228  SAM228      0.4393
     22  N6        58.9750   10.0140  -21.9710 N.pl3 228  SAM228      0.2180
     23  N1        60.7220    9.0710  -20.6880 N.2   228  SAM228      0.0021
     24  C2        61.2390    8.0210  -19.9640 C.3   228  SAM228      0.5254
     25  N3        60.5200    6.8680  -19.8160 N.2   228  SAM228     -0.0055
     26  C4        59.2980    6.7370  -20.3780 C.2   228  SAM228      0.3518
@<TRIPOS>BOND
     1     4     3    2
     2     3     2    1
     3     6     7    1
     4     6     5    1
     5     7     9    1
     6     7     8    1
     7     2     5    1
     8     2     1    1
     9    22    21    1
    10     9    10    1
    11    19    18    1
    12    19    20    2
    13    21    20    1
    14    21    23    2
    15    18    17    1
    16    20    26    1
    17    11    10    1
    18    11    16    1
    19    23    24    1
    20    10    12    1
    21    17    26    1
    22    17    16    1
    23    26    25    2
    24    24    25    1
    25    16    14    1
    26    12    14    1
    27    12    13    1
    28    14    15    1
