@<TRIPOS>MOLECULE
3nn0_GP7_X_1.pdb
 43 42 0 0 0
SMALL
GASTEIGER

@<TRIPOS>ATOM
      1  P         53.8240   85.2410    6.7490 P.3   435  GP7435      0.5327
      2  C1        52.9730   83.9260    4.6790 C.3   435  GP7435      0.2010
      3  C2        51.9700   82.9050    5.2220 C.3   435  GP7435      0.2422
      4  O2        52.5310   81.9950    6.2250 O.3   435  GP7435     -0.4457
      5  C3        51.3110   82.2280    3.9890 C.3   435  GP7435      0.2543
      6  O3        49.9080   82.5330    4.0470 O.3   435  GP7435     -0.4444
      7  C11       49.3300   83.3430    2.9760 C.2   435  GP7435      0.3171
      8  O11       50.0720   83.4610    2.0010 O.2   435  GP7435     -0.2501
      9  C12       48.1210   83.9620    3.0530 C.3   435  GP7435      0.1096
     10  C13       47.1310   82.9860    2.4550 C.3   435  GP7435      0.0116
     11  C14       45.7560   83.5570    2.3260 C.3   435  GP7435      0.0006
     12  C15       44.7960   82.4600    1.9870 C.3   435  GP7435      0.0000
     13  C16       43.2900   82.7000    2.4720 C.3   435  GP7435      0.0000
     14  C17       42.6210   81.2430    2.5890 C.3   435  GP7435      0.0000
     15  C18       41.1420   81.0520    1.8960 C.3   435  GP7435      0.0000
     16  C19       41.1170   79.5570    1.8350 C.3   435  GP7435      0.0000
     17  O1P       54.6500   83.9650    6.7380 O.3   435  GP7435     -0.1145
     18  C20       41.8250   78.5960    3.0190 C.3   435  GP7435      0.0000
     19  C21       42.3580   77.3100    2.2940 C.3   435  GP7435      0.0000
     20  C22       41.2660   76.2100    2.2040 C.3   435  GP7435      0.0000
     21  C23       42.0970   74.8760    2.1540 C.3   435  GP7435      0.0000
     22  C24       41.7920   73.9830    0.9360 C.3   435  GP7435      0.0000
     23  C25       40.4470   74.3190    0.2470 C.3   435  GP7435      0.0000
     24  O2P       54.6310   86.5210    6.6250 O.2   435  GP7435     -0.2224
     25  C31       51.4860   81.2990    7.0210 C.2   435  GP7435      0.3171
     26  O31       51.5340   81.3860    8.2530 O.2   435  GP7435     -0.2501
     27  C32       50.3840   80.4770    6.3230 C.3   435  GP7435      0.1099
     28  C33       48.9330   80.6550    6.8580 C.3   435  GP7435      0.0163
     29  C34       48.6190   79.4280    7.8400 C.3   435  GP7435      0.0263
     30  C35       47.5310   78.3820    7.4610 C.2   435  GP7435     -0.0307
     31  C36       47.8010   76.9080    7.7080 C.2   435  GP7435     -0.0307
     32  C37       46.6040   75.8520    7.7740 C.3   435  GP7435      0.0257
     33  C38       45.6370   75.6050    6.5730 C.3   435  GP7435      0.0047
     34  C39       44.5360   74.6830    6.8920 C.3   435  GP7435      0.0003
     35  O3P       52.9150   85.1260    5.4310 O.3   435  GP7435     -0.2662
     36  C40       43.3760   74.6870    5.6660 C.3   435  GP7435      0.0000
     37  C41       42.5880   73.4010    5.5740 C.3   435  GP7435      0.0000
     38  C42       42.1050   72.5150    6.9010 C.3   435  GP7435      0.0000
     39  C43       40.8960   71.6160    6.6500 C.3   435  GP7435      0.0000
     40  C44       39.8950   71.5080    7.9300 C.3   435  GP7435      0.0000
     41  C45       39.2240   70.1270    8.0840 C.3   435  GP7435      0.0000
     42  C46       38.0620   70.3400    9.1110 C.3   435  GP7435      0.0000
     43  O4P       52.7990   85.2730    7.8550 O.3   435  GP7435     -0.1145
@<TRIPOS>BOND
     1    23    22    1
     2    22    21    1
     3    16    15    1
     4    16    18    1
     5    15    14    1
     6    12    11    1
     7    12    13    1
     8     8     7    2
     9    21    20    1
    10    20    19    1
    11    19    18    1
    12    11    10    1
    13    10     9    1
    14    13    14    1
    15     7     9    1
    16     7     6    1
    17     5     6    1
    18     5     3    1
    19     2     3    1
    20     2    35    1
    21     3     4    1
    22    35     1    1
    23    37    36    1
    24    37    38    1
    25    36    34    1
    26     4    25    1
    27    27    28    1
    28    27    25    1
    29    33    34    1
    30    33    32    1
    31    24     1    2
    32    39    38    1
    33    39    40    1
    34    17     1    1
    35     1    43    1
    36    28    29    1
    37    25    26    2
    38    30    31    2
    39    30    29    1
    40    31    32    1
    41    40    41    1
    42    41    42    1
