@<TRIPOS>MOLECULE
3nn1_HEM_A_1.pdb
 43 50 0 0 0
SMALL
GASTEIGER

@<TRIPOS>ATOM
      1  CHA       -4.9060   50.4910   -8.2910 C.2   239  HEM239      0.0000
      2  CHB       -8.3230   48.1880  -10.7480 C.2   239  HEM239      0.0000
      3  CHC       -9.4870   45.8850   -6.6880 C.2   239  HEM239      0.0000
      4  CHD       -5.5910   47.6430   -4.4490 C.2   239  HEM239      0.0000
      5  C1A       -5.7120   50.0680   -9.3130 C.ar  239  HEM239      0.0000
      6  C2A       -5.6610   50.5350  -10.6630 C.ar  239  HEM239      0.0000
      7  C3A       -6.6240   49.9180  -11.3420 C.ar  239  HEM239      0.0000
      8  C4A       -7.2910   49.0160  -10.4330 C.ar  239  HEM239      0.0000
      9  CMA       -6.9890   50.0700  -12.8430 C.3   239  HEM239      0.0000
     10  CAA       -4.6860   51.6010  -11.2480 C.3   239  HEM239      0.0000
     11  CBA       -5.2320   53.0100  -11.0950 C.3   239  HEM239      0.0000
     12  CGA       -4.2990   54.0200  -11.7270 C.2   239  HEM239      0.0000
     13  O1A       -3.9730   53.8310  -12.9280 O.co2 239  HEM239      0.0000
     14  O2A       -3.8610   55.0160  -11.0700 O.co2 239  HEM239      0.0000
     15  C1B       -9.0100   47.4360   -9.8330 C.2   239  HEM239      0.0000
     16  C2B      -10.2980   46.8320  -10.0430 C.2   239  HEM239      0.0000
     17  C3B      -10.6430   46.1950   -8.9030 C.2   239  HEM239      0.0000
     18  C4B       -9.5590   46.4040   -7.9480 C.2   239  HEM239      0.0000
     19  CMB      -11.0580   46.9500  -11.3940 C.3   239  HEM239      0.0000
     20  CAB      -11.9220   45.3780   -8.5310 C.2   239  HEM239      0.0000
     21  CBB      -13.0050   45.2930   -9.2980 C.2   239  HEM239      0.0000
     22  C1C       -8.4840   46.0910   -5.7490 C.ar  239  HEM239      0.0000
     23  C2C       -8.4170   45.4880   -4.4490 C.ar  239  HEM239      0.0000
     24  C3C       -7.3420   45.9960   -3.8330 C.ar  239  HEM239      0.0000
     25  C4C       -6.7120   46.9220   -4.7250 C.ar  239  HEM239      0.0000
     26  CMC       -9.4240   44.4400   -3.8940 C.3   239  HEM239      0.0000
     27  CAC       -6.7780   45.7060   -2.4440 C.2   239  HEM239      0.0000
     28  CBC       -7.5720   45.4790   -1.3940 C.2   239  HEM239      0.0000
     29  C1D       -5.0960   48.6240   -5.2610 C.2   239  HEM239      0.0000
     30  C2D       -4.0010   49.4630   -4.8900 C.2   239  HEM239      0.0000
     31  C3D       -3.8150   50.3650   -6.0670 C.2   239  HEM239      0.0000
     32  C4D       -4.7770   49.9380   -7.0490 C.2   239  HEM239      0.0000
     33  CMD       -3.2560   49.4150   -3.5520 C.3   239  HEM239      0.0000
     34  CAD       -2.7720   51.4870   -6.2370 C.3   239  HEM239      0.0000
     35  CBD       -1.4760   50.8860   -6.7850 C.3   239  HEM239      0.0000
     36  CGD       -0.5980   51.9820   -7.2880 C.2   239  HEM239      0.0000
     37  O1D       -1.1200   52.8870   -7.9800 O.co2 239  HEM239      0.0000
     38  O2D        0.6360   51.9380   -7.0100 O.co2 239  HEM239      0.0000
     39  NA        -6.7040   49.0860   -9.1780 N.ar  239  HEM239      0.0000
     40  NB        -8.5630   47.1640   -8.5470 N.2   239  HEM239      0.0000
     41  NC        -7.4160   46.9600   -5.8930 N.ar  239  HEM239      0.0000
     42  ND        -5.5380   48.8970   -6.5380 N.2   239  HEM239      0.0000
     43 FE         -7.0530   47.9740   -7.5850 Fe    239  HEM239      0.0000
@<TRIPOS>BOND
     1    13    12   ar
     2     9     7    1
     3    12    11    1
     4    12    14   ar
     5    19    16    1
     6     7     6   ar
     7     7     8   ar
     8    10    11    1
     9    10     6    1
    10     2     8    2
    11     2    15    1
    12     6     5   ar
    13     8    39   ar
    14    16    15    1
    15    16    17    2
    16    15    40    2
    17     5    39   ar
    18     5     1    2
    19    21    20    2
    20    39    43    1
    21    17    20    1
    22    17    18    1
    23    40    18    1
    24    40    43    1
    25     1    32    1
    26    37    36   ar
    27    18     3    2
    28    43    42    1
    29    43    41    1
    30    36    38   ar
    31    36    35    1
    32    32    42    2
    33    32    31    1
    34    35    34    1
    35     3    22    1
    36    42    29    1
    37    34    31    1
    38    31    30    2
    39    41    22   ar
    40    41    25   ar
    41    22    23   ar
    42    29    30    1
    43    29     4    2
    44    30    33    1
    45    25     4    1
    46    25    24   ar
    47    23    26    1
    48    23    24   ar
    49    24    27    1
    50    27    28    2
