@<TRIPOS>MOLECULE
3nn2_HEM_A_1.pdb
 43 50 0 0 0
SMALL
GASTEIGER

@<TRIPOS>ATOM
      1  CHA       -4.8470   50.3590   -8.3090 C.2   239  HEM239      0.0000
      2  CHB       -8.4390   48.2030  -10.6770 C.2   239  HEM239      0.0000
      3  CHC       -9.6020   45.8840   -6.6210 C.2   239  HEM239      0.0000
      4  CHD       -5.6570   47.5970   -4.3990 C.2   239  HEM239      0.0000
      5  C1A       -5.7120   49.9660   -9.2840 C.ar  239  HEM239      0.0000
      6  C2A       -5.7030   50.4670  -10.6380 C.ar  239  HEM239      0.0000
      7  C3A       -6.6990   49.8870  -11.2920 C.ar  239  HEM239      0.0000
      8  C4A       -7.3760   49.0040  -10.3700 C.ar  239  HEM239      0.0000
      9  CMA       -7.0870   50.1250  -12.7790 C.3   239  HEM239      0.0000
     10  CAA       -4.7250   51.4900  -11.2430 C.3   239  HEM239      0.0000
     11  CBA       -5.1530   52.9270  -11.0150 C.3   239  HEM239      0.0000
     12  CGA       -4.2290   53.8980  -11.7300 C.2   239  HEM239      0.0000
     13  O1A       -3.9660   53.7010  -12.9630 O.co2 239  HEM239      0.0000
     14  O2A       -3.7490   54.8640  -11.0650 O.co2 239  HEM239      0.0000
     15  C1B       -9.0990   47.4390   -9.7500 C.2   239  HEM239      0.0000
     16  C2B      -10.3940   46.8210   -9.9440 C.2   239  HEM239      0.0000
     17  C3B      -10.7290   46.1860   -8.8090 C.2   239  HEM239      0.0000
     18  C4B       -9.6430   46.4000   -7.8800 C.2   239  HEM239      0.0000
     19  CMB      -11.1880   46.9190  -11.2600 C.3   239  HEM239      0.0000
     20  CAB      -11.9990   45.3630   -8.4360 C.2   239  HEM239      0.0000
     21  CBB      -13.1460   45.4140   -9.1150 C.2   239  HEM239      0.0000
     22  C1C       -8.5960   46.0860   -5.7030 C.ar  239  HEM239      0.0000
     23  C2C       -8.5250   45.4570   -4.3970 C.ar  239  HEM239      0.0000
     24  C3C       -7.4420   45.9400   -3.7800 C.ar  239  HEM239      0.0000
     25  C4C       -6.8050   46.8820   -4.6760 C.ar  239  HEM239      0.0000
     26  CMC       -9.5410   44.4300   -3.8540 C.3   239  HEM239      0.0000
     27  CAC       -6.8800   45.5990   -2.3950 C.2   239  HEM239      0.0000
     28  CBC       -7.6350   45.4300   -1.3210 C.2   239  HEM239      0.0000
     29  C1D       -5.1150   48.5660   -5.2140 C.2   239  HEM239      0.0000
     30  C2D       -4.0120   49.4220   -4.8660 C.2   239  HEM239      0.0000
     31  C3D       -3.7910   50.2760   -6.0880 C.2   239  HEM239      0.0000
     32  C4D       -4.7610   49.8500   -7.0500 C.2   239  HEM239      0.0000
     33  CMD       -3.2460   49.4530   -3.5170 C.3   239  HEM239      0.0000
     34  CAD       -2.7510   51.3890   -6.2770 C.3   239  HEM239      0.0000
     35  CBD       -1.4490   50.7720   -6.7680 C.3   239  HEM239      0.0000
     36  CGD       -0.6190   51.8820   -7.3590 C.2   239  HEM239      0.0000
     37  O1D       -1.1610   52.6500   -8.1910 O.co2 239  HEM239      0.0000
     38  O2D        0.5800   51.9780   -7.0180 O.co2 239  HEM239      0.0000
     39  NA        -6.7480   49.0650   -9.1410 N.ar  239  HEM239      0.0000
     40  NB        -8.6480   47.1740   -8.4800 N.2   239  HEM239      0.0000
     41  NC        -7.5260   46.9340   -5.8430 N.ar  239  HEM239      0.0000
     42  ND        -5.5480   48.8390   -6.5150 N.2   239  HEM239      0.0000
     43 FE         -7.1430   47.9840   -7.5190 Fe    239  HEM239      0.0000
@<TRIPOS>BOND
     1    13    12   ar
     2     9     7    1
     3    12    14   ar
     4    12    11    1
     5     7     6   ar
     6     7     8   ar
     7    19    16    1
     8    10    11    1
     9    10     6    1
    10     2     8    2
    11     2    15    1
    12     6     5   ar
    13     8    39   ar
    14    16    15    1
    15    16    17    2
    16    15    40    2
    17     5    39   ar
    18     5     1    2
    19    39    43    1
    20    21    20    2
    21    17    20    1
    22    17    18    1
    23    40    18    1
    24    40    43    1
    25     1    32    1
    26    37    36   ar
    27    18     3    2
    28    43    42    1
    29    43    41    1
    30    36    38   ar
    31    36    35    1
    32    32    42    2
    33    32    31    1
    34    35    34    1
    35     3    22    1
    36    42    29    1
    37    34    31    1
    38    31    30    2
    39    41    22   ar
    40    41    25   ar
    41    22    23   ar
    42    29    30    1
    43    29     4    2
    44    30    33    1
    45    25     4    1
    46    25    24   ar
    47    23    26    1
    48    23    24   ar
    49    24    27    1
    50    27    28    2
