@<TRIPOS>MOLECULE
3nn3_HEM_A_1.pdb
 43 50 0 0 0
SMALL
GASTEIGER

@<TRIPOS>ATOM
      1  CHA       12.4600   24.8140   13.3370 C.2   239  HEM239      0.0000
      2  CHB       10.2190   28.9630   13.9250 C.2   239  HEM239      0.0000
      3  CHC        7.4300   26.8740   17.2970 C.2   239  HEM239      0.0000
      4  CHD        9.5080   22.6640   16.4700 C.2   239  HEM239      0.0000
      5  C1A       12.0950   26.1140   13.1950 C.ar  239  HEM239      0.0000
      6  C2A       12.7020   27.0630   12.2650 C.ar  239  HEM239      0.0000
      7  C3A       12.0650   28.2100   12.4050 C.ar  239  HEM239      0.0000
      8  C4A       11.0580   28.0130   13.4340 C.ar  239  HEM239      0.0000
      9  CMA       12.3520   29.5050   11.6190 C.3   239  HEM239      0.0000
     10  CAA       13.8290   26.7830   11.2480 C.3   239  HEM239      0.0000
     11  CBA       15.1920   26.7850   11.9200 C.3   239  HEM239      0.0000
     12  CGA       16.3200   26.7270   10.8980 C.2   239  HEM239      0.0000
     13  O1A       16.2310   27.3580    9.8250 O.co2 239  HEM239      0.0000
     14  O2A       17.3470   26.0560   11.1430 O.co2 239  HEM239      0.0000
     15  C1B        9.3420   28.7370   14.9470 C.2   239  HEM239      0.0000
     16  C2B        8.5710   29.7800   15.5780 C.2   239  HEM239      0.0000
     17  C3B        7.8090   29.2090   16.4920 C.2   239  HEM239      0.0000
     18  C4B        8.0590   27.7810   16.4790 C.2   239  HEM239      0.0000
     19  CMB        8.5980   31.2830   15.2480 C.3   239  HEM239      0.0000
     20  CAB        6.8200   29.9730   17.3900 C.2   239  HEM239      0.0000
     21  CBB        7.0530   30.1250   18.7020 C.2   239  HEM239      0.0000
     22  C1C        7.7120   25.5530   17.3530 C.ar  239  HEM239      0.0000
     23  C2C        7.0660   24.5520   18.1890 C.ar  239  HEM239      0.0000
     24  C3C        7.6870   23.3940   17.9420 C.ar  239  HEM239      0.0000
     25  C4C        8.7020   23.6350   16.9660 C.ar  239  HEM239      0.0000
     26  CMC        5.9060   24.7940   19.1730 C.3   239  HEM239      0.0000
     27  CAC        7.4380   21.9940   18.5200 C.2   239  HEM239      0.0000
     28  CBC        6.9370   21.8330   19.7390 C.2   239  HEM239      0.0000
     29  C1D       10.5170   22.8660   15.5800 C.2   239  HEM239      0.0000
     30  C2D       11.4230   21.8330   15.1930 C.2   239  HEM239      0.0000
     31  C3D       12.3420   22.5110   14.1890 C.2   239  HEM239      0.0000
     32  C4D       11.8810   23.8720   14.1180 C.2   239  HEM239      0.0000
     33  CMD       11.4260   20.3660   15.6640 C.3   239  HEM239      0.0000
     34  CAD       13.5290   21.8760   13.4230 C.3   239  HEM239      0.0000
     35  CBD       13.0660   21.1680   12.1460 C.3   239  HEM239      0.0000
     36  CGD       14.2670   20.9350   11.2330 C.2   239  HEM239      0.0000
     37  O1D       15.0770   21.8990   11.0700 O.co2 239  HEM239      0.0000
     38  O2D       14.4370   19.8030   10.6510 O.co2 239  HEM239      0.0000
     39  NA        11.1060   26.7200   13.9140 N.ar  239  HEM239      0.0000
     40  NB         9.0240   27.5200   15.5250 N.2   239  HEM239      0.0000
     41  NC         8.7000   24.9630   16.6190 N.ar  239  HEM239      0.0000
     42  ND        10.8010   24.0540   14.9280 N.2   239  HEM239      0.0000
     43 FE          9.8450   25.7680   15.2690 Fe    239  HEM239      0.0000
@<TRIPOS>BOND
     1    13    12   ar
     2    38    36   ar
     3    12    14   ar
     4    12    11    1
     5    37    36   ar
     6    36    35    1
     7    10    11    1
     8    10     6    1
     9     9     7    1
    10    35    34    1
    11     6     7   ar
    12     6     5   ar
    13     7     8   ar
    14     5     1    2
    15     5    39   ar
    16     1    32    1
    17    34    31    1
    18     8    39   ar
    19     8     2    2
    20    39    43    1
    21     2    15    1
    22    32    31    1
    23    32    42    2
    24    31    30    2
    25    42    43    1
    26    42    29    1
    27    15    40    2
    28    15    16    1
    29    30    29    1
    30    30    33    1
    31    19    16    1
    32    43    40    1
    33    43    41    1
    34    40    18    1
    35    16    17    2
    36    29     4    2
    37     4    25    1
    38    18    17    1
    39    18     3    2
    40    17    20    1
    41    41    25   ar
    42    41    22   ar
    43    25    24   ar
    44     3    22    1
    45    22    23   ar
    46    20    21    2
    47    24    23   ar
    48    24    27    1
    49    23    26    1
    50    27    28    2
