@<TRIPOS>MOLECULE
3nn4_HEM_A_1.pdb
 43 50 0 0 0
SMALL
GASTEIGER

@<TRIPOS>ATOM
      1  CHA      -12.6960   25.0280  -13.2440 C.2   239  HEM239      0.0000
      2  CHB      -10.3830   29.2110  -13.8680 C.2   239  HEM239      0.0000
      3  CHC       -7.7020   27.0620  -17.3110 C.2   239  HEM239      0.0000
      4  CHD       -9.8680   22.8150  -16.5630 C.2   239  HEM239      0.0000
      5  C1A      -12.3180   26.3320  -13.0800 C.2   239  HEM239      0.0000
      6  C2A      -12.8610   27.2730  -12.1190 C.2   239  HEM239      0.0000
      7  C3A      -12.2020   28.4250  -12.2850 C.2   239  HEM239      0.0000
      8  C4A      -11.2490   28.2540  -13.3630 C.2   239  HEM239      0.0000
      9  CMA      -12.4080   29.7360  -11.5230 C.3   239  HEM239      0.0000
     10  CAA      -13.9630   26.9810  -11.0690 C.3   239  HEM239      0.0000
     11  CBA      -15.3670   26.9540  -11.6620 C.3   239  HEM239      0.0000
     12  CGA      -16.3910   26.7830  -10.5340 C.2   239  HEM239      0.0000
     13  O1A      -16.4280   27.6210   -9.5850 O.co2 239  HEM239      0.0000
     14  O2A      -17.2170   25.8170  -10.5340 O.co2 239  HEM239      0.0000
     15  C1B       -9.4820   28.9950  -14.8980 C.ar  239  HEM239      0.0000
     16  C2B       -8.6660   30.0100  -15.5390 C.ar  239  HEM239      0.0000
     17  C3B       -7.9420   29.4230  -16.4640 C.ar  239  HEM239      0.0000
     18  C4B       -8.2620   28.0030  -16.4710 C.ar  239  HEM239      0.0000
     19  CMB       -8.6120   31.5180  -15.2260 C.3   239  HEM239      0.0000
     20  CAB       -6.9390   30.1620  -17.3610 C.2   239  HEM239      0.0000
     21  CBB       -7.3080   30.4990  -18.5980 C.2   239  HEM239      0.0000
     22  C1C       -8.0210   25.7250  -17.3770 C.2   239  HEM239      0.0000
     23  C2C       -7.3460   24.7360  -18.1910 C.2   239  HEM239      0.0000
     24  C3C       -7.9560   23.5680  -17.9780 C.2   239  HEM239      0.0000
     25  C4C       -9.0170   23.7740  -17.0370 C.2   239  HEM239      0.0000
     26  CMC       -6.1470   25.0060  -19.1380 C.3   239  HEM239      0.0000
     27  CAC       -7.5960   22.2190  -18.6230 C.2   239  HEM239      0.0000
     28  CBC       -7.0640   22.1960  -19.8460 C.2   239  HEM239      0.0000
     29  C1D      -10.8650   23.0230  -15.6360 C.ar  239  HEM239      0.0000
     30  C2D      -11.8490   22.0390  -15.2360 C.ar  239  HEM239      0.0000
     31  C3D      -12.6960   22.7480  -14.2080 C.ar  239  HEM239      0.0000
     32  C4D      -12.1630   24.0740  -14.0940 C.ar  239  HEM239      0.0000
     33  CMD      -12.0290   20.5760  -15.6970 C.3   239  HEM239      0.0000
     34  CAD      -13.8910   22.1580  -13.4570 C.3   239  HEM239      0.0000
     35  CBD      -13.5580   21.9920  -11.9770 C.3   239  HEM239      0.0000
     36  CGD      -12.6780   20.7770  -11.8140 C.2   239  HEM239      0.0000
     37  O1D      -13.2350   19.7190  -11.3770 O.co2 239  HEM239      0.0000
     38  O2D      -11.4430   20.8780  -12.1210 O.co2 239  HEM239      0.0000
     39  NA       -11.3510   26.9500  -13.8250 N.2   239  HEM239      0.0000
     40  NB        -9.2160   27.7740  -15.5000 N.ar  239  HEM239      0.0000
     41  NC        -9.0350   25.1010  -16.6860 N.2   239  HEM239      0.0000
     42  ND       -11.0800   24.2060  -14.9440 N.ar  239  HEM239      0.0000
     43 FE        -10.0820   26.0140  -15.1560 Fe    239  HEM239      0.0000
@<TRIPOS>BOND
     1    28    27    2
     2    26    23    1
     3    27    24    1
     4    21    20    2
     5    23    24    2
     6    23    22    1
     7    24    25    1
     8    22     3    2
     9    22    41    1
    10    20    17    1
    11     3    18    1
    12    25    41    2
    13    25     4    1
    14    41    43    1
    15     4    29    2
    16    18    17   ar
    17    18    40   ar
    18    17    16   ar
    19    33    30    1
    20    29    30   ar
    21    29    42   ar
    22    16    19    1
    23    16    15   ar
    24    40    43    1
    25    40    15   ar
    26    30    31   ar
    27    43    42    1
    28    43    39    1
    29    42    32   ar
    30    15     2    1
    31    31    32   ar
    32    31    34    1
    33    32     1    2
    34     2     8    2
    35    39     8    1
    36    39     5    2
    37    34    35    1
    38     8     7    1
    39     1     5    1
    40     5     6    1
    41     7     6    2
    42     7     9    1
    43    38    36   ar
    44     6    10    1
    45    35    36    1
    46    36    37   ar
    47    11    10    1
    48    11    12    1
    49    12    14   ar
    50    12    13   ar
