@<TRIPOS>MOLECULE
3nn6_GP7_X_1.pdb
 43 42 0 0 0
SMALL
GASTEIGER

@<TRIPOS>ATOM
      1  P         78.8560   53.9840    6.7750 P.3   435  GP7435      0.5327
      2  C1        80.8760   53.4290    5.1780 C.3   435  GP7435      0.2010
      3  C2        81.7170   52.1620    5.5100 C.3   435  GP7435      0.2422
      4  O2        82.7890   52.3310    6.4960 O.3   435  GP7435     -0.4457
      5  C3        82.2700   51.6150    4.1920 C.3   435  GP7435      0.2543
      6  O3        82.2200   50.1800    4.2540 O.3   435  GP7435     -0.4444
      7  C11       81.7510   49.3680    3.1560 C.2   435  GP7435      0.3171
      8  O11       82.1580   49.6390    2.0420 O.2   435  GP7435     -0.2501
      9  C12       80.8210   48.2190    3.4000 C.3   435  GP7435      0.1096
     10  C13       81.0370   47.1450    2.3400 C.3   435  GP7435      0.0116
     11  C14       81.7910   45.8810    2.8050 C.3   435  GP7435      0.0006
     12  C15       81.3790   44.6940    1.9620 C.3   435  GP7435      0.0000
     13  C16       81.4660   43.2720    2.4960 C.3   435  GP7435      0.0000
     14  C17       82.8700   42.8850    2.2450 C.3   435  GP7435      0.0000
     15  C18       83.0050   41.3910    2.1390 C.3   435  GP7435      0.0000
     16  C19       84.4600   41.2870    1.7170 C.3   435  GP7435      0.0000
     17  O1P       79.8950   55.0650    7.1460 O.3   435  GP7435     -0.1145
     18  C20       85.5300   41.0000    2.7480 C.3   435  GP7435      0.0003
     19  C21       86.7190   41.8800    2.4010 C.3   435  GP7435      0.0047
     20  C22       88.0880   41.2400    2.2730 C.3   435  GP7435      0.0257
     21  C23       89.2120   42.2830    2.1330 C.2   435  GP7435     -0.0307
     22  C24       90.3620   41.9490    1.1640 C.2   435  GP7435     -0.0304
     23  C25       90.2140   40.6360    0.3740 C.3   435  GP7435      0.0303
     24  O2P       77.4800   54.6320    6.5660 O.2   435  GP7435     -0.2224
     25  C31       83.2360   51.0890    7.1910 C.2   435  GP7435      0.3171
     26  O31       83.1840   51.0310    8.4140 O.2   435  GP7435     -0.2501
     27  C32       83.7660   49.8840    6.4360 C.3   435  GP7435      0.1096
     28  C33       84.0180   48.6000    7.2360 C.3   435  GP7435      0.0116
     29  C34       85.4570   48.5520    7.8140 C.3   435  GP7435      0.0006
     30  C35       86.3150   47.3130    7.4680 C.3   435  GP7435      0.0000
     31  C36       87.8060   47.5090    7.7720 C.3   435  GP7435      0.0000
     32  C37       88.7790   46.3110    7.8750 C.3   435  GP7435      0.0000
     33  C38       88.8300   45.3560    6.6880 C.3   435  GP7435      0.0000
     34  C39       89.7770   44.1950    6.9480 C.3   435  GP7435      0.0000
     35  O3P       79.4610   53.3120    5.4360 O.3   435  GP7435     -0.2662
     36  C40       89.9010   43.2000    5.7680 C.3   435  GP7435      0.0000
     37  C41       91.4030   42.7670    5.5910 C.3   435  GP7435      0.0000
     38  C42       91.8970   42.0500    6.8730 C.3   435  GP7435      0.0000
     39  C43       92.9000   40.9510    6.6040 C.3   435  GP7435      0.0000
     40  C44       93.2260   40.2060    7.9410 C.3   435  GP7435      0.0000
     41  C45       94.3610   39.1800    7.7550 C.3   435  GP7435      0.0000
     42  C46       94.4710   38.1680    8.9240 C.3   435  GP7435      0.0000
     43  O4P       78.8930   52.8270    7.7620 O.3   435  GP7435     -0.1145
@<TRIPOS>BOND
     1    23    22    1
     2    22    21    2
     3    16    15    1
     4    16    18    1
     5    12    13    1
     6    12    11    1
     7     8     7    2
     8    21    20    1
     9    15    14    1
    10    14    13    1
    11    20    19    1
    12    10    11    1
    13    10     9    1
    14    19    18    1
    15     7     9    1
    16     7     6    1
    17     5     6    1
    18     5     3    1
    19     2    35    1
    20     2     3    1
    21    35     1    1
    22     3     4    1
    23    37    36    1
    24    37    38    1
    25    36    34    1
    26    27    25    1
    27    27    28    1
    28     4    25    1
    29    24     1    2
    30    39    38    1
    31    39    40    1
    32    33    34    1
    33    33    32    1
    34     1    17    1
    35     1    43    1
    36    25    26    2
    37    28    29    1
    38    30    31    1
    39    30    29    1
    40    41    40    1
    41    41    42    1
    42    31    32    1
