@<TRIPOS>MOLECULE
3nn6_HNK_X_1.pdb
 13 14 0 0 0
SMALL
GASTEIGER

@<TRIPOS>ATOM
      1  N1        97.2900   44.6470   15.2610 N.2   433  HNK433     -0.1750
      2  C2        97.7100   43.5710   15.9590 C.2   433  HNK433      0.1081
      3  C3        97.4140   43.5560   17.3350 C.2   433  HNK433      0.0129
      4  C4        96.7500   44.6410   17.9560 C.2   433  HNK433      0.0110
      5  C5        96.3960   45.7550   17.2040 C.2   433  HNK433      0.0938
      6  C6        96.7030   45.7010   15.8290 C.1   433  HNK433      0.1551
      7  O6        96.4620   46.7440   15.0280 O.2   433  HNK433     -0.2219
      8  C7        97.7790   42.3270   18.1380 C.3   433  HNK433      0.0817
      9  C8        98.6560   42.3320   19.1440 C.3   433  HNK433      0.0220
     10  C9        98.2970   41.1200   20.0520 C.3   433  HNK433      0.0191
     11  C10       97.1330   40.4070   19.3030 C.3   433  HNK433      0.0724
     12  N11       97.2290   41.0860   18.0360 N.3   433  HNK433     -0.2691
     13  C12       96.8870   40.2670   16.8120 C.3   433  HNK433      0.0899
@<TRIPOS>BOND
     1     7     6    2
     2     1     6    2
     3     1     2    1
     4     6     5    1
     5     2     3    2
     6    13    12    1
     7     5     4    2
     8     3     4    1
     9     3     8    1
    10    12     8    1
    11    12    11    1
    12     8     9    1
    13     9    10    1
    14    11    10    1
