@<TRIPOS>MOLECULE
3nnf_AKG_A_1.pdb
 10 9 0 0 0
SMALL
GASTEIGER

@<TRIPOS>ATOM
      1  C1       -10.8110   -0.1370  -20.0600 C.2   500  AKG500      0.4219
      2  O1       -11.4630    0.1750  -19.0400 O.co2 500  AKG500     -0.2373
      3  O2       -11.0310    0.2990  -21.2030 O.co2 500  AKG500     -0.2373
      4  C2        -9.6830   -1.1330  -19.8810 C.2   500  AKG500      0.2526
      5  O5        -8.9840   -1.4070  -20.8590 O.2   500  AKG500     -0.2843
      6  C3        -9.4420   -1.6700  -18.4450 C.3   500  AKG500      0.0881
      7  C4        -8.1610   -2.5040  -18.2740 C.3   500  AKG500      0.1224
      8  C5        -7.9300   -2.9170  -16.8070 C.2   500  AKG500      0.3653
      9  O3        -8.8150   -2.6320  -15.9640 O.co2 500  AKG500     -0.2456
     10  O4        -6.8300   -3.4550  -16.5600 O.co2 500  AKG500     -0.2456
@<TRIPOS>BOND
     1     3     1   ar
     2     5     4    2
     3     1     4    1
     4     1     2   ar
     5     4     6    1
     6     6     7    1
     7     7     8    1
     8     8    10   ar
     9     8     9   ar
