@<TRIPOS>MOLECULE
3nnl_AKG_A_1.pdb
 10 9 0 0 0
SMALL
GASTEIGER

@<TRIPOS>ATOM
      1  C1        14.6420   16.2280    3.2840 C.2   500  AKG500      0.4219
      2  O1        15.1090   16.4070    4.4160 O.co2 500  AKG500     -0.2373
      3  O2        14.4680   17.1080    2.3870 O.co2 500  AKG500     -0.2373
      4  C2        14.2780   14.7630    2.9450 C.2   500  AKG500      0.2526
      5  O5        13.8500   14.4790    1.8300 O.2   500  AKG500     -0.2843
      6  C3        14.4820   13.7520    4.0580 C.3   500  AKG500      0.0881
      7  C4        14.3860   12.3020    3.5640 C.3   500  AKG500      0.1224
      8  C5        14.7210   11.3220    4.7310 C.2   500  AKG500      0.3653
      9  O3        14.9500   11.7860    5.9000 O.co2 500  AKG500     -0.2456
     10  O4        14.7810   10.1200    4.4100 O.co2 500  AKG500     -0.2456
@<TRIPOS>BOND
     1     5     4    2
     2     3     1   ar
     3     4     1    1
     4     4     6    1
     5     1     2   ar
     6     7     6    1
     7     7     8    1
     8    10     8   ar
     9     8     9   ar
