@<TRIPOS>MOLECULE
3nno_RAM_D_1.pdb
 11 11 0 0 0
SMALL
GASTEIGER

@<TRIPOS>ATOM
      1  C1        29.1930   28.7310  -22.0470 C.3   172  RAM172      0.3023
      2  C2        27.9080   29.2740  -22.7000 C.3   172  RAM172      0.2434
      3  C3        26.6650   29.3670  -21.7970 C.3   172  RAM172      0.2198
      4  C4        26.9880   29.4840  -20.3090 C.3   172  RAM172      0.2118
      5  C5        28.0890   28.5250  -19.8990 C.3   172  RAM172      0.1509
      6  C6        28.3100   28.6550  -18.3910 C.3   172  RAM172      0.0350
      7  O1        29.4180   27.3860  -22.4490 O.3   172  RAM172     -0.1869
      8  O2        28.1690   30.5690  -23.2460 O.3   172  RAM172     -0.2148
      9  O3        25.8620   30.4770  -22.1910 O.3   172  RAM172     -0.2174
     10  O4        25.8550   29.1740  -19.5320 O.3   172  RAM172     -0.2177
     11  O5        29.2560   28.8520  -20.6250 O.3   172  RAM172     -0.3264
@<TRIPOS>BOND
     1     8     2    1
     2     2     1    1
     3     2     3    1
     4     7     1    1
     5     9     3    1
     6     1    11    1
     7     3     4    1
     8    11     5    1
     9     4     5    1
    10     4    10    1
    11     5     6    1
