@<TRIPOS>MOLECULE
3nnt_DQA_A_1.pdb
 13 13 0 0 0
SMALL
GASTEIGER

@<TRIPOS>ATOM
      1  C1       -12.2350    4.1440   -4.2100 C.3   253  DQA253      0.2239
      2  C2       -12.6310    2.6590   -4.1440 C.3   253  DQA253      0.0773
      3  C3       -12.7070    2.1730   -2.7030 C.3   253  DQA253      0.1877
      4  O3       -13.0300    0.7710   -2.6600 O.3   253  DQA253     -0.2202
      5  C4       -11.3640    2.3340   -2.0160 C.3   253  DQA253      0.2123
      6  O4       -11.4580    2.0530   -0.6120 O.3   253  DQA253     -0.2177
      7  C5       -10.8210    3.7110   -2.2300 C.3   253  DQA253      0.1877
      8  C6       -11.0340    4.4160   -3.3540 C.3   253  DQA253      0.0773
      9  C        -12.0980    4.6360   -5.6320 C.2   253  DQA253      0.3918
     10  O1       -11.4750    3.9210   -6.4550 O.co2 253  DQA253     -0.2429
     11  O2       -12.5930    5.7720   -5.9540 O.co2 253  DQA253     -0.2429
     12  O5       -10.1950    4.2840   -1.2280 O.3   253  DQA253     -0.2202
     13  O6       -13.2030    4.9590   -3.5480 O.3   253  DQA253     -0.2139
@<TRIPOS>BOND
     1    10     9   ar
     2    11     9   ar
     3     9     1    1
     4     1     2    1
     5     1    13    1
     6     1     8    1
     7     2     3    1
     8     8     7    1
     9     3     4    1
    10     3     5    1
    11     7     5    1
    12     7    12    1
    13     5     6    1
