@<TRIPOS>MOLECULE
3nnu_EDB_A_1.pdb
 32 35 0 0 0
SMALL
GASTEIGER

@<TRIPOS>ATOM
      1  C1        18.6190   12.3390   29.4570 C.ar  355  EDB355      0.0176
      2  C2        19.3070   11.3800   30.2120 C.ar  355  EDB355      0.0023
      3  C3        18.6330   10.5730   31.1380 C.ar  355  EDB355      0.0123
      4  C4        17.2570   10.7300   31.2760 C.ar  355  EDB355      0.0695
      5  C5        16.5780   11.6840   30.5160 C.ar  355  EDB355      0.0835
      6  C6        17.2150   12.4790   29.5820 C.ar  355  EDB355      0.0863
      7  C13       15.9740   15.6040   23.7850 C.ar  355  EDB355      0.1101
      8  C14       16.0910   14.5890   24.7260 C.ar  355  EDB355      0.0576
      9  C15       15.8340   15.2430   25.9330 C.ar  355  EDB355      0.1590
     10  N16       15.5810   16.5590   25.6530 N.ar  355  EDB355     -0.2142
     11  N17       15.6540   16.8170   24.2850 N.ar  355  EDB355     -0.1634
     12  C23       15.3330   17.5750   26.5150 C.ar  355  EDB355      0.0839
     13  C24       14.0000   18.5760   26.2800 C.ar  355  EDB355      0.0154
     14  C25       14.1300   19.6350   27.1710 C.ar  355  EDB355     -0.0115
     15  C26       14.8570   19.7610   28.3590 C.ar  355  EDB355     -0.0037
     16  C27       15.8260   18.7980   28.6240 C.ar  355  EDB355      0.0012
     17  C28       16.0380   17.7520   27.7210 C.ar  355  EDB355      0.0192
     18  N36       15.8350   14.8090   27.2280 N.am  355  EDB355     -0.1418
     19  C38       16.5820   13.7780   27.6300 C.2   355  EDB355      0.3491
     20  O40       17.3030   13.1630   26.8620 O.2   355  EDB355     -0.2484
     21  N42       16.4990   13.4340   28.9100 N.am  355  EDB355     -0.1598
     22  C45       16.2240   15.5020   19.8010 C.ar  355  EDB355      0.0355
     23  S46       15.9340   16.6140   21.1010 S.2   355  EDB355     -0.0849
     24  C47       16.1110   15.3630   22.3120 C.ar  355  EDB355      0.0489
     25  C48       16.3960   14.1160   21.7700 C.ar  355  EDB355      0.0086
     26  C49       16.4460   14.2320   20.3950 C.ar  355  EDB355      0.0075
     27  C56       13.0600   20.6610   26.8480 C.3   355  EDB355      0.1148
     28  C58       13.6560   21.9340   26.2860 C.2   355  EDB355      0.2652
     29  O60       13.2710   23.0280   26.6720 O.2   355  EDB355     -0.2713
     30  N62       14.5920   21.7900   25.3630 N.am  355  EDB355     -0.0875
     31 CL64       14.8210   11.8790   30.6730 Cl    355  EDB355     -0.0800
     32 CL66       16.2990    9.7360   32.4200 Cl    355  EDB355     -0.0813
@<TRIPOS>BOND
     1    22    26   ar
     2    22    23   ar
     3    26    25   ar
     4    23    24   ar
     5    25    24   ar
     6    24     7    1
     7     7    11   ar
     8     7     8   ar
     9    11    10   ar
    10     8     9   ar
    11    30    28   am
    12    10     9   ar
    13    10    12    1
    14     9    18    1
    15    13    12   ar
    16    13    14   ar
    17    28    29    2
    18    28    27    1
    19    12    17   ar
    20    27    14    1
    21    20    19    2
    22    14    15   ar
    23    18    19   am
    24    19    21   am
    25    17    16   ar
    26    15    16   ar
    27    21     6    1
    28     1     6   ar
    29     1     2   ar
    30     6     5   ar
    31     2     3   ar
    32     5    31    1
    33     5     4   ar
    34     3     4   ar
    35     4    32    1
