@<TRIPOS>MOLECULE
3nnv_437_A_1.pdb
 31 34 0 0 0
SMALL
GASTEIGER

@<TRIPOS>ATOM
      1  C1        18.7220   10.9890   30.8090 C.ar  355  437355      0.0001
      2  C2        19.2770   12.0040   30.0190 C.ar  355  437355      0.0013
      3  C3        18.4360   12.7960   29.2250 C.ar  355  437355      0.0166
      4  C4        17.3470   10.7760   30.7950 C.ar  355  437355      0.0013
      5  C5        16.4990   11.5790   30.0070 C.ar  355  437355      0.0154
      6  C6        17.0330   12.6120   29.2050 C.ar  355  437355      0.0749
      7  N7        16.2650   13.4830   28.4360 N.am  355  437355     -0.1606
      8  C8        16.3960   13.7600   27.1350 C.2   355  437355      0.3491
      9  O9        17.2360   13.1860   26.4380 O.2   355  437355     -0.2484
     10  N10       15.5630   14.6880   26.6140 N.am  355  437355     -0.1418
     11  C11       15.5710   15.0430   25.2870 C.ar  355  437355      0.1587
     12  C12       15.9030   14.3430   24.1230 C.ar  355  437355      0.0527
     13  C13       15.6860   15.2810   23.1050 C.ar  355  437355      0.0811
     14  C14       15.8780   14.9880   21.6300 C.3   355  437355      0.0372
     15  C15       17.1910   14.2290   21.3510 C.3   355  437355      0.0060
     16  C16       15.8450   16.2420   20.7370 C.3   355  437355      0.0060
     17  C17       14.6960   14.1050   21.2500 C.3   355  437355      0.0060
     18  N18       15.2250   16.4690   23.5390 N.ar  355  437355     -0.1683
     19  N19       15.1640   16.2840   24.9100 N.ar  355  437355     -0.2145
     20  C20       14.7560   17.3360   25.6540 C.ar  355  437355      0.0842
     21  C21       15.3300   17.7590   26.8550 C.ar  355  437355      0.0190
     22  C22       13.6790   18.1280   25.2050 C.ar  355  437355      0.0190
     23  C23       13.1910   19.2450   25.8860 C.ar  355  437355     -0.0002
     24  C24       13.7920   19.6270   27.0670 C.ar  355  437355      0.0107
     25  C25       13.2530   20.8320   27.8160 C.3   355  437355      0.2086
     26  C26       14.8750   18.8740   27.5630 C.ar  355  437355     -0.0002
     27  O27       12.8460   21.8590   26.9000 O.3   355  437355     -0.2152
     28  C28       15.1300   11.3170   30.0400 C.ar  355  437355      0.0013
     29  C29       14.6240   10.2630   30.8200 C.ar  355  437355      0.0000
     30  C30       15.4710    9.4860   31.6060 C.ar  355  437355      0.0000
     31  C31       16.8340    9.7530   31.5940 C.ar  355  437355      0.0000
@<TRIPOS>BOND
     1    16    14    1
     2    17    14    1
     3    15    14    1
     4    14    13    1
     5    13    18   ar
     6    13    12   ar
     7    18    19   ar
     8    12    11   ar
     9    19    11   ar
    10    19    20    1
    11    22    20   ar
    12    22    23   ar
    13    11    10    1
    14    20    21   ar
    15    23    24   ar
    16     9     8    2
    17    10     8   am
    18    21    26   ar
    19    27    25    1
    20    24    26   ar
    21    24    25    1
    22     8     7   am
    23     7     6    1
    24     6     3   ar
    25     6     5   ar
    26     3     2   ar
    27     5    28   ar
    28     5     4   ar
    29     2     1   ar
    30    28    29   ar
    31     4     1   ar
    32     4    31   ar
    33    29    30   ar
    34    31    30   ar
