@<TRIPOS>MOLECULE
3nnw_EDD_A_1.pdb
 31 33 0 0 0
SMALL
GASTEIGER

@<TRIPOS>ATOM
      1  C1        15.1840   17.2740   26.2830 C.ar  355  EDD355      0.0839
      2  C2        15.8840   17.4720   27.4650 C.ar  355  EDD355      0.0192
      3  C3        15.6390   18.5200   28.3480 C.ar  355  EDD355      0.0012
      4  C4        14.6670   19.4500   28.0490 C.ar  355  EDD355     -0.0037
      5  C5        13.9510   19.3070   26.8740 C.ar  355  EDD355     -0.0115
      6  C6        14.2190   18.2510   26.0160 C.ar  355  EDD355      0.0154
      7  C13       12.9050   20.3290   26.5260 C.3   355  EDD355      0.1148
      8  C14       13.5330   21.6070   25.9780 C.2   355  EDD355      0.2652
      9  N15       14.4480   21.4820   25.0170 N.am  355  EDD355     -0.0875
     10  O19       13.1700   22.6880   26.3990 O.2   355  EDD355     -0.2713
     11  N21       15.4070   16.2570   25.4140 N.ar  355  EDD355     -0.2145
     12  N23       15.4240   16.5250   24.0330 N.ar  355  EDD355     -0.1683
     13  C24       15.6800   15.3330   23.4980 C.ar  355  EDD355      0.0811
     14  C25       15.8200   14.3360   24.4360 C.ar  355  EDD355      0.0527
     15  C26       15.6600   14.9550   25.6590 C.ar  355  EDD355      0.1587
     16  C32       15.7620   15.1040   21.9950 C.3   355  EDD355      0.0372
     17  C34       15.8070   16.4900   21.3210 C.3   355  EDD355      0.0060
     18  C36       14.5240   14.3360   21.5320 C.3   355  EDD355      0.0060
     19  C38       16.9720   14.2380   21.6450 C.3   355  EDD355      0.0060
     20  N40       15.6730   14.4550   26.9340 N.am  355  EDD355     -0.1418
     21  C42       16.4850   13.4900   27.3720 C.2   355  EDD355      0.3491
     22  N43       16.3100   13.1580   28.6880 N.am  355  EDD355     -0.1598
     23  C44       17.0730   12.2890   29.4200 C.ar  355  EDD355      0.0863
     24  O48       17.2960   12.9290   26.6230 O.2   355  EDD355     -0.2484
     25  C50       18.4630   12.1430   29.2640 C.ar  355  EDD355      0.0176
     26  C51       19.1920   11.2480   30.0630 C.ar  355  EDD355      0.0023
     27  C52       18.5560   10.4590   31.0160 C.ar  355  EDD355      0.0123
     28  C53       17.1910   10.5950   31.1790 C.ar  355  EDD355      0.0695
     29  C54       16.4680   11.4980   30.4030 C.ar  355  EDD355      0.0835
     30 CL61       14.6980   11.5900   30.6560 Cl    355  EDD355     -0.0800
     31 CL63       16.2740    9.6390   32.4030 Cl    355  EDD355     -0.0813
@<TRIPOS>BOND
     1    17    16    1
     2    18    16    1
     3    19    16    1
     4    16    13    1
     5    13    12   ar
     6    13    14   ar
     7    12    11   ar
     8    14    15   ar
     9     9     8   am
    10    11    15   ar
    11    11     1    1
    12    15    20    1
    13     8    10    2
    14     8     7    1
    15     6     1   ar
    16     6     5   ar
    17     1     2   ar
    18     7     5    1
    19    24    21    2
    20     5     4   ar
    21    20    21   am
    22    21    22   am
    23     2     3   ar
    24     4     3   ar
    25    22    23    1
    26    25    23   ar
    27    25    26   ar
    28    23    29   ar
    29    26    27   ar
    30    29    30    1
    31    29    28   ar
    32    27    28   ar
    33    28    31    1
