@<TRIPOS>MOLECULE
3nnx_EDD_A_1.pdb
 31 33 0 0 0
SMALL
GASTEIGER

@<TRIPOS>ATOM
      1  C1         6.6480  -38.1000  -25.7670 C.ar  355  EDD355      0.0839
      2  C2         5.5570  -38.9210  -25.5680 C.ar  355  EDD355      0.0192
      3  C3         5.4490  -40.1810  -26.1580 C.ar  355  EDD355      0.0012
      4  C4         6.4490  -40.6340  -27.0080 C.ar  355  EDD355     -0.0037
      5  C5         7.5410  -39.8190  -27.2560 C.ar  355  EDD355     -0.0115
      6  C6         7.6370  -38.5850  -26.6300 C.ar  355  EDD355      0.0154
      7  C13        8.6200  -40.2950  -28.1760 C.3   355  EDD355      0.1148
      8  C14        8.1810  -40.0840  -29.6170 C.2   355  EDD355      0.2652
      9  N15        7.6860  -38.9170  -30.0140 N.am  355  EDD355     -0.0875
     10  O19        8.3330  -40.9780  -30.3990 O.2   355  EDD355     -0.2713
     11  N21        6.7590  -36.9070  -25.2230 N.ar  355  EDD355     -0.2145
     12  N23        7.1720  -35.8710  -26.0150 N.ar  355  EDD355     -0.1683
     13  C24        7.1240  -34.8630  -25.1360 C.ar  355  EDD355      0.0811
     14  C25        6.7100  -35.1890  -23.8570 C.ar  355  EDD355      0.0527
     15  C26        6.4750  -36.5460  -23.9520 C.ar  355  EDD355      0.1587
     16  C32        7.5260  -33.4760  -25.5320 C.3   355  EDD355      0.0372
     17  C34        7.5610  -33.4350  -27.0720 C.3   355  EDD355      0.0060
     18  C36        8.9090  -33.1420  -24.9500 C.3   355  EDD355      0.0060
     19  C38        6.4860  -32.5220  -24.9620 C.3   355  EDD355      0.0060
     20  N40        6.0800  -37.4770  -23.0330 N.am  355  EDD355     -0.1418
     21  C42        5.1870  -37.1660  -22.0990 C.2   355  EDD355      0.3491
     22  N43        4.7530  -38.2230  -21.3620 N.am  355  EDD355     -0.1598
     23  C44        3.8200  -38.1750  -20.3620 C.ar  355  EDD355      0.0863
     24  O48        4.8210  -35.9820  -22.0290 O.2   355  EDD355     -0.2484
     25  C50        2.5650  -37.5930  -20.5820 C.ar  355  EDD355      0.0176
     26  C51        1.6420  -37.5540  -19.5600 C.ar  355  EDD355      0.0023
     27  C52        1.9440  -38.0880  -18.3020 C.ar  355  EDD355      0.0123
     28  C53        3.1820  -38.6900  -18.0380 C.ar  355  EDD355      0.0695
     29  C54        4.0980  -38.6990  -19.0850 C.ar  355  EDD355      0.0835
     30 CL61        5.6710  -39.4670  -18.7640 Cl    355  EDD355     -0.0800
     31 CL63        3.5980  -39.4360  -16.3960 Cl    355  EDD355     -0.0813
@<TRIPOS>BOND
     1    10     8    2
     2     9     8   am
     3     8     7    1
     4     7     5    1
     5     5     4   ar
     6     5     6   ar
     7    17    16    1
     8     4     3   ar
     9     6     1   ar
    10     3     2   ar
    11    12    11   ar
    12    12    13   ar
    13     1     2   ar
    14     1    11    1
    15    16    13    1
    16    16    19    1
    17    16    18    1
    18    11    15   ar
    19    13    14   ar
    20    15    14   ar
    21    15    20    1
    22    20    21   am
    23    21    24    2
    24    21    22   am
    25    22    23    1
    26    25    23   ar
    27    25    26   ar
    28    23    29   ar
    29    26    27   ar
    30    29    30    1
    31    29    28   ar
    32    27    28   ar
    33    28    31    1
