@<TRIPOS>MOLECULE
3nny_HEM_A_1.pdb
 43 50 0 0 0
SMALL
GASTEIGER

@<TRIPOS>ATOM
      1  CHA       13.1140    4.8130   26.5550 C.2   750  HEM750      0.0000
      2  CHB       16.9890    1.8870   26.2120 C.2   750  HEM750      0.0000
      3  CHC       17.9420    3.5960   21.8000 C.2   750  HEM750      0.0000
      4  CHD       14.9000    7.3200   22.7570 C.2   750  HEM750      0.0000
      5  C1A       14.0020    3.7760   26.7440 C.2   750  HEM750      0.0000
      6  C2A       13.8220    2.7040   27.6850 C.2   750  HEM750      0.0000
      7  C3A       14.8790    1.8850   27.6080 C.2   750  HEM750      0.0000
      8  C4A       15.7750    2.4120   26.5910 C.2   750  HEM750      0.0000
      9  CMA       15.0790    0.5970   28.4400 C.3   750  HEM750      0.0000
     10  CAA       12.5870    2.5440   28.5890 C.3   750  HEM750      0.0000
     11  CBA       11.5500    1.9980   27.6180 C.3   750  HEM750      0.0000
     12  CGA       10.4000    1.3430   28.3020 C.2   750  HEM750      0.0000
     13  O1A       10.5840    0.7910   29.4220 O.co2 750  HEM750      0.0000
     14  O2A        9.2970    1.4010   27.7030 O.co2 750  HEM750      0.0000
     15  C1B       17.5570    2.0120   24.9710 C.ar  750  HEM750      0.0000
     16  C2B       18.6010    1.1640   24.4130 C.ar  750  HEM750      0.0000
     17  C3B       18.8670    1.6330   23.1890 C.ar  750  HEM750      0.0000
     18  C4B       18.0130    2.8020   22.9400 C.ar  750  HEM750      0.0000
     19  CMB       19.2440   -0.0630   25.1100 C.3   750  HEM750      0.0000
     20  CAB       19.8880    1.0050   22.2200 C.2   750  HEM750      0.0000
     21  CBB       20.5740    1.7420   21.3480 C.2   750  HEM750      0.0000
     22  C1C       17.1420    4.7330   21.6400 C.2   750  HEM750      0.0000
     23  C2C       17.0420    5.5410   20.4340 C.2   750  HEM750      0.0000
     24  C3C       16.2090    6.5650   20.7110 C.2   750  HEM750      0.0000
     25  C4C       15.7460    6.4450   22.0860 C.2   750  HEM750      0.0000
     26  CMC       17.7630    5.2160   19.0830 C.3   750  HEM750      0.0000
     27  CAC       15.7410    7.7070   19.7920 C.2   750  HEM750      0.0000
     28  CBC       16.4180    8.0570   18.6970 C.2   750  HEM750      0.0000
     29  C1D       14.0600    6.9810   23.8120 C.ar  750  HEM750      0.0000
     30  C2D       12.8790    7.7010   24.2530 C.ar  750  HEM750      0.0000
     31  C3D       12.3560    6.9000   25.4340 C.ar  750  HEM750      0.0000
     32  C4D       13.2400    5.7820   25.5760 C.ar  750  HEM750      0.0000
     33  CMD       12.2720    9.0080   23.6710 C.3   750  HEM750      0.0000
     34  CAD       11.0960    7.1550   26.2960 C.3   750  HEM750      0.0000
     35  CBD        9.9750    6.5060   25.4970 C.3   750  HEM750      0.0000
     36  CGD        8.6430    6.7430   26.1410 C.2   750  HEM750      0.0000
     37  O1D        8.4540    7.8020   26.8270 O.co2 750  HEM750      0.0000
     38  O2D        7.7990    5.8240   25.9750 O.co2 750  HEM750      0.0000
     39  NA        15.2450    3.6130   26.1280 N.2   750  HEM750      0.0000
     40  NB        17.2930    3.0400   24.0810 N.ar  750  HEM750      0.0000
     41  NC        16.3610    5.3400   22.6310 N.2   750  HEM750      0.0000
     42  ND        14.2760    5.9050   24.6600 N.ar  750  HEM750      0.0000
     43 FE         15.8670    4.5320   24.4290 Fe    750  HEM750      0.0000
@<TRIPOS>BOND
     1    28    27    2
     2    26    23    1
     3    27    24    1
     4    23    24    2
     5    23    22    1
     6    24    25    1
     7    21    20    2
     8    22     3    2
     9    22    41    1
    10     3    18    1
    11    25    41    2
    12    25     4    1
    13    20    17    1
    14    41    43    1
    15     4    29    2
    16    18    17   ar
    17    18    40   ar
    18    17    16   ar
    19    33    30    1
    20    29    30   ar
    21    29    42   ar
    22    40    43    1
    23    40    15   ar
    24    30    31   ar
    25    16    15   ar
    26    16    19    1
    27    43    42    1
    28    43    39    1
    29    42    32   ar
    30    15     2    1
    31    31    32   ar
    32    31    34    1
    33    35    36    1
    34    35    34    1
    35    32     1    2
    36    38    36   ar
    37    39     8    1
    38    39     5    2
    39    36    37   ar
    40     2     8    2
    41     1     5    1
    42     8     7    1
    43     5     6    1
    44     7     6    2
    45     7     9    1
    46    11    12    1
    47    11    10    1
    48     6    10    1
    49    14    12   ar
    50    12    13   ar
