@<TRIPOS>MOLECULE
3nny_59R_A_1.pdb
 26 28 0 0 0
SMALL
GASTEIGER

@<TRIPOS>ATOM
      1  C1         6.9930    0.4790   24.7760 C.3   800  59R800      0.1608
      2  O1         6.7330    1.4540   25.7820 O.3   800  59R800     -0.3532
      3  C2         8.4500    0.0570   24.8190 C.3   800  59R800      0.1207
      4  N2         9.3790    1.1340   24.5440 N.3   800  59R800     -0.2150
      5  C3        10.6860    0.7660   24.0600 C.3   800  59R800      0.0935
      6  C4        11.7170    1.8650   24.2890 C.3   800  59R800      0.0452
      7  N1'        6.6630    1.5100   28.7500 N.3   800  59R800     -0.2154
      8  C11       12.9420    1.5130   23.4680 C.ar  800  59R800     -0.0185
      9  C12       13.1220    2.1460   22.2420 C.ar  800  59R800      0.0254
     10  C13       14.2240    1.8270   21.4730 C.ar  800  59R800      0.1398
     11  F13       14.3820    2.4450   20.2890 F     800  59R800     -0.2042
     12  C14       15.1610    0.9010   21.9290 C.ar  800  59R800      0.0296
     13  C15       14.9960    0.2600   23.1550 C.ar  800  59R800      0.0020
     14  C16       13.8730    0.5590   23.9180 C.ar  800  59R800     -0.0041
     15  N1A        5.3730    5.9010   26.8040 N.2   800  59R800     -0.3924
     16  C2'        6.2790    0.3950   27.9030 C.3   800  59R800      0.1182
     17  C2A        4.5270    4.8240   26.7710 C.2   800  59R800      0.1101
     18  C3'        5.6830    1.0900   26.6800 C.3   800  59R800      0.1343
     19  C3A        3.2350    4.9320   27.2940 C.2   800  59R800      0.0235
     20  C4'        5.0670    2.3820   27.2170 C.3   800  59R800      0.0531
     21  C4A        2.8420    6.1440   27.8580 C.2   800  59R800     -0.0149
     22  C5'        5.9210    2.7300   28.4460 C.3   800  59R800      0.0916
     23  C5A        3.7230    7.2290   27.8860 C.3   800  59R800      0.1041
     24  C6A        5.0060    7.0960   27.3510 C.2   800  59R800      0.2004
     25  N6A        5.8540    8.1600   27.3750 N.pl3 800  59R800     -0.0977
     26  C7A        4.9840    3.5060   26.1640 C.3   800  59R800      0.0629
@<TRIPOS>BOND
     1    11    10    1
     2    10    12   ar
     3    10     9   ar
     4    12    13   ar
     5     9     8   ar
     6    13    14   ar
     7     8    14   ar
     8     8     6    1
     9     5     6    1
    10     5     4    1
    11     4     3    1
    12     1     3    1
    13     1     2    1
    14     2    18    1
    15    26    17    1
    16    26    20    1
    17    18    20    1
    18    18    16    1
    19    17    15    2
    20    17    19    1
    21    15    24    2
    22    20    22    1
    23    19    21    2
    24    24    25    1
    25    24    23    1
    26    21    23    1
    27    16     7    1
    28    22     7    1
