@<TRIPOS>MOLECULE
3nny_H4B_A_1.pdb
 17 18 0 0 0
SMALL
GASTEIGER

@<TRIPOS>ATOM
      1  N1         9.8980    2.5390   33.7310 N.2   760  H4B760     -0.2683
      2  C2        10.0790    2.1540   32.4570 C.1   760  H4B760      0.2608
      3  N2        11.3640    2.0630   31.9870 N.pl3 760  H4B760     -0.0220
      4  N3         8.9950    1.8880   31.7010 N.2   760  H4B760     -0.2474
      5  C4         7.7310    1.9890   32.2200 C.1   760  H4B760      0.2441
      6  O4         6.7440    1.7050   31.5010 O.2   760  H4B760     -0.2063
      7  C4A        7.5540    2.4010   33.5430 C.2   760  H4B760      0.2463
      8  C8A        8.6900    2.6910   34.2840 C.1   760  H4B760      0.1270
      9  N5         6.3400    2.5410   34.1380 N.2   760  H4B760     -0.2460
     10  N8         8.6330    3.0840   35.5880 N.2   760  H4B760     -0.2054
     11  C6         6.2730    3.4820   35.2630 C.3   760  H4B760      0.1627
     12  C7         7.3640    3.2190   36.2990 C.3   760  H4B760      0.1643
     13  C9         4.8970    3.5290   35.9120 C.3   760  H4B760      0.2063
     14  O9         4.5770    2.2010   36.3180 O.3   760  H4B760     -0.2183
     15  C10        4.8420    4.4500   37.1220 C.3   760  H4B760      0.1842
     16  C11        3.4130    4.5380   37.6430 C.3   760  H4B760      0.0383
     17  O10        5.2910    5.7570   36.7500 O.3   760  H4B760     -0.2204
@<TRIPOS>BOND
     1     6     5    2
     2     4     5    2
     3     4     2    2
     4     3     2    1
     5     5     7    1
     6     2     1    2
     7     7     9    2
     8     7     8    1
     9     1     8    2
    10     9    11    1
    11     8    10    2
    12    11    13    1
    13    11    12    1
    14    10    12    1
    15    13    14    1
    16    13    15    1
    17    17    15    1
    18    15    16    1
