@<TRIPOS>MOLECULE
3nnz_HEM_A_1.pdb
 43 50 0 0 0
SMALL
GASTEIGER

@<TRIPOS>ATOM
      1  CHA       12.7920    4.8530   26.4700 C.2   750  HEM750      0.0000
      2  CHB       16.5920    1.8840   26.1900 C.2   750  HEM750      0.0000
      3  CHC       17.6490    3.6460   21.8230 C.2   750  HEM750      0.0000
      4  CHD       14.6170    7.3370   22.6330 C.2   750  HEM750      0.0000
      5  C1A       13.6380    3.7900   26.6750 C.2   750  HEM750      0.0000
      6  C2A       13.4090    2.7140   27.6030 C.2   750  HEM750      0.0000
      7  C3A       14.4490    1.8870   27.5390 C.2   750  HEM750      0.0000
      8  C4A       15.3730    2.4050   26.5370 C.2   750  HEM750      0.0000
      9  CMA       14.6400    0.5980   28.3690 C.3   750  HEM750      0.0000
     10  CAA       12.1530    2.5770   28.4940 C.3   750  HEM750      0.0000
     11  CBA       11.0900    1.9120   27.6140 C.3   750  HEM750      0.0000
     12  CGA        9.8880    1.6060   28.4420 C.2   750  HEM750      0.0000
     13  O1A       10.1190    1.1960   29.6140 O.co2 750  HEM750      0.0000
     14  O2A        8.7190    1.7700   27.9480 O.co2 750  HEM750      0.0000
     15  C1B       17.1970    2.0450   24.9660 C.ar  750  HEM750      0.0000
     16  C2B       18.2780    1.2630   24.4120 C.ar  750  HEM750      0.0000
     17  C3B       18.5690    1.7490   23.2060 C.ar  750  HEM750      0.0000
     18  C4B       17.6940    2.8740   22.9670 C.ar  750  HEM750      0.0000
     19  CMB       18.9900    0.0360   25.0640 C.3   750  HEM750      0.0000
     20  CAB       19.6630    1.1350   22.3010 C.2   750  HEM750      0.0000
     21  CBB       20.3240    1.7990   21.3550 C.2   750  HEM750      0.0000
     22  C1C       16.8600    4.7650   21.6280 C.2   750  HEM750      0.0000
     23  C2C       16.8300    5.5380   20.4060 C.2   750  HEM750      0.0000
     24  C3C       15.9910    6.5690   20.6200 C.2   750  HEM750      0.0000
     25  C4C       15.4850    6.4770   21.9880 C.2   750  HEM750      0.0000
     26  CMC       17.6090    5.1300   19.1200 C.3   750  HEM750      0.0000
     27  CAC       15.5580    7.6890   19.6460 C.2   750  HEM750      0.0000
     28  CBC       16.4060    8.1070   18.6850 C.2   750  HEM750      0.0000
     29  C1D       13.8050    6.9820   23.7040 C.ar  750  HEM750      0.0000
     30  C2D       12.6500    7.7220   24.1650 C.ar  750  HEM750      0.0000
     31  C3D       12.1080    6.9390   25.3400 C.ar  750  HEM750      0.0000
     32  C4D       12.9570    5.8080   25.4900 C.ar  750  HEM750      0.0000
     33  CMD       12.0730    9.0430   23.6010 C.3   750  HEM750      0.0000
     34  CAD       10.8630    7.2710   26.1830 C.3   750  HEM750      0.0000
     35  CBD        9.7720    6.4420   25.5040 C.3   750  HEM750      0.0000
     36  CGD        8.4770    6.5910   26.2370 C.2   750  HEM750      0.0000
     37  O1D        8.3460    7.5560   27.0420 O.co2 750  HEM750      0.0000
     38  O2D        7.5950    5.7270   26.0130 O.co2 750  HEM750      0.0000
     39  NA        14.8710    3.6110   26.0710 N.2   750  HEM750      0.0000
     40  NB        16.9160    3.0800   24.1060 N.ar  750  HEM750      0.0000
     41  NC        16.0720    5.4020   22.5820 N.2   750  HEM750      0.0000
     42  ND        13.9930    5.9070   24.5650 N.ar  750  HEM750      0.0000
     43 FE         15.5490    4.5620   24.4120 Fe    750  HEM750      0.0000
@<TRIPOS>BOND
     1    28    27    2
     2    26    23    1
     3    27    24    1
     4    23    24    2
     5    23    22    1
     6    24    25    1
     7    21    20    2
     8    22     3    2
     9    22    41    1
    10     3    18    1
    11    25    41    2
    12    25     4    1
    13    20    17    1
    14    41    43    1
    15     4    29    2
    16    18    17   ar
    17    18    40   ar
    18    17    16   ar
    19    33    30    1
    20    29    30   ar
    21    29    42   ar
    22    40    43    1
    23    40    15   ar
    24    30    31   ar
    25    43    42    1
    26    43    39    1
    27    16    15   ar
    28    16    19    1
    29    42    32   ar
    30    15     2    1
    31    31    32   ar
    32    31    34    1
    33    32     1    2
    34    35    34    1
    35    35    36    1
    36    38    36   ar
    37    39     8    1
    38    39     5    2
    39     2     8    2
    40    36    37   ar
    41     1     5    1
    42     8     7    1
    43     5     6    1
    44     7     6    2
    45     7     9    1
    46     6    10    1
    47    11    12    1
    48    11    10    1
    49    14    12   ar
    50    12    13   ar
