@<TRIPOS>MOLECULE
3nnz_59W_A_1.pdb
 26 28 0 0 0
SMALL
GASTEIGER

@<TRIPOS>ATOM
      1  C1         7.4720    2.5770   24.1510 C.3   800  59W800      0.1608
      2  O1         8.5630    1.8600   24.7130 O.3   800  59W800     -0.3532
      3  C2         6.3340    2.5150   25.1590 C.3   800  59W800      0.1207
      4  N2         6.6980    3.2200   26.3740 N.3   800  59W800     -0.2150
      5  C3         5.6600    3.4900   27.3720 C.3   800  59W800      0.0935
      6  C4         4.5590    4.3100   26.7120 C.3   800  59W800      0.0452
      7  N1'        9.8290   -1.3830   24.9760 N.3   800  59W800     -0.2154
      8  C11        3.5330    4.7890   27.7080 C.ar  800  59W800     -0.0185
      9  C12        3.8220    5.9470   28.4130 C.ar  800  59W800      0.0254
     10  C13        2.9110    6.4440   29.3290 C.ar  800  59W800      0.1398
     11  F13        3.2490    7.5670   29.9950 F     800  59W800     -0.2042
     12  C14        1.6910    5.7790   29.5500 C.ar  800  59W800      0.0296
     13  C15        1.3930    4.6110   28.8350 C.ar  800  59W800      0.0020
     14  C16        2.3180    4.1180   27.9040 C.ar  800  59W800     -0.0041
     15  N1A       13.3080    0.4490   23.9210 N.2   800  59W800     -0.3924
     16  C2'        8.7030   -0.5180   25.3190 C.3   800  59W800      0.1182
     17  C2A       12.4290    1.3980   23.5100 C.2   800  59W800      0.1101
     18  C3'        8.7150    0.5430   24.2030 C.3   800  59W800      0.1343
     19  C3A       12.7900    2.2190   22.4420 C.2   800  59W800      0.0235
     20  C4'       10.0980    0.4860   23.5680 C.3   800  59W800      0.0531
     21  C4A       14.0230    2.0640   21.7860 C.2   800  59W800     -0.0149
     22  C5'       10.5120   -0.9770   23.7420 C.3   800  59W800      0.0916
     23  C5A       14.9120    1.0800   22.2330 C.3   800  59W800      0.1041
     24  C6A       14.5160    0.2840   23.3160 C.2   800  59W800      0.2004
     25  N6A       15.3150   -0.6920   23.7750 N.pl3 800  59W800     -0.0977
     26  C7A       11.0650    1.5060   24.2040 C.3   800  59W800      0.0629
@<TRIPOS>BOND
     1    21    23    1
     2    21    19    2
     3    23    24    1
     4    19    17    1
     5    24    25    1
     6    24    15    2
     7    17    15    2
     8    17    26    1
     9    20    22    1
    10    20    18    1
    11    20    26    1
    12    22     7    1
    13     1     2    1
    14     1     3    1
    15    18     2    1
    16    18    16    1
    17     7    16    1
    18     3     4    1
    19     4     5    1
    20     6     5    1
    21     6     8    1
    22     8    14   ar
    23     8     9   ar
    24    14    13   ar
    25     9    10   ar
    26    13    12   ar
    27    10    12   ar
    28    10    11    1
