@<TRIPOS>MOLECULE
3nnz_H4B_A_1.pdb
 17 18 0 0 0
SMALL
GASTEIGER

@<TRIPOS>ATOM
      1  N1         9.8020    2.7060   33.9010 N.2   760  H4B760     -0.2683
      2  C2         9.9300    2.3320   32.6050 C.1   760  H4B760      0.2608
      3  N2        11.1910    2.2330   32.0750 N.pl3 760  H4B760     -0.0220
      4  N3         8.8200    2.0760   31.8740 N.2   760  H4B760     -0.2474
      5  C4         7.5680    2.1790   32.3920 C.1   760  H4B760      0.2441
      6  O4         6.5460    1.9380   31.6700 O.2   760  H4B760     -0.2063
      7  C4A        7.4440    2.5830   33.7150 C.2   760  H4B760      0.2463
      8  C8A        8.5950    2.8520   34.4630 C.1   760  H4B760      0.1270
      9  N5         6.2320    2.7090   34.3140 N.2   760  H4B760     -0.2460
     10  N8         8.5390    3.2320   35.7780 N.2   760  H4B760     -0.2054
     11  C6         6.1670    3.6460   35.4310 C.3   760  H4B760      0.1627
     12  C7         7.2580    3.3590   36.4550 C.3   760  H4B760      0.1643
     13  C9         4.7830    3.7190   36.0670 C.3   760  H4B760      0.2063
     14  O9         4.4130    2.3800   36.4540 O.3   760  H4B760     -0.2183
     15  C10        4.7080    4.6150   37.3030 C.3   760  H4B760      0.1842
     16  C11        3.2660    4.7620   37.7900 C.3   760  H4B760      0.0383
     17  O10        5.2170    5.9310   37.0400 O.3   760  H4B760     -0.2204
@<TRIPOS>BOND
     1     6     5    2
     2     4     5    2
     3     4     2    2
     4     3     2    1
     5     5     7    1
     6     2     1    2
     7     7     9    2
     8     7     8    1
     9     1     8    2
    10     9    11    1
    11     8    10    2
    12    11    13    1
    13    11    12    1
    14    10    12    1
    15    13    14    1
    16    13    15    1
    17    17    15    1
    18    15    16    1
