@<TRIPOS>MOLECULE
3noa_5BC_A_1.pdb
 41 45 0 0 0
SMALL
GASTEIGER

@<TRIPOS>ATOM
      1  C1        -6.6130    6.5570   46.0670 C.ar    1  5BC1        0.0000
      2  C2        -7.0190    7.8910   46.1130 C.ar    1  5BC1        0.0000
      3  C3        -7.0360    8.6060   47.3170 C.ar    1  5BC1        0.0000
      4  C4        -6.6330    7.9660   48.4870 C.ar    1  5BC1        0.0000
      5  C5        -6.2090    6.6230   48.4420 C.ar    1  5BC1        0.0000
      6  C6        -6.1920    5.9070   47.2360 C.ar    1  5BC1        0.0000
      7  C7        -6.6030    4.5530   42.3810 C.ar    1  5BC1        0.0390
      8  C8        -7.6660    5.3630   42.7370 C.ar    1  5BC1        0.0032
      9  C9        -7.6740    6.0270   43.9620 C.ar    1  5BC1        0.0001
     10  C10       -6.6040    5.8800   44.8390 C.ar    1  5BC1        0.0000
     11  C11       -5.5160    5.0690   44.4840 C.ar    1  5BC1        0.0001
     12  C12       -5.5120    4.4050   43.2530 C.ar    1  5BC1        0.0032
     13  C13       -7.9200    3.4660   40.3070 C.ar    1  5BC1        0.0388
     14  C14      -10.2050    2.8460   38.8610 C.ar    1  5BC1        0.1345
     15  C15       -9.0910    3.3190   38.1880 C.ar    1  5BC1        0.0119
     16  C16       -7.9330    3.6260   38.9180 C.ar    1  5BC1        0.0019
     17  C17       -9.0520    2.9910   40.9890 C.ar    1  5BC1        0.0063
     18  C18      -10.2060    2.6630   40.2510 C.ar    1  5BC1        0.0367
     19  C19      -12.6100    5.4170   35.7640 C.ar    1  5BC1        0.1386
     20  C20      -12.2640    7.8020   35.7720 C.ar    1  5BC1        0.0203
     21  C21      -11.2370    7.6990   34.8320 C.ar    1  5BC1        0.0606
     22  C22      -10.8920    6.4170   34.3480 C.ar    1  5BC1        0.0203
     23  C23      -11.5930    5.2910   34.8130 C.ar    1  5BC1        0.0384
     24  C24      -12.9390    6.6800   36.2370 C.ar    1  5BC1        0.0384
     25  C25      -11.5370    9.7980   35.4110 C.ar    1  5BC1        0.0764
     26  N26      -10.8330    8.9670   34.6280 N.ar    1  5BC1       -0.3160
     27  C27      -12.4140    9.0800   36.1030 C.ar    1  5BC1        0.0202
     28  C28      -10.1040    9.6170   32.2470 C.2     1  5BC1        0.3875
     29  O29      -11.2940    9.8280   31.8790 O.co2   1  5BC1       -0.2435
     30  O30       -9.1230    9.4860   31.4910 O.co2   1  5BC1       -0.2435
     31  C31       -9.7690    9.4960   33.7630 C.3     1  5BC1        0.2211
     32  O32      -13.3810    4.4100   36.2920 O.3     1  5BC1       -0.4753
     33  C33      -12.8990    3.1200   36.3870 C.3     1  5BC1        0.2093
     34  C34      -13.6060    2.5390   37.6170 C.3     1  5BC1        0.0946
     35  C35      -12.5330    2.0880   38.6330 C.3     1  5BC1        0.2092
     36  O36      -11.2710    2.5860   38.0700 O.3     1  5BC1       -0.4756
     37  C37       -6.6090    3.8400   41.0240 C.2     1  5BC1        0.1955
     38  O38       -5.5430    3.6300   40.4620 O.2     1  5BC1       -0.2866
     39  C39       -9.1600    3.5090   36.6500 C.3     1  5BC1        0.0294
     40  C40       -7.8800    3.9300   35.9720 C.3     1  5BC1        0.0048
     41  C41       -7.8870    3.5170   34.4980 C.3     1  5BC1        0.0004
@<TRIPOS>BOND
     1    30    28   ar
     2    29    28   ar
     3    28    31    1
     4    31    26    1
     5    22    23   ar
     6    22    21   ar
     7    41    40    1
     8    26    21   ar
     9    26    25   ar
    10    23    19   ar
    11    21    20   ar
    12    25    27   ar
    13    19    24   ar
    14    19    32    1
    15    20    27   ar
    16    20    24   ar
    17    40    39    1
    18    32    33    1
    19    33    34    1
    20    39    15    1
    21    34    35    1
    22    36    35    1
    23    36    14    1
    24    15    14   ar
    25    15    16   ar
    26    14    18   ar
    27    16    13   ar
    28    18    17   ar
    29    13    17   ar
    30    13    37    1
    31    38    37    2
    32    37     7    1
    33     7     8   ar
    34     7    12   ar
    35     8     9   ar
    36    12    11   ar
    37     9    10   ar
    38    11    10   ar
    39    10     1    1
    40     1     2   ar
    41     1     6   ar
    42     2     3   ar
    43     6     5   ar
    44     3     4   ar
    45     5     4   ar
