@<TRIPOS>MOLECULE
3nod_H4B_A_1.pdb
 17 18 0 0 0
SMALL
GASTEIGER

@<TRIPOS>ATOM
      1  N1       113.3260  111.6560   32.0500 N.2   902  H4B902     -0.2672
      2  C2       114.5320  112.1640   32.3220 C.1   902  H4B902      0.2609
      3  N2       115.2820  112.6240   31.3290 N.pl3 902  H4B902     -0.0220
      4  N3       114.9950  112.2450   33.5760 N.2   902  H4B902     -0.2466
      5  C4       114.2590  111.8230   34.5990 C.1   902  H4B902      0.2569
      6  O4       114.6600  111.8400   35.7610 O.2   902  H4B902     -0.2052
      7  C4A      112.9680  111.3320   34.3810 C.2   902  H4B902      0.2989
      8  C8A      112.5160  111.2630   33.0310 C.1   902  H4B902      0.1401
      9  N5       112.2010  110.9390   35.3870 N.2   902  H4B902     -0.3830
     10  N8       111.2940  110.7980   32.7470 N.2   902  H4B902     -0.1992
     11  C6       110.9510  110.2740   35.0960 C.2   902  H4B902      0.1466
     12  C7       110.4210  110.3990   33.7490 C.3   902  H4B902      0.1940
     13  C9       110.2370  109.7570   36.3430 C.3   902  H4B902      0.2313
     14  O9       109.7790  110.8650   37.1230 O.3   902  H4B902     -0.2130
     15  C10      109.0720  108.8040   36.0610 C.3   902  H4B902      0.1888
     16  C11      108.4470  108.3210   37.3650 C.3   902  H4B902      0.0387
     17  O10      109.5390  107.6860   35.2940 O.3   902  H4B902     -0.2200
@<TRIPOS>BOND
     1     3     2    1
     2     1     2    2
     3     1     8    2
     4     2     4    2
     5    10     8    2
     6    10    12    1
     7     8     7    1
     8     4     5    2
     9    12    11    1
    10     7     5    1
    11     7     9    2
    12     5     6    2
    13    11     9    2
    14    11    13    1
    15    17    15    1
    16    15    13    1
    17    15    16    1
    18    13    14    1
