@<TRIPOS>MOLECULE
3nod_SCI_A_1.pdb
 12 11 0 0 0
SMALL
GASTEIGER

@<TRIPOS>ATOM
      1  N        120.3900  115.4700   34.9340 N.3   906  SCI906     -0.1208
      2  CA       121.6220  115.6760   35.6990 C.3   906  SCI906      0.1944
      3  CB       122.8440  115.4460   34.8060 C.3   906  SCI906      0.0324
      4  CG       123.0840  113.9700   34.5460 C.3   906  SCI906      0.0255
      5  CD       123.6290  113.6700   33.1500 C.3   906  SCI906      0.1143
      6  NE       123.3800  114.7340   32.1890 N.am  906  SCI906     -0.2153
      7  CZ       124.1140  114.9180   31.0880 C.2   906  SCI906      0.1920
      8  NH1      123.8380  115.9220   30.2590 N.am  906  SCI906     -0.1024
      9  S        125.4010  113.8880   30.7410 S.2   906  SCI906     -0.0137
     10  C        121.6900  117.0540   36.3480 C.2   906  SCI906      0.3819
     11  OT1      120.8480  117.9090   36.0040 O.co2 906  SCI906     -0.2441
     12  OT2      122.5830  117.2600   37.2030 O.co2 906  SCI906     -0.2441
@<TRIPOS>BOND
     1     8     7    1
     2     9     7    2
     3     7     6    1
     4     6     5    1
     5     5     4    1
     6     4     3    1
     7     3     2    1
     8     1     2    1
     9     2    10    1
    10    11    10   ar
    11    10    12   ar
