@<TRIPOS>MOLECULE
3nod_HEM_A_1.pdb
 43 50 0 0 0
SMALL
GASTEIGER

@<TRIPOS>ATOM
      1  CHA      121.2830  110.4480   30.4130 C.2   901  HEM901      0.0000
      2  CHB      122.3680  114.2250   27.7030 C.2   901  HEM901      0.0000
      3  CHC      126.6360  112.3450   26.8880 C.2   901  HEM901      0.0000
      4  CHD      125.3580  108.3020   29.0650 C.2   901  HEM901      0.0000
      5  C1A      121.2570  111.6970   29.8420 C.ar  901  HEM901      0.0000
      6  C2A      120.1940  112.6620   30.0180 C.ar  901  HEM901      0.0000
      7  C3A      120.4770  113.6980   29.1880 C.ar  901  HEM901      0.0000
      8  C4A      121.7210  113.3880   28.5640 C.ar  901  HEM901      0.0000
      9  CMA      119.6440  114.9260   28.9090 C.3   901  HEM901      0.0000
     10  CAA      119.1070  112.5970   31.0510 C.3   901  HEM901      0.0000
     11  CBA      119.7530  113.0260   32.3440 C.3   901  HEM901      0.0000
     12  CGA      118.8090  112.9690   33.5190 C.2   901  HEM901      0.0000
     13  O1A      119.2610  112.5460   34.6030 O.co2 901  HEM901      0.0000
     14  O2A      117.6250  113.3510   33.3580 O.co2 901  HEM901      0.0000
     15  C1B      123.6010  114.0100   27.1530 C.2   901  HEM901      0.0000
     16  C2B      124.2720  114.9710   26.3500 C.2   901  HEM901      0.0000
     17  C3B      125.5330  114.4870   26.1590 C.2   901  HEM901      0.0000
     18  C4B      125.5690  113.1960   26.8380 C.2   901  HEM901      0.0000
     19  CMB      123.6530  116.2190   25.7210 C.3   901  HEM901      0.0000
     20  CAB      126.5310  115.1840   25.4600 C.2   901  HEM901      0.0000
     21  CBB      127.6240  114.7000   24.7770 C.2   901  HEM901      0.0000
     22  C1C      126.6830  111.1030   27.4400 C.ar  901  HEM901      0.0000
     23  C2C      127.8650  110.2850   27.4650 C.ar  901  HEM901      0.0000
     24  C3C      127.5140  109.0780   28.0320 C.ar  901  HEM901      0.0000
     25  C4C      126.1030  109.2370   28.3620 C.ar  901  HEM901      0.0000
     26  CMC      129.2290  110.7850   27.0100 C.3   901  HEM901      0.0000
     27  CAC      128.2680  107.9160   28.2670 C.3   901  HEM901      0.0000
     28  CBC      129.5660  107.6420   27.8510 C.3   901  HEM901      0.0000
     29  C1D      124.0810  108.4780   29.5800 C.2   901  HEM901      0.0000
     30  C2D      123.3680  107.5240   30.4210 C.2   901  HEM901      0.0000
     31  C3D      122.2700  108.1780   30.8050 C.2   901  HEM901      0.0000
     32  C4D      122.2650  109.4900   30.2250 C.2   901  HEM901      0.0000
     33  CMD      123.7530  106.1180   30.8380 C.3   901  HEM901      0.0000
     34  CAD      121.2360  107.6460   31.7240 C.3   901  HEM901      0.0000
     35  CBD      121.4630  108.1510   33.1320 C.3   901  HEM901      0.0000
     36  CGD      120.5060  107.5250   34.1220 C.2   901  HEM901      0.0000
     37  O1D      120.3440  108.0860   35.2270 O.co2 901  HEM901      0.0000
     38  O2D      119.9200  106.4660   33.7940 O.co2 901  HEM901      0.0000
     39  NA       122.2020  112.1660   28.9680 N.ar  901  HEM901      0.0000
     40  NB       124.3780  112.9240   27.4160 N.2   901  HEM901      0.0000
     41  NC       125.6330  110.4730   28.0000 N.ar  901  HEM901      0.0000
     42  ND       123.3830  109.6650   29.4590 N.2   901  HEM901      0.0000
     43 FE        123.6980  111.1000   28.0440 Fe    901  HEM901      0.0000
@<TRIPOS>BOND
     1    21    20    2
     2    20    17    1
     3    19    16    1
     4    17    16    2
     5    17    18    1
     6    16    15    1
     7    18     3    2
     8    18    40    1
     9     3    22    1
    10    26    23    1
    11    15    40    2
    12    15     2    1
    13    40    43    1
    14    22    23   ar
    15    22    41   ar
    16    23    24   ar
    17     2     8    2
    18    28    27    1
    19    41    43    1
    20    41    25   ar
    21    24    27    1
    22    24    25   ar
    23    43    39    1
    24    43    42    1
    25    25     4    1
    26     8    39   ar
    27     8     7   ar
    28     9     7    1
    29    39     5   ar
    30     4    29    2
    31     7     6   ar
    32    42    29    1
    33    42    32    2
    34    29    30    1
    35     5     6   ar
    36     5     1    2
    37     6    10    1
    38    32     1    1
    39    32    31    1
    40    30    31    2
    41    30    33    1
    42    31    34    1
    43    10    11    1
    44    34    35    1
    45    11    12    1
    46    35    36    1
    47    14    12   ar
    48    12    13   ar
    49    38    36   ar
    50    36    37   ar
