@<TRIPOS>MOLECULE
3nok_DDQ_A_1.pdb
 14 13 0 0 0
SMALL
GASTEIGER

@<TRIPOS>ATOM
      1  N1         4.9990   10.9430   15.1360 N.4   2745  DDQ2745    -0.2709
      2  O1         4.4400    9.8300   15.3900 O.3   2745  DDQ2745    -0.1037
      3  CM1        4.9310   12.1380   16.0060 C.3   2745  DDQ2745     0.1365
      4  CM2        5.2980   11.2270   13.7320 C.3   2745  DDQ2745     0.1365
      5  C1         6.3650   10.4090   15.3980 C.2   2745  DDQ2745     0.0764
      6  C2         6.6300    9.6800   16.7250 C.2   2745  DDQ2745    -0.0073
      7  C3         7.9870    8.9590   16.8170 C.3   2745  DDQ2745     0.0276
      8  C4         8.1080    8.0950   18.1080 C.3   2745  DDQ2745     0.0047
      9  C5         9.4980    7.4990   18.4170 C.3   2745  DDQ2745     0.0003
     10  C6         9.4960    6.6860   19.7390 C.3   2745  DDQ2745     0.0000
     11  C7        10.8610    6.2390   20.2980 C.3   2745  DDQ2745     0.0000
     12  C8        10.6800    5.3480   21.5390 C.3   2745  DDQ2745     0.0000
     13  C9        11.9570    5.1490   22.3550 C.3   2745  DDQ2745     0.0000
     14  C10       11.9100    4.0340   23.4070 C.3   2745  DDQ2745     0.0000
@<TRIPOS>BOND
     1     4     1    1
     2     1     2    1
     3     1     5    1
     4     1     3    1
     5     5     6    2
     6     6     7    1
     7     7     8    1
     8     8     9    1
     9     9    10    1
    10    10    11    1
    11    11    12    1
    12    12    13    1
    13    13    14    1
