@<TRIPOS>MOLECULE
3nop_BLA_C_1.pdb
 43 46 0 0 0
SMALL
GASTEIGER

@<TRIPOS>ATOM
      1  CHA      -38.6160   68.4690   71.8540 C.3   900  BLA900      0.1170
      2  NA       -38.3130   69.7440   69.7640 N.2   900  BLA900     -0.4104
      3  C1A      -38.9120   68.8540   70.5570 C.2   900  BLA900      0.1114
      4  C2A      -39.9870   68.2810   69.8790 C.2   900  BLA900      0.0024
      5  C3A      -39.9890   68.8820   68.6350 C.2   900  BLA900      0.0021
      6  C4A      -38.9400   69.7890   68.5890 C.2   900  BLA900      0.1114
      7  CMA      -40.9820   68.5950   67.5080 C.3   900  BLA900      0.0331
      8  CAA      -40.9510   67.2150   70.4130 C.3   900  BLA900      0.0402
      9  CBA      -42.1280   67.8220   71.2100 C.3   900  BLA900      0.1188
     10  CGA      -43.0100   68.7650   70.3800 C.2   900  BLA900      0.3652
     11  O1A      -43.5010   69.7520   70.9670 O.co2 900  BLA900     -0.2456
     12  O2A      -43.2140   68.4580   69.1850 O.co2 900  BLA900     -0.2456
     13  CHB      -38.5420   70.6680   67.3210 C.3   900  BLA900      0.1181
     14  NB       -41.0320   71.1040   67.7450 N.2   900  BLA900     -0.3375
     15  C1B      -39.9220   71.2490   67.0040 C.2   900  BLA900      0.1254
     16  C2B      -40.2480   72.0250   65.8970 C.2   900  BLA900      0.0128
     17  C3B      -41.5880   72.3440   65.9910 C.2   900  BLA900      0.0706
     18  C4B      -42.0380   71.7490   67.1530 C.1   900  BLA900      0.2000
     19  CMB      -39.2960   72.4510   64.7770 C.3   900  BLA900      0.0339
     20  OB       -43.1920   71.8100   67.5820 O.2   900  BLA900     -0.2096
     21  CAB      -42.3300   73.1060   65.0960 C.3   900  BLA900      0.0390
     22  CBB      -43.6670   73.3810   65.3610 C.3   900  BLA900      0.0058
     23  NC       -34.4780   71.1210   70.6060 N.2   900  BLA900     -0.3375
     24  C1C      -33.8800   71.7980   69.6280 C.1   900  BLA900      0.2000
     25  C2C      -32.5190   71.5710   69.6780 C.2   900  BLA900      0.0710
     26  C3C      -32.2840   70.7090   70.7390 C.2   900  BLA900      0.0125
     27  C4C      -33.5370   70.4560   71.2830 C.2   900  BLA900      0.1254
     28  CMC      -31.5110   72.1840   68.7130 C.3   900  BLA900      0.0445
     29  OC       -34.4450   72.5200   68.8070 O.2   900  BLA900     -0.2096
     30  CAC      -30.9870   70.0930   71.2880 C.3   900  BLA900      0.0291
     31  CBC      -29.7160   70.6550   70.6640 C.3   900  BLA900      0.0051
     32  CHD      -33.7420   69.5540   72.4860 C.3   900  BLA900      0.1181
     33  ND       -36.2170   69.2070   71.7840 N.2   900  BLA900     -0.4104
     34  C1D      -35.1810   69.0700   72.6230 C.2   900  BLA900      0.1114
     35  C2D      -35.6340   68.3710   73.7150 C.2   900  BLA900      0.0021
     36  C3D      -36.9620   68.0710   73.5280 C.2   900  BLA900      0.0024
     37  C4D      -37.3090   68.6170   72.3020 C.2   900  BLA900      0.1114
     38  CMD      -34.7810   67.9930   74.9220 C.3   900  BLA900      0.0331
     39  CAD      -37.8500   67.3230   74.5080 C.3   900  BLA900      0.0402
     40  CBD      -38.2450   68.3040   75.6060 C.3   900  BLA900      0.1188
     41  CGD      -39.1230   67.6220   76.6430 C.2   900  BLA900      0.3652
     42  O1D      -38.5470   67.2170   77.6780 O.co2 900  BLA900     -0.2456
     43  O2D      -40.3360   67.4870   76.3620 O.co2 900  BLA900     -0.2456
@<TRIPOS>BOND
     1    19    16    1
     2    21    22    1
     3    21    17    1
     4    16    17    2
     5    16    15    1
     6    17    18    1
     7    15    13    1
     8    15    14    2
     9    18    20    2
    10    18    14    2
    11    13     6    1
    12     7     5    1
    13     6     5    1
    14     6     2    2
    15     5     4    2
    16    28    25    1
    17    29    24    2
    18    12    10   ar
    19    24    25    1
    20    24    23    2
    21    25    26    2
    22     2     3    2
    23     4     8    1
    24     4     3    1
    25    10    11   ar
    26    10     9    1
    27     8     9    1
    28     3     1    1
    29    23    27    2
    30    31    30    1
    31    26    27    1
    32    26    30    1
    33    27    32    1
    34    33    37    2
    35    33    34    2
    36     1    37    1
    37    37    36    1
    38    32    34    1
    39    34    35    1
    40    36    35    2
    41    36    39    1
    42    35    38    1
    43    39    40    1
    44    40    41    1
    45    43    41   ar
    46    41    42   ar
