@<TRIPOS>MOLECULE
3nos_H4B_A_1.pdb
 17 18 0 0 0
SMALL
GASTEIGER

@<TRIPOS>ATOM
      1  N1        21.6150   12.4440   33.9050 N.2   511  H4B511     -0.2683
      2  C2        21.8380   12.7930   32.6070 C.1   511  H4B511      0.2608
      3  N2        20.8060   12.9750   31.8040 N.pl3 511  H4B511     -0.0220
      4  N3        23.1140   12.9410   32.1590 N.2   511  H4B511     -0.2474
      5  C4        24.2670   12.7560   32.9680 C.1   511  H4B511      0.2441
      6  O4        25.3840   12.9150   32.4750 O.2   511  H4B511     -0.2063
      7  C4A       23.9890   12.3930   34.2800 C.2   511  H4B511      0.2463
      8  C8A       22.6370   12.2370   34.8040 C.1   511  H4B511      0.1270
      9  N5        24.9930   12.1740   35.2020 N.2   511  H4B511     -0.2460
     10  N8        22.3130   11.9270   36.0740 N.2   511  H4B511     -0.2054
     11  C6        24.6360   11.3690   36.4190 C.3   511  H4B511      0.1627
     12  C7        23.3610   11.7710   37.0620 C.3   511  H4B511      0.1643
     13  C9        25.8510   11.2670   37.3810 C.3   511  H4B511      0.2063
     14  O9        26.4450   12.5440   37.6110 O.3   511  H4B511     -0.2183
     15  C10       25.4600   10.7360   38.7390 C.3   511  H4B511      0.1842
     16  C11       26.6430   10.3960   39.5620 C.3   511  H4B511      0.0383
     17  O10       24.6010    9.6040   38.5060 O.3   511  H4B511     -0.2204
@<TRIPOS>BOND
     1     3     2    1
     2     4     2    2
     3     4     5    2
     4     6     5    2
     5     2     1    2
     6     5     7    1
     7     1     8    2
     8     7     8    1
     9     7     9    2
    10     8    10    2
    11     9    11    1
    12    10    12    1
    13    11    12    1
    14    11    13    1
    15    13    14    1
    16    13    15    1
    17    17    15    1
    18    15    16    1
