@<TRIPOS>MOLECULE
3nos_HAR_A_1.pdb
 13 12 0 0 0
SMALL
GASTEIGER

@<TRIPOS>ATOM
      1  N         25.4170   15.5310   26.6050 N.3   512  HAR512     -0.1208
      2  CA        25.9750   15.5010   25.2100 C.3   512  HAR512      0.1944
      3  C         26.5600   16.8630   24.8050 C.2   512  HAR512      0.3819
      4  O         27.7760   16.9760   24.6190 O.co2 512  HAR512     -0.2441
      5  CB        24.8950   15.0310   24.2080 C.3   512  HAR512      0.0343
      6  CG        24.9190   13.5120   23.8680 C.3   512  HAR512      0.0490
      7  CD        23.6160   12.7640   24.1840 C.3   512  HAR512      0.2205
      8  NE        22.4520   13.4220   23.6080 N.pl3 512  HAR512     -0.0871
      9  CZ        21.9350   13.1450   22.4170 C.2   512  HAR512      0.5283
     10  NH1       22.4670   12.1920   21.6490 N.4   512  HAR512      0.1134
     11  NH2       20.8810   13.8310   21.9890 N.pl3 512  HAR512      0.1348
     12  OH1       21.9240   11.8620   20.3910 O.3   512  HAR512      0.0294
     13  OXT       25.8130   17.8370   24.7570 O.co2 512  HAR512     -0.2441
@<TRIPOS>BOND
     1    12    10    1
     2    10     9    1
     3    11     9    2
     4     9     8    1
     5     8     7    1
     6     6     7    1
     7     6     5    1
     8     5     2    1
     9     4     3   ar
    10    13     3   ar
    11     3     2    1
    12     2     1    1
