@<TRIPOS>MOLECULE
3nos_HEM_A_1.pdb
 43 50 0 0 0
SMALL
GASTEIGER

@<TRIPOS>ATOM
      1  CHA       20.9510    9.9200   26.0900 C.2   510  HEM510      0.0000
      2  CHB       18.0490   13.2620   24.2010 C.2   510  HEM510      0.0000
      3  CHC       18.2160   10.8260   20.0240 C.2   510  HEM510      0.0000
      4  CHD       20.8770    7.3760   22.0000 C.2   510  HEM510      0.0000
      5  C1A       20.1900   11.0730   25.9600 C.2   510  HEM510      0.0000
      6  C2A       20.0060   12.1160   26.9620 C.2   510  HEM510      0.0000
      7  C3A       19.1820   13.0380   26.4500 C.2   510  HEM510      0.0000
      8  C4A       18.8480   12.6170   25.1060 C.2   510  HEM510      0.0000
      9  CMA       18.6790   14.3250   27.1010 C.3   510  HEM510      0.0000
     10  CAA       20.6560   12.0780   28.3420 C.3   510  HEM510      0.0000
     11  CBA       22.1510   11.7820   28.2040 C.3   510  HEM510      0.0000
     12  CGA       23.0300   12.9930   28.4190 C.2   510  HEM510      0.0000
     13  O1A       24.0850   13.0370   27.6870 O.co2 510  HEM510      0.0000
     14  O2A       22.6870   13.8290   29.2600 O.co2 510  HEM510      0.0000
     15  C1B       17.8050   12.8750   22.8950 C.ar  510  HEM510      0.0000
     16  C2B       16.9490   13.5950   21.9700 C.ar  510  HEM510      0.0000
     17  C3B       16.9950   12.9200   20.7930 C.ar  510  HEM510      0.0000
     18  C4B       17.8800   11.7800   20.9710 C.ar  510  HEM510      0.0000
     19  CMB       16.1670   14.8670   22.3130 C.3   510  HEM510      0.0000
     20  CAB       16.2720   13.2650   19.4870 C.3   510  HEM510      0.0000
     21  CBB       15.7670   12.0540   18.6810 C.3   510  HEM510      0.0000
     22  C1C       18.9820    9.6820   20.2140 C.2   510  HEM510      0.0000
     23  C2C       19.2710    8.7060   19.1490 C.2   510  HEM510      0.0000
     24  C3C       20.0020    7.7250   19.7080 C.2   510  HEM510      0.0000
     25  C4C       20.1840    8.0810   21.0830 C.2   510  HEM510      0.0000
     26  CMC       18.7670    8.8740   17.6900 C.3   510  HEM510      0.0000
     27  CAC       20.5850    6.4480   19.1080 C.3   510  HEM510      0.0000
     28  CBC       20.0010    6.0310   17.7420 C.3   510  HEM510      0.0000
     29  C1D       21.1050    7.7490   23.2810 C.ar  510  HEM510      0.0000
     30  C2D       21.8750    7.0120   24.2230 C.ar  510  HEM510      0.0000
     31  C3D       21.9140    7.7290   25.3570 C.ar  510  HEM510      0.0000
     32  C4D       21.1470    8.9180   25.1430 C.ar  510  HEM510      0.0000
     33  CMD       22.5440    5.6600   23.9330 C.3   510  HEM510      0.0000
     34  CAD       22.6520    7.3530   26.6010 C.3   510  HEM510      0.0000
     35  CBD       24.0470    8.0150   26.4300 C.3   510  HEM510      0.0000
     36  CGD       24.9280    7.7330   27.5700 C.2   510  HEM510      0.0000
     37  O1D       25.9530    8.4190   27.7520 O.co2 510  HEM510      0.0000
     38  O2D       24.5480    6.7770   28.2720 O.co2 510  HEM510      0.0000
     39  NA        19.4860   11.4230   24.8510 N.2   510  HEM510      0.0000
     40  NB        18.3550   11.7600   22.2560 N.ar  510  HEM510      0.0000
     41  NC        19.5630    9.2750   21.3800 N.2   510  HEM510      0.0000
     42  ND        20.6410    8.9220   23.8520 N.ar  510  HEM510      0.0000
     43 FE         19.0370    9.9930   23.4060 Fe    510  HEM510      0.0000
@<TRIPOS>BOND
     1    26    23    1
     2    28    27    1
     3    21    20    1
     4    27    24    1
     5    23    24    2
     6    23    22    1
     7    20    17    1
     8    24    25    1
     9     3    22    2
    10     3    18    1
    11    22    41    1
    12    17    18   ar
    13    17    16   ar
    14    18    40   ar
    15    25    41    2
    16    25     4    1
    17    41    43    1
    18    16    19    1
    19    16    15   ar
    20     4    29    2
    21    40    15   ar
    22    40    43    1
    23    15     2    1
    24    29    42   ar
    25    29    30   ar
    26    43    42    1
    27    43    39    1
    28    42    32   ar
    29    33    30    1
    30     2     8    2
    31    30    31   ar
    32    39     8    1
    33    39     5    2
    34     8     7    1
    35    32    31   ar
    36    32     1    2
    37    31    34    1
    38     5     1    1
    39     5     6    1
    40    35    34    1
    41    35    36    1
    42     7     6    2
    43     7     9    1
    44     6    10    1
    45    36    37   ar
    46    36    38   ar
    47    13    12   ar
    48    11    10    1
    49    11    12    1
    50    12    14   ar
