@<TRIPOS>MOLECULE
3not_BLA_C_1.pdb
 43 46 0 0 0
SMALL
GASTEIGER

@<TRIPOS>ATOM
      1  CHA      -38.4180   67.9440   71.5500 C.3   900  BLA900      0.1170
      2  NA       -38.4350   69.0340   69.3370 N.2   900  BLA900     -0.4104
      3  C1A      -38.9290   68.7450   70.5420 C.2   900  BLA900      0.1114
      4  C2A      -40.1480   69.3990   70.7110 C.2   900  BLA900      0.0024
      5  C3A      -40.3510   70.0920   69.5330 C.2   900  BLA900      0.0021
      6  C4A      -39.2710   69.8500   68.6960 C.2   900  BLA900      0.1114
      7  CMA      -41.5580   70.9750   69.2140 C.3   900  BLA900      0.0331
      8  CAA      -41.0570   69.3510   71.9450 C.3   900  BLA900      0.0402
      9  CBA      -41.9360   68.0810   71.9880 C.3   900  BLA900      0.1188
     10  CGA      -43.4280   68.3740   72.1960 C.2   900  BLA900      0.3652
     11  O1A      -43.8390   69.5070   71.8660 O.co2 900  BLA900     -0.2456
     12  O2A      -44.1230   67.4770   72.7210 O.co2 900  BLA900     -0.2456
     13  CHB      -39.0990   70.4040   67.2280 C.3   900  BLA900      0.1181
     14  NB       -41.4970   70.1430   66.3600 N.2   900  BLA900     -0.3375
     15  C1B      -40.2650   70.6690   66.2720 C.2   900  BLA900      0.1254
     16  C2B      -40.2360   71.5030   65.1600 C.2   900  BLA900      0.0128
     17  C3B      -41.4880   71.4640   64.5770 C.2   900  BLA900      0.0706
     18  C4B      -42.2400   70.6040   65.3530 C.1   900  BLA900      0.2000
     19  CMB      -39.0380   72.3180   64.6680 C.3   900  BLA900      0.0339
     20  OB       -43.4200   70.3130   65.1510 O.2   900  BLA900     -0.2096
     21  CAB      -41.9020   72.1490   63.4410 C.3   900  BLA900      0.0390
     22  CBB      -43.2190   72.0430   63.0080 C.3   900  BLA900      0.0058
     23  NC       -34.4780   71.1210   70.6060 N.2   900  BLA900     -0.3375
     24  C1C      -33.8800   71.7980   69.6280 C.1   900  BLA900      0.2000
     25  C2C      -32.5190   71.5710   69.6780 C.2   900  BLA900      0.0710
     26  C3C      -32.2840   70.7090   70.7390 C.2   900  BLA900      0.0125
     27  C4C      -33.5370   70.4560   71.2830 C.2   900  BLA900      0.1254
     28  CMC      -31.5110   72.1840   68.7130 C.3   900  BLA900      0.0445
     29  OC       -34.4450   72.5200   68.8070 O.2   900  BLA900     -0.2096
     30  CAC      -30.9870   70.0930   71.2880 C.3   900  BLA900      0.0291
     31  CBC      -29.7160   70.6550   70.6640 C.3   900  BLA900      0.0051
     32  CHD      -33.7420   69.5540   72.4860 C.3   900  BLA900      0.1181
     33  ND       -36.0850   68.8720   71.6020 N.2   900  BLA900     -0.4104
     34  C1D      -35.1490   68.9730   72.5550 C.2   900  BLA900      0.1114
     35  C2D      -35.6790   68.4300   73.7010 C.2   900  BLA900      0.0021
     36  C3D      -36.9510   67.9850   73.4320 C.2   900  BLA900      0.0024
     37  C4D      -37.1870   68.2820   72.0990 C.2   900  BLA900      0.1114
     38  CMD      -34.9510   68.3400   75.0390 C.3   900  BLA900      0.0331
     39  CAD      -37.8940   67.3370   74.4310 C.3   900  BLA900      0.0402
     40  CBD      -37.8850   68.1950   75.6900 C.3   900  BLA900      0.1188
     41  CGD      -38.9790   67.7510   76.6490 C.2   900  BLA900      0.3652
     42  O1D      -38.6280   66.9860   77.5760 O.co2 900  BLA900     -0.2456
     43  O2D      -40.1410   68.1540   76.4130 O.co2 900  BLA900     -0.2456
@<TRIPOS>BOND
     1    22    21    1
     2    21    17    1
     3    17    16    2
     4    17    18    1
     5    19    16    1
     6    20    18    2
     7    16    15    1
     8    18    14    2
     9    15    14    2
    10    15    13    1
    11    13     6    1
    12     6     2    2
    13     6     5    1
    14    28    25    1
    15    29    24    2
    16     7     5    1
    17     2     3    2
    18     5     4    2
    19    24    25    1
    20    24    23    2
    21    25    26    2
    22     3     4    1
    23     3     1    1
    24    23    27    2
    25    31    30    1
    26     4     8    1
    27    26    27    1
    28    26    30    1
    29    27    32    1
    30     1    37    1
    31    33    37    2
    32    33    34    2
    33    11    10   ar
    34     8     9    1
    35     9    10    1
    36    37    36    1
    37    10    12   ar
    38    32    34    1
    39    34    35    1
    40    36    35    2
    41    36    39    1
    42    35    38    1
    43    39    40    1
    44    40    41    1
    45    43    41   ar
    46    41    42   ar
