@<TRIPOS>MOLECULE
3nou_BLA_C_1.pdb
 43 46 0 0 0
SMALL
GASTEIGER

@<TRIPOS>ATOM
      1  CHA      -38.4180   67.9440   71.5500 C.3   900  BLA900      0.1170
      2  NA       -38.3960   69.1050   69.3730 N.2   900  BLA900     -0.4104
      3  C1A      -38.9290   68.7450   70.5420 C.2   900  BLA900      0.1114
      4  C2A      -40.1940   69.3150   70.6680 C.2   900  BLA900      0.0024
      5  C3A      -40.3830   70.0340   69.5030 C.2   900  BLA900      0.0021
      6  C4A      -39.2500   69.8880   68.7150 C.2   900  BLA900      0.1114
      7  CMA      -41.6270   70.8500   69.1490 C.3   900  BLA900      0.0331
      8  CAA      -41.1580   69.1690   71.8520 C.3   900  BLA900      0.0402
      9  CBA      -41.5600   67.7000   72.1150 C.3   900  BLA900      0.1188
     10  CGA      -42.9910   67.3660   71.6740 C.2   900  BLA900      0.3652
     11  O1A      -43.5600   66.4170   72.2530 O.co2 900  BLA900     -0.2456
     12  O2A      -43.4750   68.0370   70.7360 O.co2 900  BLA900     -0.2456
     13  CHB      -39.0410   70.5010   67.2760 C.3   900  BLA900      0.1181
     14  NB       -40.9670   69.3950   65.9950 N.2   900  BLA900     -0.3375
     15  C1B      -40.0550   70.3700   66.1360 C.2   900  BLA900      0.1254
     16  C2B      -40.1960   71.2440   65.0640 C.2   900  BLA900      0.0128
     17  C3B      -41.2210   70.7680   64.2700 C.2   900  BLA900      0.0706
     18  C4B      -41.6700   69.6150   64.8830 C.1   900  BLA900      0.2000
     19  CMB      -39.3700   72.5060   64.8080 C.3   900  BLA900      0.0339
     20  OB       -42.5860   68.9010   64.4710 O.2   900  BLA900     -0.2096
     21  CAB      -41.6980   71.3330   63.0940 C.3   900  BLA900      0.0390
     22  CBB      -42.7780   70.7560   62.4340 C.3   900  BLA900      0.0058
     23  NC       -34.4040   70.6830   70.0360 N.2   900  BLA900     -0.3375
     24  C1C      -33.8730   71.3070   68.9860 C.1   900  BLA900      0.2000
     25  C2C      -32.5180   71.0490   68.9360 C.2   900  BLA900      0.0710
     26  C3C      -32.2150   70.2230   70.0090 C.2   900  BLA900      0.0125
     27  C4C      -33.4250   70.0220   70.6610 C.2   900  BLA900      0.1254
     28  CMC      -31.5790   71.5990   67.8690 C.3   900  BLA900      0.0445
     29  OC       -34.4880   72.0100   68.1840 O.2   900  BLA900     -0.2096
     30  CAC      -30.8910   69.5980   70.4760 C.3   900  BLA900      0.0291
     31  CBC      -29.7120   70.5630   70.4820 C.3   900  BLA900      0.0051
     32  CHD      -33.5510   69.1730   71.9130 C.3   900  BLA900      0.1181
     33  ND       -36.0550   68.7730   71.3610 N.2   900  BLA900     -0.4104
     34  C1D      -34.9590   68.6290   72.1180 C.2   900  BLA900      0.1114
     35  C2D      -35.3120   67.8530   73.1960 C.2   900  BLA900      0.0021
     36  C3D      -36.6390   67.5160   73.0820 C.2   900  BLA900      0.0024
     37  C4D      -37.0880   68.1150   71.9160 C.2   900  BLA900      0.1114
     38  CMD      -34.3650   67.4410   74.3190 C.3   900  BLA900      0.0331
     39  CAD      -37.4310   66.6820   74.0750 C.3   900  BLA900      0.0402
     40  CBD      -38.4780   67.5940   74.7040 C.3   900  BLA900      0.1188
     41  CGD      -39.0920   66.9380   75.9310 C.2   900  BLA900      0.3652
     42  O1D      -38.3010   66.6380   76.8540 O.co2 900  BLA900     -0.2456
     43  O2D      -40.3240   66.7190   75.9020 O.co2 900  BLA900     -0.2456
@<TRIPOS>BOND
     1    22    21    1
     2    21    17    1
     3    17    18    1
     4    17    16    2
     5    20    18    2
     6    19    16    1
     7    18    14    2
     8    16    15    1
     9    14    15    2
    10    15    13    1
    11    13     6    1
    12    28    25    1
    13    29    24    2
    14     6     2    2
    15     6     5    1
    16    25    24    1
    17    25    26    2
    18    24    23    2
    19     7     5    1
    20     2     3    2
    21     5     4    2
    22    26    30    1
    23    26    27    1
    24    23    27    2
    25    30    31    1
    26     3     4    1
    27     3     1    1
    28    27    32    1
    29     4     8    1
    30    12    10   ar
    31    33    37    2
    32    33    34    2
    33     1    37    1
    34    10     9    1
    35    10    11   ar
    36     8     9    1
    37    32    34    1
    38    37    36    1
    39    34    35    1
    40    36    35    2
    41    36    39    1
    42    35    38    1
    43    39    40    1
    44    40    41    1
    45    43    41   ar
    46    41    42   ar
