@<TRIPOS>MOLECULE
3nox_6A5_A_1.pdb
 28 31 0 0 0
SMALL
GASTEIGER

@<TRIPOS>ATOM
      1  C1        48.1540   50.3100   35.2880 C.2     1  6A51        0.0630
      2  C2        47.2010   51.0410   34.6220 C.2     1  6A51        0.0376
      3  C3        47.4770   51.4530   33.2910 C.2     1  6A51        0.1216
      4  N4        48.6000   51.2270   32.6210 N.2     1  6A51       -0.3326
      5  N5        49.3290   50.0910   34.6430 N.pl3   1  6A51       -0.2058
      6  C6        49.5760   50.5180   33.3080 C.1     1  6A51        0.2066
      7  N7        50.8150   50.1370   32.8850 N.2     1  6A51       -0.3259
      8  C8        51.3350   49.4630   33.9980 C.2     1  6A51        0.1967
      9  C9        50.4660   49.4170   35.0680 C.3     1  6A51        0.1727
     10  C10       52.6830   48.8490   33.9770 C.2     1  6A51        0.2774
     11  O11       52.9220   47.9170   33.1820 O.2     1  6A51       -0.2674
     12  N12       53.4980   49.0970   35.0940 N.am    1  6A51       -0.2690
     13  C13       46.4760   52.2450   32.5260 C.3     1  6A51        0.0672
     14  C14       48.0450   49.8540   36.6840 C.ar    1  6A51        0.0248
     15  C15       45.8560   51.3180   35.2360 C.3     1  6A51        0.1391
     16  N16       45.9790   52.4820   36.0670 N.3     1  6A51       -0.1261
     17  C17       47.5080   48.6080   36.9530 C.ar    1  6A51        0.0030
     18  C18       47.4380   48.1760   38.2730 C.ar    1  6A51        0.0115
     19  C19       47.9180   49.0080   39.2870 C.ar    1  6A51        0.0585
     20  C20       48.4480   50.2400   39.0530 C.ar    1  6A51        0.0228
     21  C21       48.5140   50.6430   37.7480 C.ar    1  6A51        0.0597
     22 CL22       49.1940   52.1670   37.4450 Cl      1  6A51       -0.0822
     23 CL23       47.8960   48.4690   40.8970 Cl      1  6A51       -0.0822
     24  C24       53.6990   50.4300   35.7030 C.3     1  6A51        0.1259
     25  C25       55.0610   51.0460   35.1930 C.3     1  6A51        0.1637
     26  O26       56.1770   50.1340   35.2950 O.3     1  6A51       -0.3501
     27  C27       55.9270   48.7740   34.8570 C.3     1  6A51        0.1637
     28  C28       54.6050   48.1690   35.4070 C.3     1  6A51        0.1259
@<TRIPOS>BOND
     1    13     3    1
     2     4     3    2
     3     4     6    2
     4     7     6    2
     5     7     8    2
     6    11    10    2
     7     3     2    1
     8     6     5    1
     9    10     8    1
    10    10    12   am
    11     8     9    1
    12     2    15    1
    13     2     1    2
    14     5     9    1
    15     5     1    1
    16    27    26    1
    17    27    28    1
    18    12    28    1
    19    12    24    1
    20    25    26    1
    21    25    24    1
    22    15    16    1
    23     1    14    1
    24    14    17   ar
    25    14    21   ar
    26    17    18   ar
    27    22    21    1
    28    21    20   ar
    29    18    19   ar
    30    20    19   ar
    31    19    23    1
