@<TRIPOS>MOLECULE
3np1_HEM_A_1.pdb
 43 50 0 0 0
SMALL
GASTEIGER

@<TRIPOS>ATOM
      1 FE         25.2890   25.2700   61.9670 Fe    302  HEM302      0.0000
      2  CHA       24.2600   24.8100   58.7970 C.2   302  HEM302      0.0000
      3  CHB       28.4170   26.1440   60.8880 C.2   302  HEM302      0.0000
      4  CHC       26.3820   25.4010   65.2580 C.2   302  HEM302      0.0000
      5  CHD       22.0290   25.2190   63.1570 C.2   302  HEM302      0.0000
      6  NA        26.1420   25.4390   60.2500 N.ar  302  HEM302      0.0000
      7  C1A       25.6000   25.0960   59.0350 C.ar  302  HEM302      0.0000
      8  C2A       26.6520   25.0750   58.0510 C.ar  302  HEM302      0.0000
      9  C3A       27.8270   25.4460   58.6440 C.ar  302  HEM302      0.0000
     10  C4A       27.4770   25.7610   59.9660 C.ar  302  HEM302      0.0000
     11  CMA       29.2170   25.4210   58.0360 C.3   302  HEM302      0.0000
     12  CAA       26.4810   24.6930   56.5890 C.3   302  HEM302      0.0000
     13  CBA       26.4240   23.1950   56.3170 C.3   302  HEM302      0.0000
     14  CGA       26.3610   22.8780   54.8310 C.2   302  HEM302      0.0000
     15  O1A       25.2700   23.0870   54.2540 O.co2 302  HEM302      0.0000
     16  O2A       27.3860   22.4320   54.2520 O.co2 302  HEM302      0.0000
     17  NB        27.0190   25.7100   62.9030 N.2   302  HEM302      0.0000
     18  C1B       28.2280   26.0340   62.2820 C.2   302  HEM302      0.0000
     19  C2B       29.2590   26.1540   63.2650 C.2   302  HEM302      0.0000
     20  C3B       28.7130   25.9360   64.4870 C.2   302  HEM302      0.0000
     21  C4B       27.3140   25.6670   64.2780 C.2   302  HEM302      0.0000
     22  CMB       30.7000   26.5260   62.9060 C.3   302  HEM302      0.0000
     23  CAB       29.3840   26.1020   65.7000 C.2   302  HEM302      0.0000
     24  CBB       29.6820   25.0670   66.5380 C.2   302  HEM302      0.0000
     25  NC        24.4610   25.2660   63.7880 N.ar  302  HEM302      0.0000
     26  C1C       25.0650   25.2280   65.0490 C.ar  302  HEM302      0.0000
     27  C2C       24.0730   25.2160   66.1090 C.ar  302  HEM302      0.0000
     28  C3C       22.8150   25.3010   65.5710 C.ar  302  HEM302      0.0000
     29  C4C       23.0550   25.3110   64.1190 C.ar  302  HEM302      0.0000
     30  CMC       24.3670   25.1910   67.5780 C.3   302  HEM302      0.0000
     31  CAC       21.6020   25.4770   66.2360 C.3   302  HEM302      0.0000
     32  CBC       21.0510   26.7540   66.2220 C.3   302  HEM302      0.0000
     33  ND        23.5160   25.0680   61.1070 N.2   302  HEM302      0.0000
     34  C1D       22.2440   25.0460   61.7590 C.2   302  HEM302      0.0000
     35  C2D       21.1800   24.7120   60.8250 C.2   302  HEM302      0.0000
     36  C3D       21.8410   24.6030   59.5900 C.2   302  HEM302      0.0000
     37  C4D       23.2680   24.8320   59.7720 C.2   302  HEM302      0.0000
     38  CMD       19.7060   24.6360   61.2260 C.3   302  HEM302      0.0000
     39  CAD       21.2300   24.3560   58.2240 C.3   302  HEM302      0.0000
     40  CBD       21.1300   25.6610   57.4460 C.3   302  HEM302      0.0000
     41  CGD       21.4730   25.4910   55.9800 C.2   302  HEM302      0.0000
     42  O1D       21.4680   26.5140   55.2550 O.co2 302  HEM302      0.0000
     43  O2D       21.7460   24.3370   55.5620 O.co2 302  HEM302      0.0000
@<TRIPOS>BOND
     1    16    14   ar
     2    15    14   ar
     3    14    13    1
     4    42    41   ar
     5    43    41   ar
     6    41    40    1
     7    13    12    1
     8    12     8    1
     9    40    39    1
    10    11     9    1
    11     8     9   ar
    12     8     7   ar
    13    39    36    1
    14     9    10   ar
    15     2     7    2
    16     2    37    1
    17     7     6   ar
    18    36    37    1
    19    36    35    2
    20    37    33    2
    21    10     6   ar
    22    10     3    2
    23     6     1    1
    24    35    38    1
    25    35    34    1
    26     3    18    1
    27    33    34    1
    28    33     1    1
    29    34     5    2
    30     1    17    1
    31     1    25    1
    32    18    17    2
    33    18    19    1
    34    17    21    1
    35    22    19    1
    36     5    29    1
    37    19    20    2
    38    25    29   ar
    39    25    26   ar
    40    29    28   ar
    41    21    20    1
    42    21     4    2
    43    20    23    1
    44    26     4    1
    45    26    27   ar
    46    28    27   ar
    47    28    31    1
    48    23    24    2
    49    27    30    1
    50    32    31    1
