@<TRIPOS>MOLECULE
3np7_Z15_A_1.pdb
 20 21 0 0 0
SMALL
GASTEIGER

@<TRIPOS>ATOM
      1  C1         7.0580   24.5830   32.1970 C.ar  997  Z15997      0.1951
      2  O1         6.6790   24.2560   33.4700 O.3   997  Z15997     -0.2868
      3  C2         7.5850   23.6210   31.3240 C.ar  997  Z15997      0.0493
      4  C3         7.9780   23.9680   30.0280 C.ar  997  Z15997      0.0442
      5  C4         7.8320   25.2840   29.6080 C.ar  997  Z15997      0.2061
      6  O4         8.1930   25.6720   28.3580 O.3   997  Z15997     -0.2857
      7  C5         7.3100   26.2310   30.4750 C.ar  997  Z15997      0.0996
      8 CL5         7.1580   27.8430   29.8960 Cl    997  Z15997     -0.0788
      9  C6         6.9180   25.9010   31.7690 C.ar  997  Z15997      0.0564
     10  C1'        7.7450   22.1740   31.7840 C.3   997  Z15997      0.1736
     11  C2'        7.0930   21.1790   30.8090 C.3   997  Z15997      0.2159
     12  O2'        5.6900   21.4150   30.7070 O.3   997  Z15997     -0.2173
     13  C3'        7.3120   19.7590   31.3100 C.3   997  Z15997      0.2175
     14  O3'        6.8030   18.8450   30.3470 O.3   997  Z15997     -0.2175
     15  C4'        8.7960   19.5050   31.5360 C.3   997  Z15997      0.2143
     16  O4'        8.9390   18.2170   32.1220 O.3   997  Z15997     -0.2176
     17  C5'        9.3950   20.5800   32.4560 C.3   997  Z15997      0.1813
     18  O5'        9.1570   21.8840   31.8700 O.3   997  Z15997     -0.3461
     19  C6'       10.9080   20.4670   32.6260 C.3   997  Z15997      0.2141
     20  O6'       11.5190   20.7460   31.3470 O.3   997  Z15997     -0.2176
@<TRIPOS>BOND
     1     6     5    1
     2     5     4   ar
     3     5     7   ar
     4     8     7    1
     5     4     3   ar
     6    14    13    1
     7     7     9   ar
     8    12    11    1
     9    11    13    1
    10    11    10    1
    11    13    15    1
    12     3    10    1
    13     3     1   ar
    14    20    19    1
    15    15    16    1
    16    15    17    1
    17     9     1   ar
    18    10    18    1
    19    18    17    1
    20     1     2    1
    21    17    19    1
