@<TRIPOS>MOLECULE
3np7_Z16_A_1.pdb
 20 21 0 0 0
SMALL
GASTEIGER

@<TRIPOS>ATOM
      1  C1        33.9770   24.0010   30.2600 C.ar  999  Z16999      0.2047
      2  O1        32.6280   24.0350   30.4430 O.3   999  Z16999     -0.2859
      3  C2        34.5300   23.4950   29.0790 C.ar  999  Z16999      0.0501
      4  C3        35.9180   23.4690   28.9320 C.ar  999  Z16999      0.0434
      5  C4        36.7390   23.9560   29.9490 C.ar  999  Z16999      0.1966
      6  O4        38.0870   23.9360   29.8060 O.3   999  Z16999     -0.2865
      7  C5        36.1850   24.4570   31.1220 C.ar  999  Z16999      0.0566
      8  C6        34.8040   24.4790   31.2750 C.ar  999  Z16999      0.0994
      9 CL6        34.1130   25.0940   32.7340 Cl    999  Z16999     -0.0788
     10  C1'       33.6060   22.9540   27.9750 C.3   999  Z16999      0.1736
     11  C2'       34.1130   23.0790   26.5260 C.3   999  Z16999      0.2159
     12  O2'       34.4070   24.4460   26.2290 O.3   999  Z16999     -0.2173
     13  C3'       33.0570   22.5220   25.5530 C.3   999  Z16999      0.2175
     14  O3'       33.5640   22.5160   24.2150 O.3   999  Z16999     -0.2175
     15  C4'       32.6190   21.1000   25.9510 C.3   999  Z16999      0.2143
     16  O4'       31.4540   20.7460   25.2100 O.3   999  Z16999     -0.2176
     17  C5'       32.3120   20.9980   27.4650 C.3   999  Z16999      0.1813
     18  O5'       33.4100   21.5290   28.2480 O.3   999  Z16999     -0.3461
     19  C6'       32.0250   19.5610   27.9310 C.3   999  Z16999      0.2141
     20  O6'       33.0950   18.6910   27.5460 O.3   999  Z16999     -0.2176
@<TRIPOS>BOND
     1    14    13    1
     2    16    15    1
     3    13    15    1
     4    13    11    1
     5    15    17    1
     6    12    11    1
     7    11    10    1
     8    17    19    1
     9    17    18    1
    10    20    19    1
    11    10    18    1
    12    10     3    1
    13     4     3   ar
    14     4     5   ar
    15     3     1   ar
    16     6     5    1
    17     5     7   ar
    18     1     2    1
    19     1     8   ar
    20     7     8   ar
    21     8     9    1
