@<TRIPOS>MOLECULE
3np8_THP_A_1.pdb
 25 26 0 0 0
SMALL
GASTEIGER

@<TRIPOS>ATOM
      1  P2        17.7800   10.9910    4.8430 P.3   150  THP150      0.5327
      2  O4P       16.6040   11.7950    5.3470 O.3   150  THP150     -0.1145
      3  O5P       17.7620    9.4970    5.1580 O.2   150  THP150     -0.2224
      4  O6P       19.1110   11.7480    5.3160 O.3   150  THP150     -0.1145
      5  P1        21.0110   14.6060    0.8450 P.3   150  THP150      0.5326
      6  O1P       21.6480   13.5270    1.7300 O.3   150  THP150     -0.1145
      7  O2P       22.1340   15.0570   -0.1300 O.2   150  THP150     -0.2224
      8  O3P       20.4600   15.6810    1.8310 O.3   150  THP150     -0.1145
      9  O5'       17.7800   11.0880    3.2450 O.3   150  THP150     -0.2675
     10  C5'       17.9900   12.4160    2.7180 C.3   150  THP150      0.1857
     11  C4'       18.8470   12.3170    1.4520 C.3   150  THP150      0.1748
     12  O4'       18.4360   11.2420    0.6160 O.3   150  THP150     -0.3340
     13  C3'       18.7990   13.6150    0.5660 C.3   150  THP150      0.1600
     14  O3'       20.0480   13.7870   -0.1210 O.3   150  THP150     -0.2700
     15  C2'       17.8080   13.1600   -0.5240 C.3   150  THP150      0.0847
     16  C1'       18.0430   11.6200   -0.6990 C.3   150  THP150      0.2089
     17  N1        16.7500   10.9790   -1.0920 N.am  150  THP150     -0.1794
     18  C2        16.4510   10.7810   -2.4030 C.1   150  THP150      0.2844
     19  O2        17.2480   11.1100   -3.3030 O.2   150  THP150     -0.1918
     20  N3        15.2570   10.2980   -2.8270 N.2   150  THP150     -0.2455
     21  C4        14.3440    9.9580   -1.8660 C.1   150  THP150      0.2134
     22  O4        13.2800    9.5410   -2.2560 O.2   150  THP150     -0.2088
     23  C5        14.6160   10.1510   -0.4870 C.2   150  THP150      0.0891
     24  C5M       13.5390    9.7920    0.5240 C.3   150  THP150      0.0462
     25  C6        15.8210   10.6850   -0.1050 C.2   150  THP150      0.0877
@<TRIPOS>BOND
     1    19    18    2
     2    20    18    2
     3    20    21    2
     4    18    17   am
     5    22    21    2
     6    21    23    1
     7    17    16    1
     8    17    25    1
     9    16    15    1
    10    16    12    1
    11    15    13    1
    12    23    25    2
    13    23    24    1
    14     7     5    2
    15    14    13    1
    16    14     5    1
    17    13    11    1
    18    12    11    1
    19     5     6    1
    20     5     8    1
    21    11    10    1
    22    10     9    1
    23     9     1    1
    24     1     3    2
    25     1     4    1
    26     1     2    1
