@<TRIPOS>MOLECULE
3np9_Z2T_A_1.pdb
 21 22 0 0 0
SMALL
GASTEIGER

@<TRIPOS>ATOM
      1  C1        33.6380   23.9780   30.1330 C.ar  998  Z2T998      0.2046
      2  O1        32.2910   24.1350   30.3350 O.3   998  Z2T998     -0.2859
      3  C2        34.1270   23.4390   28.9460 C.ar  998  Z2T998      0.0499
      4  C3        35.5020   23.2860   28.7630 C.ar  998  Z2T998      0.0383
      5  C4        36.3960   23.6840   29.7580 C.ar  998  Z2T998      0.1395
      6  O4        37.7290   23.5250   29.5380 O.3   998  Z2T998     -0.4714
      7  C5        35.9080   24.2310   30.9460 C.ar  998  Z2T998      0.0515
      8  C6        34.5320   24.3760   31.1220 C.ar  998  Z2T998      0.0993
      9 CL6        33.9050   25.0340   32.5820 Cl    998  Z2T998     -0.0788
     10  C7        38.5320   23.6890   30.7100 C.3   998  Z2T998      0.2525
     11  C1'       33.1460   22.9830   27.8670 C.3   998  Z2T998      0.1736
     12  C2'       33.6100   23.1590   26.4150 C.3   998  Z2T998      0.2159
     13  O2'       33.8650   24.5470   26.1360 O.3   998  Z2T998     -0.2173
     14  C3'       32.5490   22.5680   25.4640 C.3   998  Z2T998      0.2175
     15  O3'       33.0070   22.6420   24.1130 O.3   998  Z2T998     -0.2175
     16  C4'       32.2430   21.1030   25.8230 C.3   998  Z2T998      0.2143
     17  O4'       31.0830   20.6640   25.1110 O.3   998  Z2T998     -0.2176
     18  C5'       31.9980   20.9180   27.3370 C.3   998  Z2T998      0.1813
     19  O5'       33.0380   21.5490   28.1290 O.3   998  Z2T998     -0.3461
     20  C6'       31.9260   19.4360   27.7480 C.3   998  Z2T998      0.2141
     21  O6'       33.0400   18.7210   27.1960 O.3   998  Z2T998     -0.2176
@<TRIPOS>BOND
     1    15    14    1
     2    17    16    1
     3    14    16    1
     4    14    12    1
     5    16    18    1
     6    13    12    1
     7    12    11    1
     8    21    20    1
     9    18    20    1
    10    18    19    1
    11    11    19    1
    12    11     3    1
    13     4     3   ar
    14     4     5   ar
    15     3     1   ar
    16     6     5    1
    17     6    10    1
    18     5     7   ar
    19     1     2    1
    20     1     8   ar
    21     7     8   ar
    22     8     9    1
