@<TRIPOS>MOLECULE
3npa_Z57_A_1.pdb
 20 21 0 0 0
SMALL
GASTEIGER

@<TRIPOS>ATOM
      1  C1        33.8110   24.1870   30.1340 C.ar  998  Z57998      0.1947
      2  O1        32.4740   24.4190   30.2620 O.3   998  Z57998     -0.2868
      3  C2        34.3050   23.4920   29.0230 C.ar  998  Z57998      0.0493
      4  C3        35.6740   23.2530   28.9100 C.ar  998  Z57998      0.0439
      5  C4        36.5440   23.7240   29.8910 C.ar  998  Z57998      0.2018
      6  O4        37.8750   23.4950   29.7850 O.3   998  Z57998     -0.2861
      7  C5        36.0570   24.4210   30.9890 C.ar  998  Z57998      0.0766
      8 BR5        37.2820   25.0400   32.3050 Br    998  Z57998     -0.0456
      9  C6        34.6880   24.6530   31.1200 C.ar  998  Z57998      0.0517
     10  C1'       33.3440   22.9600   27.9460 C.3   998  Z57998      0.1736
     11  C2'       33.7390   23.1860   26.4730 C.3   998  Z57998      0.2159
     12  O2'       33.9490   24.5850   26.2070 O.3   998  Z57998     -0.2173
     13  C3'       32.6560   22.5750   25.5490 C.3   998  Z57998      0.2175
     14  O3'       33.0590   22.6660   24.1780 O.3   998  Z57998     -0.2175
     15  C4'       32.3780   21.1030   25.9190 C.3   998  Z57998      0.2143
     16  O4'       31.2100   20.6220   25.2360 O.3   998  Z57998     -0.2176
     17  C5'       32.1910   20.9270   27.4450 C.3   998  Z57998      0.1813
     18  O5'       33.3120   21.5170   28.1430 O.3   998  Z57998     -0.3461
     19  C6'       32.1040   19.4560   27.8750 C.3   998  Z57998      0.2141
     20  O6'       33.2010   18.7370   27.3040 O.3   998  Z57998     -0.2176
@<TRIPOS>BOND
     1    14    13    1
     2    16    15    1
     3    13    15    1
     4    13    11    1
     5    15    17    1
     6    12    11    1
     7    11    10    1
     8    20    19    1
     9    17    19    1
    10    17    18    1
    11    10    18    1
    12    10     3    1
    13     4     3   ar
    14     4     5   ar
    15     3     1   ar
    16     6     5    1
    17     5     7   ar
    18     1     2    1
    19     1     9   ar
    20     7     9   ar
    21     7     8    1
