@<TRIPOS>MOLECULE
3npc_B96_A_1.pdb
 39 43 0 0 0
SMALL
GASTEIGER

@<TRIPOS>ATOM
      1  C1        55.1090   47.7460   10.1500 C.2   365  B96365      0.3491
      2  O1        53.9930   48.1800    9.9410 O.2   365  B96365     -0.2484
      3  N2        55.8600   48.2360   11.1640 N.am  365  B96365     -0.1606
      4  C3        55.3960   49.1900   12.0890 C.ar  365  B96365      0.0751
      5  C4        56.1180   50.3550   12.4040 C.ar  365  B96365      0.0183
      6  C5        55.5790   51.2550   13.3750 C.ar  365  B96365      0.0352
      7  C6        54.3430   50.9590   14.0150 C.ar  365  B96365      0.1386
      8  C31       57.3380   50.6560   11.7700 C.ar  365  B96365      0.0014
      9  C32       57.9950   51.7930   12.0920 C.ar  365  B96365      0.0000
     10  C33       57.4780   52.6710   13.0470 C.ar  365  B96365      0.0001
     11  C34       56.2960   52.4300   13.6800 C.ar  365  B96365      0.0031
     12  C7        53.6760   49.8000   13.6980 C.ar  365  B96365      0.0382
     13  C8        54.2040   48.9310   12.7500 C.ar  365  B96365      0.0198
     14  N9        55.6480   46.7770    9.3860 N.am  365  B96365     -0.1418
     15  C10       55.0160   46.0950    8.3370 C.ar  365  B96365      0.1587
     16  C14       54.2400   46.5870    7.3270 C.ar  365  B96365      0.0527
     17  C13       53.8390   45.5070    6.5200 C.ar  365  B96365      0.0811
     18  N12       54.3430   44.4170    7.0110 N.ar  365  B96365     -0.1683
     19  N11       55.0820   44.7430    8.1500 N.ar  365  B96365     -0.2145
     20  C15       55.7500   43.7760    8.9090 C.ar  365  B96365      0.0842
     21  C17       53.8320   45.9910    4.1080 C.3   365  B96365      0.0060
     22  C18       52.3840   44.1580    5.0340 C.3   365  B96365      0.0060
     23  C19       51.8030   46.5280    5.4910 C.3   365  B96365      0.0060
     24  C16       52.9670   45.5500    5.2890 C.3   365  B96365      0.0372
     25  C20       56.4310   42.7670    8.2300 C.ar  365  B96365      0.0189
     26  C21       57.0790   41.7790    8.9380 C.ar  365  B96365     -0.0027
     27  C22       57.0340   41.7900   10.3270 C.ar  365  B96365     -0.0218
     28  C23       56.3450   42.7890   11.0040 C.ar  365  B96365     -0.0027
     29  C24       55.6950   43.7860   10.2950 C.ar  365  B96365      0.0189
     30  C25       57.7560   40.7120   11.1040 C.3   365  B96365      0.0310
     31  O41       53.8680   51.8360   14.9470 O.3   365  B96365     -0.4740
     32  C42       52.5070   51.6030   15.3470 C.3   365  B96365      0.2226
     33  C43       52.0470   52.8360   16.1360 C.3   365  B96365      0.1202
     34  N44       51.2040   53.7350   15.3300 N.3   365  B96365     -0.2653
     35  C45       52.0140   54.3100   14.2390 C.3   365  B96365      0.1047
     36  C46       51.1380   55.2660   13.4220 C.3   365  B96365      0.1595
     37  O47       50.7840   56.3550   14.2750 O.3   365  B96365     -0.3508
     38  C48       49.9840   55.8710   15.3710 C.3   365  B96365      0.1595
     39  C49       50.7740   54.8450   16.1980 C.3   365  B96365      0.1047
@<TRIPOS>BOND
     1    21    24    1
     2    22    24    1
     3    24    23    1
     4    24    17    1
     5    17    18   ar
     6    17    16   ar
     7    18    19   ar
     8    16    15   ar
     9    19    15   ar
    10    19    20    1
    11    25    20   ar
    12    25    26   ar
    13    15    14    1
    14    20    29   ar
    15    26    27   ar
    16    14     1   am
    17     2     1    2
    18     1     3   am
    19    29    28   ar
    20    27    28   ar
    21    27    30    1
    22     3     4    1
    23     8     9   ar
    24     8     5   ar
    25     4     5   ar
    26     4    13   ar
    27     9    10   ar
    28     5     6   ar
    29    13    12   ar
    30    10    11   ar
    31     6    11   ar
    32     6     7   ar
    33    36    35    1
    34    36    37    1
    35    12     7   ar
    36     7    31    1
    37    35    34    1
    38    37    38    1
    39    31    32    1
    40    34    33    1
    41    34    39    1
    42    32    33    1
    43    38    39    1
