@<TRIPOS>MOLECULE
3npl_HEM_A_1.pdb
 43 50 0 0 0
SMALL
GASTEIGER

@<TRIPOS>ATOM
      1  CHA        1.0660   41.6910   15.2690 C.2   500  HEM500      0.0000
      2  CHB       -0.3490   37.0890   14.5430 C.2   500  HEM500      0.0000
      3  CHC       -4.9710   38.5370   14.9210 C.2   500  HEM500      0.0000
      4  CHD       -3.6000   43.1770   14.7910 C.2   500  HEM500      0.0000
      5  C1A        1.1190   40.3190   15.0550 C.ar  500  HEM500      0.0000
      6  C2A        2.3090   39.4920   14.9670 C.ar  500  HEM500      0.0000
      7  C3A        1.9110   38.2280   14.7710 C.ar  500  HEM500      0.0000
      8  C4A        0.4610   38.2080   14.7230 C.ar  500  HEM500      0.0000
      9  CMA        2.8330   37.0030   14.5940 C.3   500  HEM500      0.0000
     10  CAA        3.7730   39.9910   15.0710 C.3   500  HEM500      0.0000
     11  CBA        4.2980   40.3670   13.6940 C.3   500  HEM500      0.0000
     12  CGA        5.8120   40.4620   13.6620 C.2   500  HEM500      0.0000
     13  O1A        6.3580   40.7300   12.5690 O.co2 500  HEM500      0.0000
     14  O2A        6.5110   40.2970   14.6970 O.co2 500  HEM500      0.0000
     15  C1B       -1.7250   37.0510   14.5960 C.2   500  HEM500      0.0000
     16  C2B       -2.5660   35.8750   14.5170 C.2   500  HEM500      0.0000
     17  C3B       -3.8470   36.2830   14.6170 C.2   500  HEM500      0.0000
     18  C4B       -3.8560   37.7280   14.7650 C.2   500  HEM500      0.0000
     19  CMB       -2.0570   34.4130   14.3220 C.3   500  HEM500      0.0000
     20  CAB       -5.1320   35.4150   14.5500 C.2   500  HEM500      0.0000
     21  CBB       -5.2750   34.3110   15.2970 C.2   500  HEM500      0.0000
     22  C1C       -5.0260   39.9210   14.9310 C.ar  500  HEM500      0.0000
     23  C2C       -6.2140   40.7400   15.0290 C.ar  500  HEM500      0.0000
     24  C3C       -5.8160   42.0180   14.9950 C.ar  500  HEM500      0.0000
     25  C4C       -4.3890   42.0470   14.8770 C.ar  500  HEM500      0.0000
     26  CMC       -7.6650   40.1840   15.1560 C.3   500  HEM500      0.0000
     27  CAC       -6.6550   43.3070   15.0640 C.2   500  HEM500      0.0000
     28  CBC       -7.8870   43.3210   15.5800 C.2   500  HEM500      0.0000
     29  C1D       -2.2210   43.2310   14.8850 C.2   500  HEM500      0.0000
     30  C2D       -1.4120   44.4440   14.8470 C.2   500  HEM500      0.0000
     31  C3D        0.0340   43.9690   14.9990 C.2   500  HEM500      0.0000
     32  C4D       -0.0330   42.5200   15.1050 C.2   500  HEM500      0.0000
     33  CMD       -1.8780   45.9070   14.6880 C.3   500  HEM500      0.0000
     34  CAD        1.2830   44.8500   15.0760 C.3   500  HEM500      0.0000
     35  CBD        1.4600   45.0830   16.5910 C.3   500  HEM500      0.0000
     36  CGD        2.5990   46.0450   16.8870 C.2   500  HEM500      0.0000
     37  O1D        2.4070   47.0400   17.6340 O.co2 500  HEM500      0.0000
     38  O2D        3.7210   45.8270   16.3840 O.co2 500  HEM500      0.0000
     39  NA         0.0140   39.4970   14.9360 N.ar  500  HEM500      0.0000
     40  NB        -2.5420   38.1560   14.7740 N.2   500  HEM500      0.0000
     41  NC        -3.9390   40.7550   14.8620 N.ar  500  HEM500      0.0000
     42  ND        -1.3810   42.1230   15.0510 N.2   500  HEM500      0.0000
     43 FE         -1.9760   40.1370   14.9710 Fe    500  HEM500      0.0000
@<TRIPOS>BOND
     1    13    12   ar
     2    12    11    1
     3    12    14   ar
     4    11    10    1
     5    19    16    1
     6    16    15    1
     7    16    17    2
     8     2    15    1
     9     2     8    2
    10    20    17    1
    11    20    21    2
    12     9     7    1
    13    15    40    2
    14    17    18    1
    15    33    30    1
    16     8     7   ar
    17     8    39   ar
    18    18    40    1
    19    18     3    2
    20     7     6   ar
    21    40    43    1
    22     4    25    1
    23     4    29    2
    24    30    29    1
    25    30    31    2
    26    41    25   ar
    27    41    22   ar
    28    41    43    1
    29    25    24   ar
    30    29    42    1
    31     3    22    1
    32    22    23   ar
    33    39    43    1
    34    39     5   ar
    35     6     5   ar
    36     6    10    1
    37    43    42    1
    38    24    23   ar
    39    24    27    1
    40    31    34    1
    41    31    32    1
    42    23    26    1
    43    42    32    2
    44     5     1    2
    45    27    28    2
    46    34    35    1
    47    32     1    1
    48    38    36   ar
    49    35    36    1
    50    36    37   ar
