@<TRIPOS>MOLECULE
3npl_RU8_B_1.pdb
 43 52 0 0 0
SMALL
GASTEIGER

@<TRIPOS>ATOM
      1  C01      -67.9530   21.2630  -15.5020 C.2   501  RU8501      0.0000
      2  C02      -66.7210   21.2300  -14.8330 C.ar  501  RU8501      0.0000
      3  C03      -65.5310   21.7640  -15.3960 C.ar  501  RU8501      0.0000
      4  C05      -64.2710   21.7350  -14.7360 C.ar  501  RU8501      0.0000
      5  C06      -69.0690   20.7220  -14.8400 C.2   501  RU8501      0.0000
      6  C08      -68.9460   20.1540  -13.5520 C.2   501  RU8501      0.0000
      7  N10      -67.7980   20.1460  -12.9740 N.pl3 501  RU8501      0.0000
      8  C11      -66.7150   20.6410  -13.5510 C.ar  501  RU8501      0.0000
      9 RU1       -67.2750   19.3880  -11.1060 Ru    501  RU8501      0.0000
     10  N13      -65.3530   20.0430  -11.6350 N.pl3 501  RU8501      0.0000
     11  C14      -65.3840   20.6060  -12.8210 C.ar  501  RU8501      0.0000
     12  C15      -64.2720   19.9860  -10.9230 C.2   501  RU8501      0.0000
     13  C17      -63.1450   20.4550  -11.3830 C.2   501  RU8501      0.0000
     14  C19      -63.0580   21.0560  -12.6530 C.2   501  RU8501      0.0000
     15  C21      -64.2220   21.1480  -13.4290 C.ar  501  RU8501      0.0000
     16  N22      -66.7000   18.6340   -9.2830 N.pl3 501  RU8501      0.0000
     17  C23      -66.7060   19.3000   -8.1690 C.3   501  RU8501      0.0000
     18  C24      -66.2500   18.6890   -6.9940 C.2   501  RU8501      0.0000
     19  C25      -65.7510   17.3770   -7.0800 C.2   501  RU8501      0.0000
     20  C26      -65.7380   16.7330   -8.3270 C.2   501  RU8501      0.0000
     21  C27      -66.2170   17.4300   -9.4470 C.2   501  RU8501      0.0000
     22  C28      -66.2280   16.8460  -10.7610 C.3   501  RU8501      0.0000
     23  C29      -65.7560   15.5490  -10.9700 C.2   501  RU8501      0.0000
     24  C30      -65.8000   15.0410  -12.2620 C.2   501  RU8501      0.0000
     25  C31      -66.3120   15.8440  -13.2790 C.2   501  RU8501      0.0000
     26  C32      -66.7560   17.1280  -12.9680 C.2   501  RU8501      0.0000
     27  N33      -66.6560   17.5510  -11.7730 N.pl3 501  RU8501      0.0000
     28  N34      -69.1860   18.7920  -10.6030 N.pl3 501  RU8501      0.0000
     29  C35      -69.6920   17.6200  -10.7970 C.3   501  RU8501      0.0000
     30  C36      -71.0070   17.3820  -10.4070 C.2   501  RU8501      0.0000
     31  C37      -71.7470   18.4170   -9.8400 C.2   501  RU8501      0.0000
     32  C38      -71.1520   19.6710   -9.6810 C.2   501  RU8501      0.0000
     33  C39      -69.8300   19.8270  -10.1020 C.2   501  RU8501      0.0000
     34  C40      -69.1670   21.0870   -9.9770 C.3   501  RU8501      0.0000
     35  N41      -67.9300   21.2110  -10.3920 N.pl3 501  RU8501      0.0000
     36  C42      -69.8310   22.1980   -9.4290 C.2   501  RU8501      0.0000
     37  C43      -69.1550   23.4220   -9.3230 C.2   501  RU8501      0.0000
     38  C44      -67.8290   23.4750   -9.7670 C.2   501  RU8501      0.0000
     39  C45      -67.2490   22.3080  -10.2980 C.2   501  RU8501      0.0000
     40  N46      -63.2390   22.2650  -15.3560 N.am  501  RU8501      0.0000
     41  C47      -62.1260   21.6890  -15.7490 C.2   501  RU8501      0.0000
     42  O48      -61.8680   20.4010  -15.5110 O.2   501  RU8501      0.0000
     43  C49      -61.1320   22.4490  -16.4130 C.3   501  RU8501      0.0000
@<TRIPOS>BOND
     1    43    41    1
     2    41    42    2
     3    41    40   am
     4     1     5    1
     5     1     2    2
     6     3     2   ar
     7     3     4   ar
     8    40     4    1
     9     5     6    2
    10     2     8   ar
    11     4    15   ar
    12     6     7    1
    13     8     7    1
    14     8    11   ar
    15    15    11   ar
    16    15    14    2
    17    25    26    2
    18    25    24    1
    19     7     9    1
    20    26    27    1
    21    11    10    1
    22    14    13    1
    23    24    23    2
    24    27     9    1
    25    27    22    1
    26    10     9    1
    27    10    12    1
    28    13    12    2
    29     9    28    1
    30     9    35    1
    31     9    16    1
    32    23    22    1
    33    29    28    1
    34    29    30    1
    35    22    21    1
    36    28    33    1
    37    30    31    2
    38    35    39    1
    39    35    34    1
    40    39    38    2
    41    33    34    1
    42    33    32    2
    43    34    36    1
    44    31    32    1
    45    38    37    1
    46    21    16    1
    47    21    20    2
    48    36    37    2
    49    16    17    1
    50    20    19    1
    51    17    18    1
    52    19    18    2
