@<TRIPOS>MOLECULE
3npr_PS7_A_1.pdb
 39 39 0 0 0
SMALL
GASTEIGER

@<TRIPOS>ATOM
      1  CAA       24.8910  -15.7630   12.0550 C.3   1001  PS71001     0.0260
      2  CAB       27.4600  -15.9390   11.6030 C.3   1001  PS71001     0.0260
      3  CAC       23.4510  -22.5520    7.6520 C.3   1001  PS71001     0.0260
      4  CAD       22.3960  -20.7170    9.2140 C.3   1001  PS71001     0.0260
      5  CAE       28.2690   -9.7220   10.0770 C.3   1001  PS71001     0.0260
      6  CAF       23.0560  -16.2950    8.8260 C.3   1001  PS71001     0.0260
      7  CAG       26.9800   -8.3140    6.9360 C.3   1001  PS71001     0.0260
      8  CAH       22.5140  -11.3650    5.7370 C.3   1001  PS71001     0.0004
      9  OAI       21.0730   -6.0640   11.1180 O.3   1001  PS71001    -0.1143
     10  OAJ       24.2590   -6.8430   10.1890 O.2   1001  PS71001    -0.5169
     11  OAK       21.6870   -6.5730    8.6990 O.2   1001  PS71001    -0.2221
     12  OAL       19.6930   -7.8640    9.8750 O.3   1001  PS71001    -0.1143
     13  OAM       24.1930   -9.1680   11.2910 O.3   1001  PS71001    -0.4370
     14  CAN       26.0590  -14.1370   10.4610 C.2   1001  PS71001    -0.0342
     15  CAO       23.1280  -20.1860    6.8080 C.2   1001  PS71001    -0.0342
     16  CAP       28.7480  -11.3680    8.2190 C.2   1001  PS71001    -0.0342
     17  CAQ       23.9900  -15.3870    6.6490 C.2   1001  PS71001    -0.0346
     18  CAR       26.3180  -10.6100    5.9980 C.2   1001  PS71001    -0.0348
     19  CAS       27.0620  -13.5000    9.7200 C.3   1001  PS71001     0.0297
     20  CAT       22.8130  -18.8280    6.8290 C.3   1001  PS71001     0.0297
     21  CAU       29.4100  -10.3940    7.4650 C.3   1001  PS71001     0.0297
     22  CAV       23.6310  -14.0510    6.8710 C.3   1001  PS71001     0.0254
     23  CAW       27.5100  -12.1860   10.3720 C.3   1001  PS71001     0.0263
     24  CAX       24.0470  -17.9320    7.0090 C.3   1001  PS71001     0.0263
     25  CAY       28.7680  -10.0690    6.1040 C.3   1001  PS71001     0.0263
     26  CAZ       23.2260  -10.0210    8.3170 C.3   1001  PS71001     0.1494
     27  CBA       24.4980  -13.0110    6.1340 C.3   1001  PS71001     0.0051
     28  OBB       23.8740   -8.8130    8.7660 O.3   1001  PS71001    -0.3138
     29  OBC       22.0970   -8.3030   10.4920 O.3   1001  PS71001    -0.2261
     30  CBD       26.1180  -15.2730   11.2760 C.2   1001  PS71001    -0.0478
     31  CBE       23.0260  -21.0980    7.8620 C.2   1001  PS71001    -0.0478
     32  CBF       28.2180  -11.1390    9.4950 C.2   1001  PS71001    -0.0478
     33  CBG       23.6840  -16.4990    7.4380 C.2   1001  PS71001    -0.0478
     34  CBH       27.3020   -9.6720    6.2870 C.2   1001  PS71001    -0.0478
     35  CBI       24.8360  -10.3650    6.3050 C.3   1001  PS71001     0.0239
     36  CBJ       24.2890  -10.9080    7.6330 C.3   1001  PS71001     0.0344
     37  CBK       23.9160  -11.5970    6.3140 C.3   1001  PS71001     0.0068
     38  PBL       21.0160   -7.2150   10.0020 P.3   1001  PS71001     0.5373
     39  PBM       23.6800   -8.2060   10.2780 P.3   1001  PS71001     0.2230
@<TRIPOS>BOND
     1     8    37    1
     2    18    34    2
     3    18    35    1
     4    25    34    1
     5    25    21    1
     6    27    37    1
     7    27    22    1
     8    34     7    1
     9    35    37    1
    10    35    36    1
    11    37    36    1
    12    17    22    1
    13    17    33    2
    14    15    20    1
    15    15    31    2
    16    20    24    1
    17    24    33    1
    18    33     6    1
    19    21    16    1
    20    36    26    1
    21     3    31    1
    22    31     4    1
    23    16    32    2
    24    26    28    1
    25    11    38    2
    26    28    39    1
    27    32     5    1
    28    32    23    1
    29    19    23    1
    30    19    14    1
    31    12    38    1
    32    38    29    1
    33    38     9    1
    34    10    39    2
    35    39    29    1
    36    39    13    1
    37    14    30    2
    38    30     2    1
    39    30     1    1
