@<TRIPOS>MOLECULE
3nq1_KOJ_A_1.pdb
 10 10 0 0 0
SMALL
GASTEIGER

@<TRIPOS>ATOM
      1  C1       -10.1400  -20.9650    7.2060 C.3   1351  KOJ1351     0.2766
      2  C2        -8.7960  -21.2890    7.2220 C.2   1351  KOJ1351     0.2555
      3  C3        -7.8920  -20.2910    7.1080 C.2   1351  KOJ1351     0.2366
      4  C4        -8.3280  -18.9720    6.9770 C.2   1351  KOJ1351     0.0802
      5  C5        -9.6850  -18.6750    6.9860 C.2   1351  KOJ1351     0.1532
      6  C6       -10.1710  -17.2830    6.8600 C.3   1351  KOJ1351     0.2453
      7  O2        -8.3360  -22.5320    7.3370 O.2   1351  KOJ1351    -0.2840
      8  O3        -6.6200  -20.6470    7.1050 O.2   1351  KOJ1351    -0.2833
      9  O5       -10.5290  -19.5880    7.0720 O.2   1351  KOJ1351    -0.4685
     10  O6       -11.0830  -17.0050    5.9330 O.3   1351  KOJ1351    -0.2117
@<TRIPOS>BOND
     1    10     6    1
     2     6     5    1
     3     4     5    2
     4     4     3    1
     5     5     9    1
     6     9     1    1
     7     8     3    1
     8     3     2    2
     9     1     2    1
    10     2     7    1
