@<TRIPOS>MOLECULE
3nq3_DKA_A_1.pdb
 12 11 0 0 0
SMALL
GASTEIGER

@<TRIPOS>ATOM
      1  C1         8.0400   -0.6010    0.8160 C.2   3053  DKA3053     0.3649
      2  O1         7.2490   -1.1220   -0.0040 O.co2 3053  DKA3053    -0.2457
      3  C2         9.5150   -0.6680    0.5160 C.3   3053  DKA3053     0.1141
      4  C3        10.0030   -2.1100    0.5520 C.3   3053  DKA3053     0.0118
      5  C4        11.3370   -2.2170   -0.1660 C.3   3053  DKA3053     0.0006
      6  C5        12.1390   -3.4130    0.3320 C.3   3053  DKA3053     0.0000
      7  C6        13.5250   -3.3600   -0.2960 C.3   3053  DKA3053     0.0000
      8  C7        14.2350   -4.6990   -0.1840 C.3   3053  DKA3053     0.0000
      9  C8        15.2240   -4.8530   -1.3220 C.3   3053  DKA3053     0.0000
     10  C9        16.6060   -5.2280   -0.8400 C.3   3053  DKA3053     0.0000
     11  C10       17.6060   -5.1560   -1.9730 C.3   3053  DKA3053     0.0000
     12  O2         7.6730   -0.0190    1.8620 O.co2 3053  DKA3053    -0.2457
@<TRIPOS>BOND
     1    11    10    1
     2     9    10    1
     3     9     8    1
     4     7     8    1
     5     7     6    1
     6     5     6    1
     7     5     4    1
     8     2     1   ar
     9     3     4    1
    10     3     1    1
    11     1    12   ar
