@<TRIPOS>MOLECULE
3nq7_BMP_A_1.pdb
 22 23 0 0 0
SMALL
GASTEIGER

@<TRIPOS>ATOM
      1  P         24.8710   -2.3920    8.3460 P.3   229  BMP229      0.5327
      2  OP1       24.0930   -3.1380    7.3250 O.2   229  BMP229     -0.2224
      3  OP2       25.6000   -3.3660    9.3800 O.3   229  BMP229     -0.1145
      4  OP3       25.8690   -1.3870    7.6390 O.3   229  BMP229     -0.1145
      5  O5'       23.8730   -1.5850    9.3140 O.3   229  BMP229     -0.2675
      6  C5'       22.7200   -0.9700    8.7220 C.3   229  BMP229      0.1859
      7  C4'       22.0870   -0.2110    9.9060 C.3   229  BMP229      0.1801
      8  O4'       21.0370    0.6670    9.4310 O.3   229  BMP229     -0.3319
      9  C3'       21.4360   -1.1310   10.9620 C.3   229  BMP229      0.2158
     10  O3'       21.4250   -0.5120   12.2670 O.3   229  BMP229     -0.2175
     11  C2'       19.9960   -1.2350   10.4360 C.3   229  BMP229      0.2320
     12  O2'       19.1120   -1.5060   11.5250 O.3   229  BMP229     -0.2157
     13  C1'       19.7510    0.1820    9.8490 C.3   229  BMP229      0.2425
     14  N1        18.8220    0.2470    8.7120 N.am  229  BMP229     -0.1473
     15  C2        18.9530   -0.5430    7.6240 C.1   229  BMP229      0.2863
     16  O2        19.8690   -1.3570    7.5360 O.2   229  BMP229     -0.1918
     17  N3        18.0680   -0.4340    6.6180 N.2   229  BMP229     -0.2489
     18  C4        17.0590    0.4510    6.6550 C.1   229  BMP229      0.2018
     19  O4        16.2760    0.5140    5.7110 O.2   229  BMP229     -0.2129
     20  C5        16.9110    1.2890    7.7670 C.3   229  BMP229      0.2213
     21  C6        17.8100    1.1710    8.7860 C.2   229  BMP229      0.2591
     22  O1        17.7260    1.9790    9.8590 O.2   229  BMP229     -0.2725
@<TRIPOS>BOND
     1    19    18    2
     2    17    18    2
     3    17    15    2
     4    18    20    1
     5     2     1    2
     6    16    15    2
     7    15    14   am
     8     4     1    1
     9    20    21    1
    10     1     5    1
    11     1     3    1
    12    14    21   am
    13    14    13    1
    14     6     5    1
    15     6     7    1
    16    21    22    2
    17     8    13    1
    18     8     7    1
    19    13    11    1
    20     7     9    1
    21    11     9    1
    22    11    12    1
    23     9    10    1
