@<TRIPOS>MOLECULE
3nq9_OCA_A_1.pdb
 10 9 0 0 0
SMALL
GASTEIGER

@<TRIPOS>ATOM
      1  C1        -3.1830   -3.2620  -17.0780 C.2   1111  OCA1111     0.3649
      2  C2        -2.6540   -4.5610  -17.6350 C.3   1111  OCA1111     0.1141
      3  C3        -3.8030   -5.5260  -17.9290 C.3   1111  OCA1111     0.0118
      4  C4        -3.9210   -6.5870  -16.8450 C.3   1111  OCA1111     0.0006
      5  C5        -5.3290   -7.1720  -16.8130 C.3   1111  OCA1111     0.0000
      6  C6        -5.7850   -7.6230  -18.1890 C.3   1111  OCA1111     0.0000
      7  C7        -7.3050   -7.7030  -18.2680 C.3   1111  OCA1111     0.0000
      8  C8        -7.7110   -9.0490  -18.8230 C.3   1111  OCA1111     0.0000
      9  O1        -4.3080   -2.8480  -17.4500 O.co2 1111  OCA1111    -0.2457
     10  O2        -2.4750   -2.6460  -16.2560 O.co2 1111  OCA1111    -0.2457
@<TRIPOS>BOND
     1     8     7    1
     2     7     6    1
     3     6     5    1
     4     3     2    1
     5     3     4    1
     6     2     1    1
     7     9     1   ar
     8     1    10   ar
     9     4     5    1
