@<TRIPOS>MOLECULE
3nqe_BMP_A_1.pdb
 22 23 0 0 0
SMALL
GASTEIGER

@<TRIPOS>ATOM
      1  P         25.1030   -2.4420    8.4300 P.3   229  BMP229      0.5327
      2  OP1       24.3430   -3.2160    7.4030 O.2   229  BMP229     -0.2224
      3  OP2       25.8270   -3.3510    9.5140 O.3   229  BMP229     -0.1145
      4  OP3       26.1080   -1.4130    7.7490 O.3   229  BMP229     -0.1145
      5  O5'       24.1090   -1.5980    9.3870 O.3   229  BMP229     -0.2675
      6  C5'       22.9400   -1.0390    8.7860 C.3   229  BMP229      0.1859
      7  C4'       22.2880   -0.2340    9.9210 C.3   229  BMP229      0.1801
      8  O4'       21.2310    0.5960    9.3810 O.3   229  BMP229     -0.3319
      9  C3'       21.6080   -1.1370   10.9690 C.3   229  BMP229      0.2158
     10  O3'       21.5650   -0.4600   12.2440 O.3   229  BMP229     -0.2175
     11  C2'       20.1710   -1.2730   10.4300 C.3   229  BMP229      0.2320
     12  O2'       19.2740   -1.5420   11.5190 O.3   229  BMP229     -0.2157
     13  C1'       19.9330    0.1230    9.8140 C.3   229  BMP229      0.2425
     14  N1        19.0370    0.1740    8.6540 N.am  229  BMP229     -0.1473
     15  C2        19.1990   -0.6240    7.5820 C.1   229  BMP229      0.2863
     16  O2        20.1160   -1.4400    7.5400 O.2   229  BMP229     -0.1918
     17  N3        18.3570   -0.5110    6.5360 N.2   229  BMP229     -0.2489
     18  C4        17.3610    0.3840    6.5220 C.1   229  BMP229      0.2018
     19  O4        16.6400    0.4410    5.5360 O.2   229  BMP229     -0.2129
     20  C5        17.1760    1.2390    7.6170 C.3   229  BMP229      0.2213
     21  C6        18.0430    1.1210    8.6650 C.2   229  BMP229      0.2591
     22  O1        17.9460    1.9180    9.7330 O.2   229  BMP229     -0.2725
@<TRIPOS>BOND
     1    19    18    2
     2    18    17    2
     3    18    20    1
     4    17    15    2
     5     2     1    2
     6    16    15    2
     7    15    14   am
     8    20    21    1
     9     4     1    1
    10     1     5    1
    11     1     3    1
    12    14    21   am
    13    14    13    1
    14    21    22    2
    15     6     5    1
    16     6     7    1
    17     8    13    1
    18     8     7    1
    19    13    11    1
    20     7     9    1
    21    11     9    1
    22    11    12    1
    23     9    10    1
