@<TRIPOS>MOLECULE
3nqf_BMP_A_1.pdb
 22 23 0 0 0
SMALL
GASTEIGER

@<TRIPOS>ATOM
      1  P         25.1300   -2.4330    8.4510 P.3   229  BMP229      0.5327
      2  OP1       24.3780   -3.2060    7.4220 O.2   229  BMP229     -0.2224
      3  OP2       25.8730   -3.3740    9.4930 O.3   229  BMP229     -0.1145
      4  OP3       26.1240   -1.4270    7.7610 O.3   229  BMP229     -0.1145
      5  O5'       24.1140   -1.6110    9.3900 O.3   229  BMP229     -0.2675
      6  C5'       22.9470   -1.0220    8.7990 C.3   229  BMP229      0.1859
      7  C4'       22.2950   -0.2350    9.9440 C.3   229  BMP229      0.1801
      8  O4'       21.2510    0.6140    9.4160 O.3   229  BMP229     -0.3319
      9  C3'       21.6180   -1.1270   10.9990 C.3   229  BMP229      0.2158
     10  O3'       21.6050   -0.4470   12.2600 O.3   229  BMP229     -0.2175
     11  C2'       20.1820   -1.2560   10.4600 C.3   229  BMP229      0.2320
     12  O2'       19.2940   -1.4840   11.5560 O.3   229  BMP229     -0.2157
     13  C1'       19.9640    0.1470    9.8490 C.3   229  BMP229      0.2425
     14  N1        19.0750    0.1870    8.6740 N.am  229  BMP229     -0.1473
     15  C2        19.2440   -0.6060    7.5980 C.1   229  BMP229      0.2863
     16  O2        20.1560   -1.4190    7.5400 O.2   229  BMP229     -0.1918
     17  N3        18.3950   -0.4980    6.5460 N.2   229  BMP229     -0.2489
     18  C4        17.3800    0.3920    6.5310 C.1   229  BMP229      0.2018
     19  O4        16.6590    0.4440    5.5380 O.2   229  BMP229     -0.2129
     20  C5        17.1810    1.2440    7.6290 C.3   229  BMP229      0.2213
     21  C6        18.0640    1.1230    8.6770 C.2   229  BMP229      0.2591
     22  O1        17.9650    1.9170    9.7400 O.2   229  BMP229     -0.2725
@<TRIPOS>BOND
     1    19    18    2
     2    18    17    2
     3    18    20    1
     4    17    15    2
     5     2     1    2
     6    16    15    2
     7    15    14   am
     8    20    21    1
     9     4     1    1
    10     1     5    1
    11     1     3    1
    12    14    21   am
    13    14    13    1
    14    21    22    2
    15     6     5    1
    16     6     7    1
    17     8    13    1
    18     8     7    1
    19    13    11    1
    20     7     9    1
    21    11     9    1
    22    11    12    1
    23     9    10    1
