@<TRIPOS>MOLECULE
3nqr_AMP_A_1.pdb
 23 25 0 0 0
SMALL
GASTEIGER

@<TRIPOS>ATOM
      1  P         44.6710   -9.1440   38.1560 P.3     1  AMP1        0.5327
      2  O1P       45.9200   -8.3910   38.5940 O.3     1  AMP1       -0.1145
      3  O2P       44.3830   -9.0640   36.6890 O.2     1  AMP1       -0.2224
      4  O3P       44.5910  -10.4970   38.7750 O.3     1  AMP1       -0.1145
      5  O5'       43.5130   -8.4190   38.9270 O.3     1  AMP1       -0.2675
      6  C5'       43.7970   -8.1930   40.3290 C.3     1  AMP1        0.1860
      7  C4'       43.2000   -6.8460   40.6800 C.3     1  AMP1        0.1823
      8  O4'       44.1060   -5.8050   40.2910 O.3     1  AMP1       -0.3135
      9  C3'       41.9170   -6.6200   39.8950 C.3     1  AMP1        0.2184
     10  O3'       40.7700   -6.9850   40.6510 O.3     1  AMP1       -0.2174
     11  C2'       41.9190   -5.1620   39.6360 C.3     1  AMP1        0.2570
     12  O2'       41.2530   -4.5590   40.7220 O.3     1  AMP1       -0.2130
     13  C1'       43.3590   -4.7670   39.7130 C.3     1  AMP1        0.3186
     14  N9        43.9270   -4.5100   38.3740 N.pl3   1  AMP1       -0.1439
     15  C8        43.8740   -5.3410   37.3250 C.3     1  AMP1        0.3377
     16  N7        44.5430   -4.7880   36.3100 N.2     1  AMP1       -0.2095
     17  C5        45.0510   -3.6010   36.7290 C.2     1  AMP1        0.2526
     18  C6        45.8310   -2.5450   36.1360 C.2     1  AMP1        0.4393
     19  N6        46.2060   -2.6820   34.8500 N.pl3   1  AMP1        0.2180
     20  N1        46.1650   -1.4840   36.9020 N.2     1  AMP1        0.0021
     21  C2        45.7750   -1.4000   38.1950 C.3     1  AMP1        0.5254
     22  N3        45.0530   -2.3670   38.7990 N.2     1  AMP1       -0.0055
     23  C4        44.6180   -3.4100   38.0910 C.2     1  AMP1        0.3518
@<TRIPOS>BOND
     1    19    18    1
     2    18    17    1
     3    18    20    2
     4    16    17    2
     5    16    15    1
     6     3     1    2
     7    17    23    1
     8    20    21    1
     9    15    14    1
    10    23    14    1
    11    23    22    2
    12     1     2    1
    13     1     4    1
    14     1     5    1
    15    21    22    1
    16    14    13    1
    17     5     6    1
    18    11    13    1
    19    11     9    1
    20    11    12    1
    21    13     8    1
    22     9    10    1
    23     9     7    1
    24     8     7    1
    25     6     7    1
