@<TRIPOS>MOLECULE
3nqs_HEM_A_1.pdb
 43 50 0 0 0
SMALL
GASTEIGER

@<TRIPOS>ATOM
      1  CHA      122.1370  110.8810   30.8680 C.2   901  HEM901      0.0000
      2  CHB      123.2510  114.7910   28.2150 C.2   901  HEM901      0.0000
      3  CHC      127.5420  112.9010   27.3440 C.2   901  HEM901      0.0000
      4  CHD      126.1850  108.7750   29.4050 C.2   901  HEM901      0.0000
      5  C1A      122.1250  112.1780   30.3470 C.ar  901  HEM901      0.0000
      6  C2A      121.1400  113.1710   30.6360 C.ar  901  HEM901      0.0000
      7  C3A      121.4170  114.2470   29.8530 C.ar  901  HEM901      0.0000
      8  C4A      122.5990  113.9290   29.1010 C.ar  901  HEM901      0.0000
      9  CMA      120.5800  115.5200   29.7680 C.3   901  HEM901      0.0000
     10  CAA      120.0380  113.0730   31.6790 C.3   901  HEM901      0.0000
     11  CBA      120.5740  113.2400   33.0990 C.3   901  HEM901      0.0000
     12  CGA      119.5140  113.0030   34.1590 C.2   901  HEM901      0.0000
     13  O1A      119.8630  112.4580   35.2240 O.co2 901  HEM901      0.0000
     14  O2A      118.3280  113.3520   33.9380 O.co2 901  HEM901      0.0000
     15  C1B      124.4570  114.5660   27.5960 C.2   901  HEM901      0.0000
     16  C2B      125.1870  115.5740   26.8630 C.2   901  HEM901      0.0000
     17  C3B      126.4260  115.0780   26.6250 C.2   901  HEM901      0.0000
     18  C4B      126.4420  113.7390   27.2350 C.2   901  HEM901      0.0000
     19  CMB      124.6830  116.9780   26.4660 C.3   901  HEM901      0.0000
     20  CAB      127.4380  115.8190   26.0000 C.2   901  HEM901      0.0000
     21  CBB      128.4990  115.3260   25.2900 C.2   901  HEM901      0.0000
     22  C1C      127.5950  111.6460   27.9190 C.ar  901  HEM901      0.0000
     23  C2C      128.7730  110.8170   27.9770 C.ar  901  HEM901      0.0000
     24  C3C      128.3710  109.5980   28.4860 C.ar  901  HEM901      0.0000
     25  C4C      126.9590  109.7320   28.7690 C.ar  901  HEM901      0.0000
     26  CMC      130.1870  111.3060   27.6080 C.3   901  HEM901      0.0000
     27  CAC      129.1050  108.4180   28.7400 C.3   901  HEM901      0.0000
     28  CBC      130.3860  108.0750   28.3260 C.3   901  HEM901      0.0000
     29  C1D      124.8840  108.9160   29.8860 C.2   901  HEM901      0.0000
     30  C2D      124.1770  107.9410   30.6910 C.2   901  HEM901      0.0000
     31  C3D      123.0850  108.5560   31.1570 C.2   901  HEM901      0.0000
     32  C4D      123.0850  109.8930   30.6080 C.2   901  HEM901      0.0000
     33  CMD      124.5270  106.4880   30.9170 C.3   901  HEM901      0.0000
     34  CAD      122.0890  108.0070   32.1520 C.3   901  HEM901      0.0000
     35  CBD      122.4020  108.4470   33.5740 C.3   901  HEM901      0.0000
     36  CGD      121.3770  107.9550   34.5740 C.2   901  HEM901      0.0000
     37  O1D      121.2910  108.5240   35.6820 O.co2 901  HEM901      0.0000
     38  O2D      120.6380  107.0080   34.2470 O.co2 901  HEM901      0.0000
     39  NA       123.0500  112.6500   29.4280 N.ar  901  HEM901      0.0000
     40  NB       125.2190  113.4340   27.7870 N.2   901  HEM901      0.0000
     41  NC       126.4930  110.9870   28.4300 N.ar  901  HEM901      0.0000
     42  ND       124.1900  110.0890   29.8120 N.2   901  HEM901      0.0000
     43 FE        124.5690  111.6680   28.5850 Fe    901  HEM901      0.0000
@<TRIPOS>BOND
     1    21    20    2
     2    20    17    1
     3    19    16    1
     4    17    16    2
     5    17    18    1
     6    16    15    1
     7    18     3    2
     8    18    40    1
     9     3    22    1
    10    15    40    2
    11    15     2    1
    12    26    23    1
    13    40    43    1
    14    22    23   ar
    15    22    41   ar
    16    23    24   ar
    17     2     8    2
    18    28    27    1
    19    41    43    1
    20    41    25   ar
    21    24    27    1
    22    24    25   ar
    23    43    39    1
    24    43    42    1
    25    25     4    1
    26     8    39   ar
    27     8     7   ar
    28     4    29    2
    29    39     5   ar
    30     9     7    1
    31    42    29    1
    32    42    32    2
    33     7     6   ar
    34    29    30    1
    35     5     6   ar
    36     5     1    2
    37    32     1    1
    38    32    31    1
    39     6    10    1
    40    30    33    1
    41    30    31    2
    42    31    34    1
    43    10    11    1
    44    34    35    1
    45    11    12    1
    46    35    36    1
    47    14    12   ar
    48    12    13   ar
    49    38    36   ar
    50    36    37   ar
