@<TRIPOS>MOLECULE
3nqs_AT2_A_1.pdb
 19 20 0 0 0
SMALL
GASTEIGER

@<TRIPOS>ATOM
      1  C1       127.2320  112.6230   31.4350 C.3   906  AT2906      0.0312
      2  C2       126.2360  113.7520   31.5640 C.ar  906  AT2906     -0.0175
      3  C3       126.0800  114.6510   30.5140 C.ar  906  AT2906      0.0165
      4  C4       125.1460  115.7040   30.6240 C.ar  906  AT2906      0.1000
      5  C6       124.5510  114.9370   32.8360 C.ar  906  AT2906      0.1471
      6  C7       125.4800  113.8910   32.7230 C.ar  906  AT2906      0.0315
      7  C9       123.9110  114.2230   35.1280 C.3   906  AT2906      0.0975
      8  C10      125.1530  114.6410   35.9470 C.3   906  AT2906      0.0433
      9  C11      125.0120  116.0510   36.5410 C.3   906  AT2906      0.0985
     10  N5       124.3820  115.8500   31.7780 N.ar  906  AT2906     -0.2277
     11  N8       123.8020  115.0940   33.9710 N.pl3 906  AT2906     -0.2220
     12  N12      123.8000  116.1230   37.3530 N.am  906  AT2906     -0.2459
     13  C13      122.5940  115.8080   36.5870 C.3   906  AT2906      0.0985
     14  C14      122.6970  114.4120   36.0260 C.3   906  AT2906      0.0433
     15  C15      123.7730  116.4330   38.6590 C.2   906  AT2906      0.4049
     16  O16      124.8420  116.6960   39.2790 O.2   906  AT2906     -0.2262
     17  O17      122.5710  116.4260   39.2050 O.3   906  AT2906     -0.4345
     18  C18      122.4830  116.7360   40.5710 C.3   906  AT2906      0.2102
     19  C19      121.0030  116.6110   40.9160 C.3   906  AT2906      0.0513
@<TRIPOS>BOND
     1     3     4   ar
     2     3     2   ar
     3     4    10   ar
     4     1     2    1
     5     2     6   ar
     6    10     5   ar
     7     6     5   ar
     8     5    11    1
     9    11     7    1
    10     7     8    1
    11     7    14    1
    12     8     9    1
    13    14    13    1
    14     9    12    1
    15    13    12    1
    16    12    15   am
    17    15    17    1
    18    15    16    2
    19    17    18    1
    20    18    19    1
