@<TRIPOS>MOLECULE
3nqs_H4B_A_1.pdb
 17 18 0 0 0
SMALL
GASTEIGER

@<TRIPOS>ATOM
      1  N1       114.0400  112.2230   32.7940 N.2   902  H4B902     -0.2672
      2  C2       115.3310  112.4930   33.0310 C.1   902  H4B902      0.2609
      3  N2       116.1100  112.8980   32.0300 N.pl3 902  H4B902     -0.0220
      4  N3       115.8640  112.3640   34.2560 N.2   902  H4B902     -0.2466
      5  C4       115.1180  111.9560   35.2850 C.1   902  H4B902      0.2569
      6  O4       115.5830  111.8130   36.4250 O.2   902  H4B902     -0.2052
      7  C4A      113.7510  111.6600   35.1000 C.2   902  H4B902      0.2989
      8  C8A      113.2310  111.8130   33.7820 C.1   902  H4B902      0.1401
      9  N5       112.9810  111.2000   36.1110 N.2   902  H4B902     -0.3830
     10  N8       111.9170  111.5730   33.5360 N.2   902  H4B902     -0.1992
     11  C6       111.6640  110.6410   35.7650 C.2   902  H4B902      0.1466
     12  C7       111.0420  111.2290   34.5770 C.3   902  H4B902      0.1940
     13  C9       110.8090  110.2520   36.9890 C.3   902  H4B902      0.2313
     14  O9       110.1800  111.4240   37.4870 O.3   902  H4B902     -0.2130
     15  C10      109.7220  109.2190   36.6150 C.3   902  H4B902      0.1888
     16  C11      108.8730  108.8470   37.8250 C.3   902  H4B902      0.0387
     17  O10      110.3460  108.0370   36.0990 O.3   902  H4B902     -0.2200
@<TRIPOS>BOND
     1     3     2    1
     2     1     2    2
     3     1     8    2
     4     2     4    2
     5    10     8    2
     6    10    12    1
     7     8     7    1
     8     4     5    2
     9    12    11    1
    10     7     5    1
    11     7     9    2
    12     5     6    2
    13    11     9    2
    14    11    13    1
    15    17    15    1
    16    15    13    1
    17    15    16    1
    18    13    14    1
