@<TRIPOS>MOLECULE
3nqt_THP_A_1.pdb
 25 26 0 0 0
SMALL
GASTEIGER

@<TRIPOS>ATOM
      1  P2        17.9230   10.8720    5.0160 P.3   150  THP150      0.5327
      2  O4P       16.6870   11.5490    5.4760 O.3   150  THP150     -0.1145
      3  O5P       17.9180    9.3360    5.2960 O.2   150  THP150     -0.2224
      4  O6P       19.2260   11.5340    5.5990 O.3   150  THP150     -0.1145
      5  P1        21.0560   14.6020    1.0500 P.3   150  THP150      0.5326
      6  O1P       22.0910   15.1210    0.1670 O.2   150  THP150     -0.2224
      7  O2P       20.4410   15.6620    2.0390 O.3   150  THP150     -0.1145
      8  O3P       21.7680   13.4670    1.9640 O.3   150  THP150     -0.1145
      9  O5'       18.0230   10.9660    3.3960 O.3   150  THP150     -0.2675
     10  C5'       17.9780   12.3060    2.8990 C.3   150  THP150      0.1857
     11  C4'       18.8250   12.3060    1.6150 C.3   150  THP150      0.1748
     12  O4'       18.4630   11.1840    0.8080 O.3   150  THP150     -0.3340
     13  C3'       18.7700   13.5700    0.7060 C.3   150  THP150      0.1600
     14  O3'       20.0220   13.8680    0.0450 O.3   150  THP150     -0.2700
     15  C2'       17.8270   13.1270   -0.4400 C.3   150  THP150      0.0847
     16  C1'       18.0640   11.6020   -0.5120 C.3   150  THP150      0.2089
     17  N1        16.7740   10.9920   -0.8890 N.am  150  THP150     -0.1794
     18  C2        16.5110   10.8120   -2.2040 C.1   150  THP150      0.2844
     19  O2        17.3400   11.1580   -3.0380 O.2   150  THP150     -0.1918
     20  N3        15.3280   10.3140   -2.6350 N.2   150  THP150     -0.2455
     21  C4        14.3640   10.0010   -1.7570 C.1   150  THP150      0.2134
     22  O4        13.3280    9.5690   -2.2270 O.2   150  THP150     -0.2088
     23  C5        14.6190   10.1690   -0.3500 C.2   150  THP150      0.0891
     24  C5M       13.6000    9.8150    0.7050 C.3   150  THP150      0.0462
     25  C6        15.8260   10.6640    0.0440 C.2   150  THP150      0.0877
@<TRIPOS>BOND
     1    19    18    2
     2    20    18    2
     3    20    21    2
     4    22    21    2
     5    18    17   am
     6    21    23    1
     7    17    16    1
     8    17    25    1
     9    16    15    1
    10    16    12    1
    11    15    13    1
    12    23    25    2
    13    23    24    1
    14    14    13    1
    15    14     5    1
    16     6     5    2
    17    13    11    1
    18    12    11    1
    19     5     8    1
    20     5     7    1
    21    11    10    1
    22    10     9    1
    23     9     1    1
    24     1     3    2
    25     1     2    1
    26     1     4    1
