@<TRIPOS>MOLECULE
3nr9_NR9_A_1.pdb
 24 27 0 0 0
SMALL
GASTEIGER

@<TRIPOS>ATOM
      1  CAA       76.2870    4.8380   -6.2980 C.ar    1  NR91        0.0016
      2  CAB       77.4940    4.2730   -5.8960 C.ar    1  NR91        0.0013
      3  CAC       77.5010    2.9560   -5.4410 C.ar    1  NR91        0.0015
      4  CAD       75.0980    4.1370   -6.2640 C.ar    1  NR91        0.0191
      5  CAE       75.0990    2.8330   -5.8200 C.ar    1  NR91        0.0813
      6  CAF       76.3050    2.2470   -5.4170 C.ar    1  NR91        0.0177
      7  NAG       73.9310    2.1520   -5.7840 N.ar    1  NR91       -0.2438
      8  CAH       73.9300    0.8880   -5.3700 C.ar    1  NR91        0.0988
      9  CAI       76.2930    0.9330   -4.9740 C.ar    1  NR91        0.0031
     10  CAJ       75.0930    0.2420   -4.9570 C.ar    1  NR91        0.0207
     11  CAK       78.6360    5.0940   -5.9600 C.2     1  NR91        0.0194
     12  CAL       79.9500    4.6600   -6.1420 C.2     1  NR91        0.1276
     13  CAM       81.0190    5.5180   -6.4060 C.1     1  NR91        0.2127
     14  NAN       82.2180    4.9100   -6.5410 N.2     1  NR91       -0.3086
     15  CAO       82.1380    3.5700   -6.4040 C.2     1  NR91        0.2443
     16  SAP       80.5540    3.0510   -6.0900 S.3     1  NR91       -0.0249
     17  OAQ       80.8680    6.7400   -6.5200 O.2     1  NR91       -0.2087
     18  NAR       83.1490    2.7260   -6.5020 N.pl3   1  NR91       -0.1980
     19  CAS       82.8890    1.3860   -6.9600 C.3     1  NR91        0.1481
     20  CAT       83.5340    0.3540   -6.0470 C.ar    1  NR91        0.0290
     21  SAU       82.8570   -0.0590   -4.5460 S.2     1  NR91       -0.0890
     22  CAV       84.0940   -1.2060   -4.2480 C.ar    1  NR91        0.0352
     23  CAW       84.9730   -1.2360   -5.2790 C.ar    1  NR91        0.0072
     24  CAX       84.6570   -0.3830   -6.2620 C.ar    1  NR91        0.0044
@<TRIPOS>BOND
     1    19    18    1
     2    19    20    1
     3    14    13    2
     4    14    15    2
     5    17    13    2
     6    18    15    1
     7    13    12    1
     8    15    16    1
     9     1     4   ar
    10     1     2   ar
    11     4     5   ar
    12    24    20   ar
    13    24    23   ar
    14    12    16    1
    15    12    11    2
    16    20    21   ar
    17    11     2    1
    18     2     3   ar
    19     5     7   ar
    20     5     6   ar
    21     7     8   ar
    22     3     6   ar
    23     6     9   ar
    24     8    10   ar
    25    23    22   ar
    26     9    10   ar
    27    21    22   ar
