@<TRIPOS>MOLECULE
3nrc_TCL_A_1.pdb
 17 18 0 0 0
SMALL
GASTEIGER

@<TRIPOS>ATOM
      1  C1        -5.6670  -27.5390   -8.9930 C.ar  262  TCL262      0.0566
      2  C2        -5.1700  -27.3310   -7.6660 C.ar  262  TCL262      0.0611
      3  C6        -6.3920  -26.4940   -9.6530 C.ar  262  TCL262      0.2307
      4  C5        -6.6130  -25.2670   -9.0010 C.ar  262  TCL262      0.1840
      5  C4        -6.1200  -25.0490   -7.6730 C.ar  262  TCL262      0.0417
      6  C3        -5.4000  -26.0920   -7.0130 C.ar  262  TCL262      0.0147
      7  C11      -11.4830  -23.8000   -9.0980 C.ar  262  TCL262      0.0587
      8  C10      -10.7670  -22.8180   -9.8770 C.ar  262  TCL262      0.0259
      9  C9        -9.3720  -22.9930  -10.0600 C.ar  262  TCL262      0.0929
     10  C8        -8.7030  -24.1350   -9.4700 C.ar  262  TCL262      0.1559
     11  C12      -10.8350  -24.9210   -8.5170 C.ar  262  TCL262      0.0146
     12  C13       -9.4470  -25.0990   -8.6960 C.ar  262  TCL262      0.0392
     13  O7        -7.3270  -24.2630   -9.6770 O.3   262  TCL262     -0.4494
     14 CL14       -4.3160  -28.5470   -6.8730 Cl    262  TCL262     -0.0821
     15 CL15      -13.1370  -23.5930   -8.8790 Cl    262  TCL262     -0.0822
     16 CL16       -8.5120  -21.8300  -10.9840 Cl    262  TCL262     -0.0790
     17  O17       -6.8870  -26.6450  -10.9170 O.3   262  TCL262     -0.2833
@<TRIPOS>BOND
     1    16     9    1
     2    17     3    1
     3     9     8   ar
     4     9    10   ar
     5     8     7   ar
     6    13    10    1
     7    13     4    1
     8     3     4   ar
     9     3     1   ar
    10    10    12   ar
    11     7    15    1
    12     7    11   ar
    13     4     5   ar
    14     1     2   ar
    15    12    11   ar
    16     5     6   ar
    17     2     6   ar
    18     2    14    1
