@<TRIPOS>MOLECULE
3nrc_NAD_A_1.pdb
 44 48 0 0 0
SMALL
GASTEIGER

@<TRIPOS>ATOM
      1  PA        -5.9750  -18.1180   -9.0690 P.3   261  NAD261      0.2189
      2  O1A       -7.2090  -18.1260   -8.2410 O.3   261  NAD261     -0.4371
      3  O2A       -4.9020  -17.1890   -8.7710 O.2   261  NAD261     -0.5170
      4  O5B       -6.3090  -17.8520  -10.6110 O.3   261  NAD261     -0.3112
      5  C5B       -7.5350  -18.4020  -11.1680 C.3   261  NAD261      0.1813
      6  C4B       -7.9330  -17.4040  -12.2560 C.3   261  NAD261      0.1821
      7  O4B       -9.0690  -17.9240  -13.0240 O.3   261  NAD261     -0.3135
      8  C3B       -8.4070  -16.0990  -11.5770 C.3   261  NAD261      0.2184
      9  O3B       -7.5650  -14.9870  -11.8510 O.3   261  NAD261     -0.2174
     10  C2B       -9.8190  -15.8930  -12.1070 C.3   261  NAD261      0.2570
     11  O2B       -9.9650  -14.4780  -12.2890 O.3   261  NAD261     -0.2130
     12  C1B       -9.7940  -16.7560  -13.3590 C.3   261  NAD261      0.3186
     13  N9A      -11.1640  -17.0300  -13.7460 N.pl3 261  NAD261     -0.1439
     14  C8A      -12.1140  -17.7900  -13.1600 C.3   261  NAD261      0.3377
     15  N7A      -13.2510  -17.7430  -13.8710 N.2   261  NAD261     -0.2095
     16  C5A      -12.9480  -16.9200  -14.9040 C.2   261  NAD261      0.2526
     17  C6A      -13.7860  -16.5080  -15.9800 C.2   261  NAD261      0.4393
     18  N6A      -15.0280  -16.9230  -16.0640 N.pl3 261  NAD261      0.2180
     19  N1A      -13.2670  -15.6590  -16.9320 N.2   261  NAD261      0.0021
     20  C2A      -11.9720  -15.2260  -16.8360 C.3   261  NAD261      0.5254
     21  N3A      -11.1600  -15.6100  -15.8190 N.2   261  NAD261     -0.0055
     22  C4A      -11.6460  -16.4640  -14.8390 C.2   261  NAD261      0.3518
     23  O3        -5.4770  -19.6470   -9.0770 O.3   261  NAD261     -0.2703
     24  PN        -4.3550  -20.4580   -9.8520 P.3   261  NAD261      0.2189
     25  O1N       -4.2010  -21.6680   -9.0930 O.3   261  NAD261     -0.4371
     26  O2N       -3.1670  -19.5690  -10.0550 O.2   261  NAD261     -0.5170
     27  O5D       -5.0220  -20.9020  -11.2290 O.3   261  NAD261     -0.3112
     28  C5D       -4.4200  -20.6340  -12.4790 C.3   261  NAD261      0.1813
     29  C4D       -4.6330  -21.8250  -13.3720 C.3   261  NAD261      0.1799
     30  O4D       -3.7110  -22.8640  -13.0190 O.3   261  NAD261     -0.3327
     31  C3D       -5.9590  -22.5840  -13.3650 C.3   261  NAD261      0.2158
     32  O3D       -6.2240  -23.1230  -14.6860 O.3   261  NAD261     -0.2175
     33  C2D       -5.7680  -23.7580  -12.4340 C.3   261  NAD261      0.2309
     34  O2D       -6.7390  -24.8140  -12.6370 O.3   261  NAD261     -0.2158
     35  C1D       -4.4050  -24.1360  -12.7980 C.3   261  NAD261      0.2263
     36  N1N       -3.6830  -24.9650  -11.8200 N.pl3 261  NAD261     -0.2787
     37  C2N       -3.4730  -24.5060  -10.4590 C.3   261  NAD261      0.1244
     38  C3N       -2.7630  -25.3400   -9.5490 C.2   261  NAD261      0.0544
     39  C7N       -2.6470  -24.9530   -8.0600 C.2   261  NAD261      0.2818
     40  O7N       -2.2520  -25.8200   -7.2750 O.2   261  NAD261     -0.2670
     41  N7N       -2.9680  -23.7060   -7.6510 N.am  261  NAD261     -0.0839
     42  C4N       -2.2780  -26.5930  -10.0080 C.2   261  NAD261      0.0033
     43  C5N       -2.4820  -27.0290  -11.3280 C.2   261  NAD261      0.0157
     44  C6N       -3.1720  -26.2290  -12.2280 C.2   261  NAD261      0.0633
@<TRIPOS>BOND
     1    19    20    1
     2    19    17    2
     3    20    21    1
     4    18    17    1
     5    17    16    1
     6    21    22    2
     7    16    22    1
     8    16    15    2
     9    22    13    1
    10    32    31    1
    11    15    14    1
    12    13    12    1
    13    13    14    1
    14    29    31    1
    15    29    30    1
    16    29    28    1
    17    31    33    1
    18    12     7    1
    19    12    10    1
    20     7     6    1
    21    30    35    1
    22    35    33    1
    23    35    36    1
    24    34    33    1
    25    28    27    1
    26    11    10    1
    27     6     8    1
    28     6     5    1
    29    44    36    1
    30    44    43    2
    31    10     8    1
    32     9     8    1
    33    36    37    1
    34    43    42    1
    35    27    24    1
    36     5     4    1
    37     4     1    1
    38    37    38    1
    39    26    24    2
    40    42    38    2
    41    24    25    1
    42    24    23    1
    43    38    39    1
    44    23     1    1
    45     1     3    2
    46     1     2    1
    47    39    41   am
    48    39    40    2
