@<TRIPOS>MOLECULE
3nri_DH7_A_1.pdb
 30 29 0 0 0
SMALL
GASTEIGER

@<TRIPOS>ATOM
      1  C1        -8.6670  -12.3410   -3.3140 C.3   288  DH7288      0.0260
      2  C2       -11.1430  -11.7090   -4.0720 C.3   288  DH7288      0.0260
      3  C3       -24.0910  -20.7610   -7.4880 C.3   288  DH7288      0.0260
      4  C4       -15.1870  -14.4880   -3.7630 C.3   288  DH7288      0.0260
      5  C5       -20.3960  -16.5840   -8.0400 C.3   288  DH7288      0.0047
      6  C6       -15.1790  -14.2530   -0.8880 C.3   288  DH7288      0.0260
      7  C7       -25.1110  -14.0260   -8.0460 C.3   288  DH7288      0.0260
      8  C8       -17.3230  -15.1740   -5.4980 C.3   288  DH7288      0.0510
      9  C9       -18.3610  -15.5890   -6.3260 C.2   288  DH7288     -0.0260
     10  C10      -17.1920  -13.8350   -5.1460 C.2   288  DH7288     -0.0299
     11  C11      -19.2860  -14.6740   -6.8170 C.2   288  DH7288     -0.0307
     12  C12      -10.6520  -13.7710   -2.6900 C.2   288  DH7288     -0.0342
     13  C13      -24.0610  -18.5380   -6.2750 C.2   288  DH7288     -0.0342
     14  C14      -14.3510  -12.2490   -2.2090 C.2   288  DH7288     -0.0342
     15  C15      -23.1120  -15.5550   -8.3070 C.2   288  DH7288     -0.0346
     16  C16      -11.9750  -14.1890   -2.6520 C.3   288  DH7288      0.0297
     17  C17      -23.8420  -17.1780   -6.0630 C.3   288  DH7288      0.0297
     18  C18      -15.6200  -11.7480   -2.4760 C.3   288  DH7288      0.0297
     19  C19      -22.3740  -14.6920   -9.1090 C.3   288  DH7288      0.0257
     20  C20      -15.9960  -11.9570   -3.9430 C.3   288  DH7288      0.0264
     21  C21      -21.2370  -14.0540   -8.3020 C.3   288  DH7288      0.0090
     22  C22      -12.6060  -13.8380   -1.3050 C.3   288  DH7288      0.0263
     23  C23      -24.9300  -16.3240   -6.7280 C.3   288  DH7288      0.0263
     24  C24      -10.1720  -12.6320   -3.3250 C.2   288  DH7288     -0.0478
     25  C25      -23.8380  -19.2560   -7.4500 C.2   288  DH7288     -0.0478
     26  C26      -16.1750  -13.4420   -4.2830 C.2   288  DH7288     -0.0475
     27  C27      -20.2900  -15.0960   -7.6800 C.3   288  DH7288      0.0220
     28  C28      -14.0580  -13.4050   -1.4920 C.2   288  DH7288     -0.0478
     29  C29      -24.3350  -15.2990   -7.7010 C.2   288  DH7288     -0.0478
     30  C30      -23.3330  -18.5610   -8.7160 C.3   288  DH7288      0.0260
@<TRIPOS>BOND
     1    19    15    1
     2    19    21    1
     3    30    25    1
     4    15    29    2
     5    21    27    1
     6     7    29    1
     7     5    27    1
     8    29    23    1
     9    27    11    1
    10     3    25    1
    11    25    13    2
    12    11     9    2
    13    23    17    1
    14     9     8    1
    15    13    17    1
    16     8    10    1
    17    10    26    2
    18    26    20    1
    19    26     4    1
    20     2    24    1
    21    20    18    1
    22    24     1    1
    23    24    12    2
    24    12    16    1
    25    16    22    1
    26    18    14    1
    27    14    28    2
    28    28    22    1
    29    28     6    1
