@<TRIPOS>MOLECULE
3nrm_NRM_A_1.pdb
 21 24 0 0 0
SMALL
GASTEIGER

@<TRIPOS>ATOM
      1  C1         6.4020   29.3950    8.9170 C.2     1  NRM1        0.0425
      2  N1         2.4980   33.5140    6.4530 N.pl3   1  NRM1       -0.1835
      3  S1         2.2010   33.7390    3.6730 S.2     1  NRM1        0.0294
      4  C2         5.3720   30.5230    6.1490 C.ar    1  NRM1        0.1023
      5  N2         3.7520   32.1270    8.8740 N.ar    1  NRM1       -0.2222
      6  C3         4.8580   31.1130    4.9800 C.ar    1  NRM1        0.1195
      7  N3         4.9360   30.9400    7.3780 N.ar    1  NRM1       -0.2852
      8  N4         7.5540   27.7000    9.7990 N.2     1  NRM1       -0.1694
      9  C5         3.4410   32.5050    6.3770 C.ar    1  NRM1        0.1874
     10  N5         8.3230   28.2510    8.8450 N.2     1  NRM1       -0.1510
     11  C6         3.9900   31.8990    7.5240 C.ar    1  NRM1        0.1817
     12  N6         1.3140   34.8800    3.0740 N.ar    1  NRM1       -0.2122
     13  C7         5.3470   30.4430    8.6050 C.ar    1  NRM1        0.0841
     14  N7         3.9160   32.0750    5.1300 N.ar    1  NRM1       -0.2230
     15  C8         7.6390   29.2720    8.2950 C.2     1  NRM1        0.1209
     16  C9         4.5770   31.2260    9.4880 C.ar    1  NRM1        0.1179
     17  C10        6.3780   28.3720    9.8550 C.3     1  NRM1        0.1786
     18  C11        1.9870   34.1420    5.3480 C.ar    1  NRM1        0.1203
     19  C12        1.1470   35.2420    5.3560 C.ar    1  NRM1        0.0400
     20  C13       -0.1190   36.8070    3.7680 C.3     1  NRM1        0.0528
     21  C14        0.7800   35.6500    4.0720 C.ar    1  NRM1        0.0691
@<TRIPOS>BOND
     1    12     3   ar
     2    12    21   ar
     3     3    18   ar
     4    20    21    1
     5    21    19   ar
     6     6    14   ar
     7     6     4   ar
     8    14     9   ar
     9    18    19   ar
    10    18     2    1
    11     4     7   ar
    12     9     2    1
    13     9    11   ar
    14     7    11   ar
    15     7    13   ar
    16    11     5   ar
    17    15    10    1
    18    15     1    2
    19    13     1    1
    20    13    16   ar
    21    10     8    2
    22     5    16   ar
    23     1    17    1
    24     8    17    1
