@<TRIPOS>MOLECULE
3nrn_AMP_A_1.pdb
 23 25 0 0 0
SMALL
GASTEIGER

@<TRIPOS>ATOM
      1  P          7.2830   27.1070   17.2390 P.3   422  AMP422      0.5327
      2  O1P        6.8140   26.8680   15.8180 O.2   422  AMP422     -0.2224
      3  O2P        6.2350   26.5720   18.2120 O.3   422  AMP422     -0.1145
      4  O3P        8.6910   26.7410   17.4920 O.3   422  AMP422     -0.1145
      5  O5'        7.1080   28.6960   17.2880 O.3   422  AMP422     -0.2675
      6  C5'        5.8980   29.2860   16.7990 C.3   422  AMP422      0.1860
      7  C4'        6.1120   30.7680   17.0750 C.3   422  AMP422      0.1823
      8  O4'        4.8820   31.4970   17.0250 O.3   422  AMP422     -0.3135
      9  C3'        6.7380   31.0740   18.4260 C.3   422  AMP422      0.2184
     10  O3'        7.9000   31.8660   18.1050 O.3   422  AMP422     -0.2174
     11  C2'        5.6350   31.8800   19.1440 C.3   422  AMP422      0.2570
     12  O2'        6.0840   32.8930   20.0660 O.3   422  AMP422     -0.2130
     13  C1'        4.9470   32.5270   17.9560 C.3   422  AMP422      0.3186
     14  N9         3.5140   32.8290   18.1440 N.pl3 422  AMP422     -0.1439
     15  C8         2.5780   32.0670   18.7690 C.3   422  AMP422      0.3377
     16  N7         1.3580   32.6540   18.6520 N.2   422  AMP422     -0.2095
     17  C5         1.5080   33.7460   17.8890 C.2   422  AMP422      0.2526
     18  C6         0.6000   34.7960   17.4080 C.2   422  AMP422      0.4393
     19  N6        -0.7170   34.7240   17.7460 N.pl3 422  AMP422      0.2180
     20  N1         1.1480   35.7720   16.6440 N.2   422  AMP422      0.0021
     21  C2         2.4830   35.7680   16.3010 C.3   422  AMP422      0.5254
     22  N3         3.3920   34.8670   16.7540 N.2   422  AMP422     -0.0055
     23  C4         2.9350   33.8640   17.5430 C.2   422  AMP422      0.3518
@<TRIPOS>BOND
     1     2     1    2
     2    21    20    1
     3    21    22    1
     4    20    18    2
     5    22    23    2
     6     6     7    1
     7     6     5    1
     8     8     7    1
     9     8    13    1
    10     7     9    1
    11     1     5    1
    12     1     4    1
    13     1     3    1
    14    18    19    1
    15    18    17    1
    16    23    17    1
    17    23    14    1
    18    17    16    2
    19    13    14    1
    20    13    11    1
    21    10     9    1
    22    14    15    1
    23     9    11    1
    24    16    15    1
    25    11    12    1
