@<TRIPOS>MOLECULE
3nrr_UMP_A_1.pdb
 20 21 0 0 0
SMALL
GASTEIGER

@<TRIPOS>ATOM
      1  N1        36.8840   -7.9930  -21.2800 N.am  525  UMP525     -0.1790
      2  C2        36.1670   -8.6580  -22.2310 C.1   525  UMP525      0.2844
      3  N3        34.8060   -8.8110  -22.0280 N.2   525  UMP525     -0.2452
      4  C4        34.1890   -8.4780  -20.8470 C.1   525  UMP525      0.2182
      5  C5        34.9190   -7.8700  -19.8380 C.2   525  UMP525      0.1242
      6  C6        36.2770   -7.6190  -20.0940 C.2   525  UMP525      0.0928
      7  O2        36.6850   -9.0350  -23.2870 O.2   525  UMP525     -0.1918
      8  O4        32.9930   -8.7270  -20.7320 O.2   525  UMP525     -0.2085
      9  C1'       38.3530   -7.8890  -21.4810 C.3   525  UMP525      0.2090
     10  C2'       39.0020   -6.8660  -22.3910 C.3   525  UMP525      0.0874
     11  C3'       40.3430   -6.6680  -21.7110 C.3   525  UMP525      0.1857
     12  C4'       39.9830   -6.8090  -20.2310 C.3   525  UMP525      0.1774
     13  O3'       41.2390   -7.6580  -22.1600 O.3   525  UMP525     -0.2203
     14  O4'       38.8960   -7.7520  -20.1750 O.3   525  UMP525     -0.3339
     15  C5'       39.6080   -5.4800  -19.6020 C.3   525  UMP525      0.1858
     16  O5'       40.7630   -4.6710  -19.5050 O.3   525  UMP525     -0.2675
     17  P         40.7860   -3.0820  -19.8270 P.3   525  UMP525      0.5327
     18  OP1       40.5080   -2.9090  -21.2810 O.2   525  UMP525     -0.2224
     19  OP2       42.2270   -2.6810  -19.5940 O.3   525  UMP525     -0.1145
     20  OP3       39.7840   -2.3700  -19.0220 O.3   525  UMP525     -0.1145
@<TRIPOS>BOND
     1     7     2    2
     2    10    11    1
     3    10     9    1
     4     2     3    2
     5     2     1   am
     6    13    11    1
     7     3     4    2
     8    11    12    1
     9     9     1    1
    10     9    14    1
    11    18    17    2
    12     1     6    1
    13     4     8    2
    14     4     5    1
    15    12    14    1
    16    12    15    1
    17     6     5    2
    18    17    19    1
    19    17    16    1
    20    17    20    1
    21    15    16    1
