@<TRIPOS>MOLECULE
3nrr_NAP_A_1.pdb
 48 52 0 0 0
SMALL
GASTEIGER

@<TRIPOS>ATOM
      1  PA        19.7020  -49.7860  -49.5390 P.3   515  NAP515      0.2189
      2  O1A       21.1910  -49.8110  -49.7120 O.3   515  NAP515     -0.4371
      3  O2A       18.8560  -48.6360  -50.0430 O.2   515  NAP515     -0.5170
      4  O5B       19.0350  -51.0900  -50.2230 O.3   515  NAP515     -0.3112
      5  C5B       19.7080  -52.3400  -50.0890 C.3   515  NAP515      0.1813
      6  C4B       19.2640  -53.2170  -51.2390 C.3   515  NAP515      0.1820
      7  O4B       19.7980  -52.7350  -52.4820 O.3   515  NAP515     -0.3136
      8  C3B       19.7450  -54.6460  -51.0690 C.3   515  NAP515      0.2157
      9  O3B       18.8160  -55.4200  -50.3070 O.3   515  NAP515     -0.2175
     10  C2B       19.8460  -55.0680  -52.5070 C.3   515  NAP515      0.2314
     11  O2B       18.5250  -55.3200  -52.9490 O.3   515  NAP515     -0.2630
     12  C1B       20.3650  -53.8280  -53.2120 C.3   515  NAP515      0.3158
     13  N9A       21.8370  -53.6850  -53.1560 N.pl3 515  NAP515     -0.1439
     14  C8A       22.5050  -52.6940  -53.7610 C.3   515  NAP515      0.3377
     15  N7A       23.8210  -52.8210  -53.5120 N.2   515  NAP515     -0.2095
     16  C5A       23.9770  -53.9020  -52.7370 C.2   515  NAP515      0.2526
     17  C6A       25.0950  -54.4980  -52.1870 C.2   515  NAP515      0.4393
     18  N6A       26.3280  -53.9810  -52.4040 N.pl3 515  NAP515      0.2180
     19  N1A       24.9380  -55.5930  -51.4320 N.2   515  NAP515      0.0021
     20  C2A       23.7220  -56.1090  -51.2230 C.3   515  NAP515      0.5254
     21  N3A       22.6250  -55.5460  -51.7430 N.2   515  NAP515     -0.0055
     22  C4A       22.7250  -54.4440  -52.5060 C.2   515  NAP515      0.3518
     23  O3        19.2570  -50.1130  -48.0260 O.3   515  NAP515     -0.2703
     24  PN        19.6370  -49.4610  -46.5920 P.3   515  NAP515      0.2189
     25  O1N       18.7880  -50.1530  -45.5560 O.3   515  NAP515     -0.4371
     26  O2N       21.1390  -49.4080  -46.4600 O.2   515  NAP515     -0.5170
     27  O5D       19.1170  -47.9350  -46.7720 O.3   515  NAP515     -0.3112
     28  C5D       17.7320  -47.6090  -46.5990 C.3   515  NAP515      0.1813
     29  C4D       17.5390  -46.7840  -45.3320 C.3   515  NAP515      0.1799
     30  O4D       18.4170  -45.6440  -45.3690 O.3   515  NAP515     -0.3327
     31  C3D       16.1380  -46.2190  -45.2110 C.3   515  NAP515      0.2158
     32  O3D       15.7610  -46.1880  -43.8270 O.3   515  NAP515     -0.2175
     33  C2D       16.2700  -44.8140  -45.7730 C.3   515  NAP515      0.2309
     34  O2D       15.2670  -43.9490  -45.2430 O.3   515  NAP515     -0.2158
     35  C1D       17.6560  -44.4390  -45.3010 C.3   515  NAP515      0.2263
     36  N1N       18.3850  -43.4710  -46.0980 N.pl3 515  NAP515     -0.2787
     37  C2N       18.7330  -42.2900  -45.5600 C.3   515  NAP515      0.1244
     38  C3N       19.4540  -41.3700  -46.2900 C.2   515  NAP515      0.0544
     39  C7N       19.8500  -40.0450  -45.6950 C.2   515  NAP515      0.2818
     40  O7N       20.5480  -39.3360  -46.3820 O.2   515  NAP515     -0.2670
     41  N7N       19.5260  -39.7490  -44.5080 N.am  515  NAP515     -0.0839
     42  C4N       19.8540  -41.6860  -47.5710 C.2   515  NAP515      0.0033
     43  C5N       19.4870  -42.9210  -48.0970 C.2   515  NAP515      0.0157
     44  C6N       18.7570  -43.8030  -47.3280 C.2   515  NAP515      0.0633
     45  P2B       18.1080  -56.8300  -53.3060 P.3   515  NAP515      0.5328
     46  O1X       17.8560  -57.3560  -51.9240 O.3   515  NAP515     -0.1145
     47  O2X       16.9040  -56.5740  -54.1740 O.2   515  NAP515     -0.2224
     48  O3X       19.3440  -57.3420  -54.0120 O.3   515  NAP515     -0.1145
@<TRIPOS>BOND
     1    47    45    2
     2    48    45    1
     3    14    15    1
     4    14    13    1
     5    15    16    2
     6    45    11    1
     7    45    46    1
     8    12    13    1
     9    12    10    1
    10    12     7    1
    11    13    22    1
    12    11    10    1
    13    16    22    1
    14    16    17    1
    15    10     8    1
    16    22    21    2
    17     7     6    1
    18    18    17    1
    19    17    19    2
    20    21    20    1
    21    19    20    1
    22     6     8    1
    23     6     5    1
    24     8     9    1
    25     4     5    1
    26     4     1    1
    27     3     1    2
    28     2     1    1
    29     1    23    1
    30    43    42    1
    31    43    44    2
    32    23    24    1
    33    42    38    2
    34    44    36    1
    35    27    28    1
    36    27    24    1
    37    28    29    1
    38    24    26    2
    39    24    25    1
    40    40    39    2
    41    38    39    1
    42    38    37    1
    43    36    37    1
    44    36    35    1
    45    33    35    1
    46    33    34    1
    47    33    31    1
    48    39    41   am
    49    30    29    1
    50    30    35    1
    51    29    31    1
    52    31    32    1
