@<TRIPOS>MOLECULE
3nrr_D16_A_1.pdb
 32 34 0 0 0
SMALL
GASTEIGER

@<TRIPOS>ATOM
      1  N1        20.4540  -36.4260  -49.0490 N.2   520  D16520     -0.3420
      2  C2        20.1440  -35.4610  -48.1470 C.1   520  D16520      0.1269
      3  CM2       21.0490  -34.2640  -48.0580 C.3   520  D16520      0.1438
      4  N3        19.0590  -35.5010  -47.3430 N.2   520  D16520     -0.2706
      5  C4        18.1920  -36.4930  -47.3720 C.1   520  D16520      0.2162
      6  O4        17.1220  -36.5510  -46.5750 O.2   520  D16520     -0.2085
      7  C4A       18.4480  -37.6040  -48.3090 C.2   520  D16520      0.1219
      8  C5        17.5810  -38.6680  -48.4020 C.2   520  D16520     -0.0051
      9  C6        17.9170  -39.6460  -49.3120 C.3   520  D16520      0.0646
     10  C7        19.0660  -39.5940  -50.1040 C.2   520  D16520     -0.0177
     11  C8        19.9410  -38.5340  -50.0570 C.2   520  D16520      0.0296
     12  C8A       19.6420  -37.4970  -49.1740 C.2   520  D16520      0.1548
     13  C9        17.0070  -40.8130  -49.4370 C.3   520  D16520      0.1000
     14  N10       16.2810  -40.7530  -50.7240 N.pl3 520  D16520     -0.3002
     15  C11       13.1240  -38.5610  -50.3960 C.ar  520  D16520      0.0856
     16  S13       14.0550  -39.7390  -49.5270 S.2   520  D16520     -0.0677
     17  C14       15.1920  -39.7810  -50.7960 C.ar  520  D16520      0.0785
     18  C15       14.8970  -38.9380  -51.8820 C.ar  520  D16520      0.0219
     19  C16       13.7210  -38.2520  -51.6300 C.ar  520  D16520      0.0129
     20  C         11.8590  -38.0510  -49.7820 C.2   520  D16520      0.2713
     21  O         11.3450  -38.6750  -48.8490 O.2   520  D16520     -0.2678
     22  N         11.3600  -36.9570  -50.4200 N.am  520  D16520     -0.1914
     23  CA        10.1620  -36.1510  -50.1760 C.3   520  D16520      0.1986
     24  CB        10.3950  -34.7440  -50.7680 C.3   520  D16520      0.0451
     25  CG        10.7040  -34.6940  -52.2860 C.3   520  D16520      0.1164
     26  CD        11.9110  -33.8290  -52.6610 C.2   520  D16520      0.3649
     27  OE1       13.0130  -34.3860  -52.9170 O.co2 520  D16520     -0.2457
     28  OE2       11.7520  -32.5740  -52.7320 O.co2 520  D16520     -0.2457
     29  CT         8.8870  -36.6770  -50.8050 C.2   520  D16520      0.3842
     30  O1         8.9460  -37.2390  -51.9250 O.co2 520  D16520     -0.2437
     31  O2         7.7990  -36.5050  -50.2050 O.co2 520  D16520     -0.2437
     32  CP1       17.1450  -40.7880  -51.9230 C.3   520  D16520      0.1126
@<TRIPOS>BOND
     1    27    26   ar
     2    28    26   ar
     3    26    25    1
     4    25    24    1
     5    30    29   ar
     6    32    14    1
     7    18    19   ar
     8    18    17   ar
     9    19    15   ar
    10    29    31   ar
    11    29    23    1
    12    17    14    1
    13    17    16   ar
    14    24    23    1
    15    14    13    1
    16    22    23    1
    17    22    20   am
    18    15    20    1
    19    15    16   ar
    20    10    11    2
    21    10     9    1
    22    11    12    1
    23    20    21    2
    24    13     9    1
    25     9     8    1
    26    12     1    2
    27    12     7    1
    28     1     2    2
    29     8     7    2
    30     7     5    1
    31     2     3    1
    32     2     4    2
    33     5     4    2
    34     5     6    2
