@<TRIPOS>MOLECULE
3nrz_HPA_C_1.pdb
 10 11 0 0 0
SMALL
GASTEIGER

@<TRIPOS>ATOM
      1  N1        37.7640   22.0610   17.9170 N.2     1  HPA1       -0.1726
      2  C2        38.4060   21.5760   19.0290 C.3     1  HPA1        0.2725
      3  N3        38.5010   20.2340   19.3120 N.2     1  HPA1       -0.1902
      4  C4        37.9070   19.4080   18.3990 C.1     1  HPA1        0.0598
      5  C5        37.2590   19.8730   17.3010 C.2     1  HPA1        0.2226
      6  C6        37.1690   21.1970   17.0300 C.1     1  HPA1        0.1796
      7  O6        36.5510   21.4920   15.9730 O.2     1  HPA1       -0.2200
      8  N7        36.7580   18.8330   16.5990 N.2     1  HPA1       -0.2230
      9  C8        37.0490   17.7980   17.2900 C.3     1  HPA1        0.2622
     10  N9        37.7560   18.0660   18.3320 N.2     1  HPA1       -0.1910
@<TRIPOS>BOND
     1     7     6    2
     2     8     9    1
     3     8     5    2
     4     6     5    1
     5     6     1    2
     6     9    10    1
     7     5     4    1
     8     1     2    1
     9    10     4    2
    10     4     3    2
    11     2     3    1
