@<TRIPOS>MOLECULE
3ns0_RET_A_1.pdb
 20 20 0 0 0
SMALL
GASTEIGER

@<TRIPOS>ATOM
      1  C1        -1.3990   17.0720   60.4400 C.3   300  RET300      0.0183
      2  C2        -2.3520   16.7500   61.6010 C.3   300  RET300      0.0044
      3  C3        -3.7890   16.6130   61.2590 C.3   300  RET300      0.0047
      4  C4        -4.0530   15.6900   60.0830 C.3   300  RET300      0.0217
      5  C5        -3.1300   15.9160   58.8770 C.2   300  RET300     -0.0479
      6  C6        -1.8920   16.5130   59.0440 C.2   300  RET300     -0.0307
      7  C7        -1.1150   16.6300   57.7930 C.2   300  RET300     -0.0052
      8  C8         0.1580   17.0640   57.5730 C.2   300  RET300     -0.0049
      9  C9         0.9420   16.9080   56.3600 C.2   300  RET300     -0.0261
     10  C10        2.1490   17.5500   56.4260 C.2   300  RET300     -0.0300
     11  C11        3.1790   17.3770   55.3740 C.3   300  RET300      0.0300
     12  C12        4.3970   17.9460   55.6990 C.3   300  RET300      0.0264
     13  C13        5.4780   18.0340   54.7140 C.2   300  RET300     -0.0478
     14  C14        6.5340   18.6910   55.2810 C.2   300  RET300     -0.0342
     15  C15        7.7660   19.2300   54.7210 C.3   300  RET300      0.0300
     16  C16       -1.2520   18.6420   60.3580 C.3   300  RET300      0.0043
     17  C17       -0.0350   16.4410   60.9760 C.3   300  RET300      0.0043
     18  C18       -3.7920   15.3750   57.6470 C.3   300  RET300      0.0260
     19  C19        0.4020   16.2050   55.1470 C.3   300  RET300      0.0307
     20  C20        5.5020   17.5530   53.3030 C.3   300  RET300      0.0260
@<TRIPOS>BOND
     1    20    13    1
     2    13    14    2
     3    13    12    1
     4    15    14    1
     5    19     9    1
     6    11    12    1
     7    11    10    1
     8     9    10    2
     9     9     8    1
    10     8     7    2
    11    18     5    1
    12     7     6    1
    13     5     6    2
    14     5     4    1
    15     6     1    1
    16     4     3    1
    17    16     1    1
    18     1    17    1
    19     1     2    1
    20     3     2    1
