@<TRIPOS>MOLECULE
3ns1_PM6_C_1.pdb
 10 11 0 0 0
SMALL
GASTEIGER

@<TRIPOS>ATOM
      1  N9        38.5790   18.5750   19.4860 N.2     1  PM61       -0.1911
      2  C4        38.5290   19.8920   19.2150 C.1     1  PM61        0.0571
      3  N3        39.0380   20.9380   19.8950 N.2     1  PM61       -0.1903
      4  C2        38.8540   22.2080   19.4120 C.3     1  PM61        0.2699
      5  N1        38.1740   22.5010   18.2650 N.2     1  PM61       -0.2002
      6  C6        37.6170   21.4920   17.5210 C.1     1  PM61        0.0136
      7  C5        37.7740   20.0830   17.9670 C.2     1  PM61        0.1908
      8  N7        37.3900   18.8570   17.5440 N.2     1  PM61       -0.2251
      9  C8        37.8730   17.9550   18.4680 C.3     1  PM61        0.2622
     10  S6        36.8000   21.7570   16.1720 S.2     1  PM61        0.0131
@<TRIPOS>BOND
     1    10     6    2
     2     6     7    1
     3     6     5    2
     4     8     7    2
     5     8     9    1
     6     7     2    1
     7     5     4    1
     8     9     1    1
     9     2     1    2
    10     2     3    2
    11     4     3    1
