@<TRIPOS>MOLECULE
3ns7_3NS_B_1.pdb
 30 31 0 0 0
SMALL
GASTEIGER

@<TRIPOS>ATOM
      1  C1        28.3110    1.1930   51.0270 C.3     1  3NS1        0.1210
      2  C2        28.7020    1.4260   49.5640 C.3     1  3NS1        0.1369
      3  N1        29.9980    0.8300   49.3020 N.am    1  3NS1       -0.2036
      4  C14       25.3980    3.3750   51.6540 C.2     1  3NS1        0.1456
      5  C15       24.8560    4.6290   51.6040 C.2     1  3NS1        0.0291
      6  C16       25.6280    5.7130   51.1940 C.2     1  3NS1       -0.0187
      7  C17       26.9520    5.5180   50.8100 C.3     1  3NS1        0.0535
      8  C18       27.5020    4.2410   50.8620 C.2     1  3NS1       -0.0040
      9  C19       26.7450    3.1670   51.2490 C.2     1  3NS1        0.0792
     10  N3        24.8760    2.1380   51.9730 N.2     1  3NS1       -0.3899
     11  N4        27.0100    1.8080   51.3680 N.pl3   1  3NS1       -0.2624
     12  C20       25.8600    1.2470   51.7830 C.2     1  3NS1        0.1643
     13  C21       25.6490   -0.2460   51.9470 C.3     1  3NS1        0.0840
     14  C3        30.8870    1.4240   48.4880 C.2     1  3NS1        0.2419
     15  O1        30.7870    2.5610   48.0430 O.2     1  3NS1       -0.2733
     16  C4        32.1220    0.5570   48.2580 C.3     1  3NS1        0.0959
     17  C5        33.3070    1.4370   47.8180 C.3     1  3NS1        0.0873
     18  C6        34.6320    1.0330   48.5110 C.3     1  3NS1        0.0091
     19  C7        33.3760    1.5010   46.2820 C.2     1  3NS1        0.2414
     20  O2        32.7010    0.7600   45.5640 O.2     1  3NS1       -0.2733
     21  C8        34.8940   -0.4860   48.5620 C.3     1  3NS1        0.0005
     22  C9        34.7060    1.6600   49.9170 C.3     1  3NS1        0.0005
     23  C13       35.8640    3.1580   44.1870 C.3     1  3NS1        0.2041
     24  N2        34.2060    2.4550   45.8270 N.am    1  3NS1       -0.2039
     25  O5        36.7280    2.0330   44.1730 O.3     1  3NS1       -0.2185
     26  C10       34.4050    2.7480   44.4090 C.3     1  3NS1        0.1394
     27  C11       33.4520    3.8880   44.0140 C.3     1  3NS1        0.1383
     28  C12       33.1470    3.9080   42.5160 C.2     1  3NS1        0.3667
     29  O3        32.3670    3.1220   42.0390 O.co2   1  3NS1       -0.2456
     30  O4        33.5860    4.8570   41.8760 O.co2   1  3NS1       -0.2456
@<TRIPOS>BOND
     1    30    28   ar
     2    29    28   ar
     3    28    27    1
     4    27    26    1
     5    25    23    1
     6    23    26    1
     7    26    24    1
     8    20    19    2
     9    24    19   am
    10    19    17    1
    11    17    16    1
    12    17    18    1
    13    15    14    2
    14    16    14    1
    15    14     3   am
    16    18    21    1
    17    18    22    1
    18     3     2    1
    19     2     1    1
    20     7     8    1
    21     7     6    1
    22     8     9    2
    23     1    11    1
    24     6     5    2
    25     9    11    1
    26     9     4    1
    27    11    12    1
    28     5     4    1
    29     4    10    2
    30    12    13    1
    31    12    10    2
