@<TRIPOS>MOLECULE
3ns9_NS9_A_1.pdb
 28 30 0 0 0
SMALL
GASTEIGER

@<TRIPOS>ATOM
      1  N1         1.6430   -4.8010  -29.2550 N.2     0  NS90       -0.0839
      2  N2         1.5250   -5.9400  -28.7130 N.pl3   0  NS90       -0.0342
      3  C3         2.4420   -6.9660  -28.5960 C.2     0  NS90        0.3334
      4  C4         2.0800   -8.0990  -27.8330 C.3     0  NS90        0.1955
      5  C5         0.7660   -8.2020  -27.2370 C.2     0  NS90        0.1919
      6  N6        -0.1350   -7.1610  -27.3200 N.2     0  NS90       -0.3542
      7  C7         0.2530   -6.0650  -28.0560 C.2     0  NS90        0.2816
      8  C8        -0.3640   -4.8510  -28.3800 C.3     0  NS90        0.1393
      9  C9         0.5030   -4.1160  -29.1010 C.2     0  NS90        0.1272
     10  N10        3.6520   -6.8040  -29.1880 N.2     0  NS90       -0.0615
     11  C11        4.7830   -7.7640  -28.9660 C.3     0  NS90        0.2895
     12  C12        4.7230   -8.8550  -30.0140 C.ar    0  NS90        0.0308
     13  C13        4.7350   -8.4860  -31.3650 C.ar    0  NS90        0.0000
     14  C14        4.6810   -9.4500  -32.3650 C.ar    0  NS90       -0.0002
     15  C15        4.6150  -10.8130  -32.0080 C.ar    0  NS90       -0.0000
     16  C16        4.6220  -11.1410  -30.6740 C.ar    0  NS90       -0.0002
     17  C17        4.6650  -10.1900  -29.6460 C.ar    0  NS90        0.0000
     18  N18        0.4920   -9.3120  -26.5190 N.pl3   0  NS90       -0.2092
     19  C19       -0.9020   -9.5720  -26.0100 C.3     0  NS90        0.1604
     20  C20       -1.0830   -9.2120  -24.5500 C.3     0  NS90        0.2071
     21  C21       -0.7310   -7.7240  -24.1800 C.3     0  NS90        0.2166
     22  O22       -1.5920   -6.9460  -24.9620 O.3     0  NS90       -0.2175
     23  C23       -1.1950  -11.0980  -26.1930 C.3     0  NS90        0.2062
     24  O24       -0.0090  -11.8870  -25.9210 O.3     0  NS90       -0.2184
     25  O25       -2.4850   -9.5190  -24.2100 O.3     0  NS90       -0.2184
     26  C26       -1.7460   -4.4110  -27.9630 C.3     0  NS90        0.0162
     27  C27       -1.7530   -4.0710  -26.4490 C.3     0  NS90        0.0009
     28  C28       -2.8670   -5.4870  -28.1990 C.3     0  NS90        0.0009
@<TRIPOS>BOND
     1    14    15   ar
     2    14    13   ar
     3    15    16   ar
     4    13    12   ar
     5    16    17   ar
     6    12    17   ar
     7    12    11    1
     8     1     9    2
     9     1     2    1
    10    10    11    1
    11    10     3    2
    12     9     8    1
    13     2     3    1
    14     2     7    1
    15     3     4    1
    16     8     7    1
    17     8    26    1
    18    28    26    1
    19     7     6    2
    20    26    27    1
    21     4     5    1
    22     6     5    2
    23     5    18    1
    24    18    19    1
    25    23    19    1
    26    23    24    1
    27    19    20    1
    28    22    21    1
    29    20    25    1
    30    20    21    1
