@<TRIPOS>MOLECULE
3nsb_RET_A_1.pdb
 20 20 0 0 0
SMALL
GASTEIGER

@<TRIPOS>ATOM
      1  C1        -1.3900   17.0780   60.4320 C.3   300  RET300      0.0183
      2  C2        -2.3430   16.7550   61.5920 C.3   300  RET300      0.0044
      3  C3        -3.7800   16.6160   61.2490 C.3   300  RET300      0.0047
      4  C4        -4.0420   15.6930   60.0730 C.3   300  RET300      0.0217
      5  C5        -3.1180   15.9200   58.8680 C.2   300  RET300     -0.0479
      6  C6        -1.8810   16.5190   59.0360 C.2   300  RET300     -0.0307
      7  C7        -1.1030   16.6370   57.7850 C.2   300  RET300     -0.0052
      8  C8         0.1690   17.0730   57.5670 C.2   300  RET300     -0.0049
      9  C9         0.9550   16.9180   56.3540 C.2   300  RET300     -0.0261
     10  C10        2.1610   17.5620   56.4210 C.2   300  RET300     -0.0300
     11  C11        3.1920   17.3910   55.3700 C.3   300  RET300      0.0300
     12  C12        4.4090   17.9610   55.6960 C.3   300  RET300      0.0264
     13  C13        5.4900   18.0510   54.7120 C.2   300  RET300     -0.0478
     14  C14        6.5450   18.7090   55.2800 C.2   300  RET300     -0.0342
     15  C15        7.7770   19.2500   54.7210 C.3   300  RET300      0.0300
     16  C16       -1.2450   18.6490   60.3510 C.3   300  RET300      0.0043
     17  C17       -0.0260   16.4490   60.9690 C.3   300  RET300      0.0043
     18  C18       -3.7780   15.3790   57.6370 C.3   300  RET300      0.0260
     19  C19        0.4170   16.2150   55.1410 C.3   300  RET300      0.0307
     20  C20        5.5160   17.5700   53.3010 C.3   300  RET300      0.0260
@<TRIPOS>BOND
     1    20    13    1
     2    13    14    2
     3    13    12    1
     4    15    14    1
     5    19     9    1
     6    11    12    1
     7    11    10    1
     8     9    10    2
     9     9     8    1
    10     8     7    2
    11    18     5    1
    12     7     6    1
    13     5     6    2
    14     5     4    1
    15     6     1    1
    16     4     3    1
    17    16     1    1
    18     1    17    1
    19     1     2    1
    20     3     2    1
