@<TRIPOS>MOLECULE
3nse_HEM_A_1.pdb
 43 50 0 0 0
SMALL
GASTEIGER

@<TRIPOS>ATOM
      1  CHA        9.2150    9.1240   35.0480 C.2   500  HEM500      0.0000
      2  CHB        4.6550    9.1480   33.6030 C.2   500  HEM500      0.0000
      3  CHC        6.0820    7.4220   29.3660 C.2   500  HEM500      0.0000
      4  CHD       10.4700    6.5640   31.0840 C.2   500  HEM500      0.0000
      5  C1A        7.8700    9.3940   34.9710 C.2   500  HEM500      0.0000
      6  C2A        7.1140   10.2370   35.8940 C.2   500  HEM500      0.0000
      7  C3A        5.8160   10.1950   35.5250 C.2   500  HEM500      0.0000
      8  C4A        5.7770    9.3860   34.3200 C.2   500  HEM500      0.0000
      9  CMA        4.6490   10.8490   36.2590 C.3   500  HEM500      0.0000
     10  CAA        7.6550   11.1090   37.0290 C.3   500  HEM500      0.0000
     11  CBA        8.3290   12.3730   36.5190 C.3   500  HEM500      0.0000
     12  CGA        8.8410   13.2600   37.6370 C.2   500  HEM500      0.0000
     13  O1A        8.2990   13.1690   38.7640 O.co2 500  HEM500      0.0000
     14  O2A        9.7850   14.0450   37.3830 O.co2 500  HEM500      0.0000
     15  C1B        4.6420    8.4790   32.3910 C.ar  500  HEM500      0.0000
     16  C2B        3.4630    8.4820   31.5550 C.ar  500  HEM500      0.0000
     17  C3B        3.8290    7.9910   30.3160 C.ar  500  HEM500      0.0000
     18  C4B        5.2690    7.7240   30.4310 C.ar  500  HEM500      0.0000
     19  CMB        2.1200    9.0250   32.0350 C.3   500  HEM500      0.0000
     20  CAB        2.9640    7.9080   29.2060 C.2   500  HEM500      0.0000
     21  CBB        3.0630    7.0950   28.1200 C.2   500  HEM500      0.0000
     22  C1C        7.4290    7.1470   29.4250 C.2   500  HEM500      0.0000
     23  C2C        8.2210    6.7560   28.2690 C.2   500  HEM500      0.0000
     24  C3C        9.4590    6.3940   28.7530 C.2   500  HEM500      0.0000
     25  C4C        9.3940    6.6370   30.2030 C.2   500  HEM500      0.0000
     26  CMC        7.7230    6.7250   26.8250 C.3   500  HEM500      0.0000
     27  CAC       10.5690    5.8710   28.0400 C.2   500  HEM500      0.0000
     28  CBC       10.6290    5.1160   26.9060 C.2   500  HEM500      0.0000
     29  C1D       10.4620    7.1180   32.3730 C.ar  500  HEM500      0.0000
     30  C2D       11.6560    7.3010   33.1760 C.ar  500  HEM500      0.0000
     31  C3D       11.3150    8.0640   34.2200 C.ar  500  HEM500      0.0000
     32  C4D        9.9110    8.3710   34.0990 C.ar  500  HEM500      0.0000
     33  CMD       13.0380    6.6920   32.9890 C.3   500  HEM500      0.0000
     34  CAD       12.2340    8.4310   35.3850 C.3   500  HEM500      0.0000
     35  CBD       12.9270    9.7680   35.1440 C.3   500  HEM500      0.0000
     36  CGD       13.7940   10.2150   36.3110 C.2   500  HEM500      0.0000
     37  O1D       14.3060    9.3510   37.0660 O.co2 500  HEM500      0.0000
     38  O2D       13.9650   11.4460   36.4650 O.co2 500  HEM500      0.0000
     39  NA         7.0280    8.8770   33.9650 N.2   500  HEM500      0.0000
     40  NB         5.7460    7.9570   31.7240 N.ar  500  HEM500      0.0000
     41  NC         8.1370    7.1060   30.6060 N.2   500  HEM500      0.0000
     42  ND         9.3630    7.7500   32.9730 N.ar  500  HEM500      0.0000
     43 FE          7.4930    7.6270   32.4680 Fe    500  HEM500      0.0000
@<TRIPOS>BOND
     1    26    23    1
     2    28    27    2
     3    27    24    1
     4    21    20    2
     5    23    24    2
     6    23    22    1
     7    24    25    1
     8    20    17    1
     9     3    22    2
    10     3    18    1
    11    22    41    1
    12    25    41    2
    13    25     4    1
    14    17    18   ar
    15    17    16   ar
    16    18    40   ar
    17    41    43    1
    18     4    29    2
    19    16    19    1
    20    16    15   ar
    21    40    15   ar
    22    40    43    1
    23    29    42   ar
    24    29    30   ar
    25    15     2    1
    26    43    42    1
    27    43    39    1
    28    42    32   ar
    29    33    30    1
    30    30    31   ar
    31     2     8    2
    32    39     8    1
    33    39     5    2
    34    32    31   ar
    35    32     1    2
    36    31    34    1
    37     8     7    1
    38     5     1    1
    39     5     6    1
    40    35    34    1
    41    35    36    1
    42     7     6    2
    43     7     9    1
    44     6    10    1
    45    36    38   ar
    46    36    37   ar
    47    11    10    1
    48    11    12    1
    49    14    12   ar
    50    12    13   ar
