@<TRIPOS>MOLECULE
3nse_ARG_A_1.pdb
 12 11 0 0 0
SMALL
GASTEIGER

@<TRIPOS>ATOM
      1  N          4.2760    1.5990   51.7550 N.3   700  ARG700     -0.1208
      2  CA         3.4070    1.6570   52.9720 C.3   700  ARG700      0.1944
      3  C          1.9120    1.5410   52.6490 C.2   700  ARG700      0.3819
      4  O          1.0980    2.3730   53.0920 O.co2 700  ARG700     -0.2441
      5  CB         3.7080    2.8980   53.8400 C.3   700  ARG700      0.0343
      6  CG         3.2490    4.2530   53.3050 C.3   700  ARG700      0.0490
      7  CD         3.0840    5.2870   54.4230 C.3   700  ARG700      0.2205
      8  NE         2.2160    4.8380   55.5200 N.pl3 700  ARG700     -0.0865
      9  CZ         1.7600    5.6340   56.4860 C.cat 700  ARG700      0.5346
     10  NH1        2.0920    6.9190   56.4980 N.pl3 700  ARG700      0.1354
     11  NH2        0.9510    5.1620   57.4310 N.pl3 700  ARG700      0.1354
     12  OXT        1.5520    0.5840   51.9460 O.co2 700  ARG700     -0.2441
@<TRIPOS>BOND
     1     1     2    1
     2    12     3   ar
     3     3     2    1
     4     3     4   ar
     5     2     5    1
     6     6     5    1
     7     6     7    1
     8     7     8    1
     9     8     9    2
    10     9    10    1
    11     9    11    1
