@<TRIPOS>MOLECULE
3nsh_957_A_1.pdb
 31 33 0 0 0
SMALL
GASTEIGER

@<TRIPOS>ATOM
      1  C1         0.3830   33.6660   32.5710 C.3   407  957407      0.0964
      2  C2        -0.7050   33.6730   33.6010 C.2   407  957407      0.2419
      3  N3        -1.9480   33.5270   33.1460 N.am  407  957407     -0.2042
      4  C4        -3.1010   33.6380   34.0050 C.3   407  957407      0.1313
      5  C5        -3.6050   32.2450   34.2490 C.3   407  957407      0.1894
      6  C6        -2.5650   31.2950   34.8130 C.3   407  957407      0.1235
      7  N7        -3.2580   30.1540   35.3910 N.3   407  957407     -0.2135
      8  C8        -2.5150   29.4740   36.4780 C.3   407  957407      0.0837
      9  C9        -2.4600   30.2150   37.7800 C.ar  407  957407      0.0211
     10  C10       -3.5500   30.8160   38.3510 C.ar  407  957407     -0.0003
     11  C11       -3.2090   31.4760   39.5480 C.ar  407  957407     -0.0155
     12  C12       -1.8550   31.4210   39.8520 C.ar  407  957407      0.0309
     13  S13       -1.0070   30.5300   38.6330 S.2   407  957407     -0.0898
     14  C14       -4.2190   32.2090   40.3830 C.3   407  957407      0.0269
     15  C15       -4.9860   31.3940   41.3920 C.3   407  957407      0.0041
     16  C16       -4.0310   30.8410   42.4380 C.3   407  957407      0.0003
     17  C17       -5.7900   30.3280   40.6490 C.3   407  957407      0.0003
     18  C18       -5.9290   32.2990   42.1920 C.3   407  957407      0.0003
     19  O19       -0.4630   33.7920   34.8000 O.2   407  957407     -0.2733
     20  C20       -4.1240   34.4870   33.2960 C.3   407  957407      0.0508
     21  C21       -3.4270   35.8270   33.0100 C.ar  407  957407     -0.0159
     22  C22       -3.3210   36.2840   31.6910 C.ar  407  957407      0.0256
     23  C23       -2.6700   37.4900   31.4380 C.ar  407  957407      0.1421
     24  C24       -2.1040   38.2270   32.4760 C.ar  407  957407      0.0592
     25  C25       -2.2010   37.7700   33.7900 C.ar  407  957407      0.1421
     26  C26       -2.8760   36.5650   34.0570 C.ar  407  957407      0.0256
     27  F27       -2.5440   38.0560   30.1100 F     407  957407     -0.2041
     28  F28       -1.5710   38.6430   34.8310 F     407  957407     -0.2041
     29  O29       -4.6770   32.3020   35.1800 O.3   407  957407     -0.2197
     30  C30       -1.2310   28.7090   36.1210 C.3   407  957407      0.0224
     31  C31       -2.4770   27.9450   36.5960 C.3   407  957407      0.0224
@<TRIPOS>BOND
     1    27    23    1
     2    23    22   ar
     3    23    24   ar
     4    22    21   ar
     5    24    25   ar
     6     1     2    1
     7    21    20    1
     8    21    26   ar
     9     3     2   am
    10     3     4    1
    11    20     4    1
    12     2    19    2
    13    25    26   ar
    14    25    28    1
    15     4     5    1
    16     5     6    1
    17     5    29    1
    18     6     7    1
    19     7     8    1
    20    30     8    1
    21    30    31    1
    22     8    31    1
    23     8     9    1
    24     9    10   ar
    25     9    13   ar
    26    10    11   ar
    27    13    12   ar
    28    11    12   ar
    29    11    14    1
    30    14    15    1
    31    17    15    1
    32    15    18    1
    33    15    16    1
