@<TRIPOS>MOLECULE
3nsn_TMX_A_1.pdb
 14 14 0 0 0
SMALL
GASTEIGER

@<TRIPOS>ATOM
      1  C1        39.2880   -1.3360   11.9010 C.3     2  TMX2        0.1247
      2  C2        40.2860   -1.6910   10.7400 C.3     2  TMX2        0.0093
      3  N2        40.2100   -3.1160   10.2670 N.4     2  TMX2        0.3904
      4  C3        41.7390   -1.1950   11.0580 C.3     2  TMX2        0.1690
      5  O3        42.2240   -0.3680    9.9830 O.3     2  TMX2       -0.2224
      6  C4        41.8210   -0.4130   12.3710 C.3     2  TMX2        0.2096
      7  O4        43.1980   -0.1200   12.6430 O.3     2  TMX2       -0.2178
      8  C5        41.2170   -1.2510   13.5070 C.3     2  TMX2        0.1806
      9  O5        39.8250   -1.6150   13.2390 O.3     2  TMX2       -0.3529
     10  C6        41.2770   -0.5020   14.8350 C.3     2  TMX2        0.2141
     11  O6        40.8730   -1.3900   15.8850 O.3     2  TMX2       -0.2176
     12  C7        38.9190   -3.3920    9.6250 C.3     2  TMX2       -0.0956
     13  C8        40.3760   -4.1200   11.3310 C.3     2  TMX2       -0.0956
     14  C9        41.2380   -3.3960    9.2470 C.3     2  TMX2       -0.0956
@<TRIPOS>BOND
     1    14     3    1
     2    12     3    1
     3     5     4    1
     4     3     2    1
     5     3    13    1
     6     2     4    1
     7     2     1    1
     8     4     6    1
     9     1     9    1
    10     6     7    1
    11     6     8    1
    12     9     8    1
    13     8    10    1
    14    10    11    1
