@<TRIPOS>MOLECULE
3nsn_CTO_A_1.pdb
 43 45 0 0 0
SMALL
GASTEIGER

@<TRIPOS>ATOM
      1  C11       35.9850    2.6440   13.2710 C.3     1  CTO1        0.2586
      2  C21       37.4400    2.9630   13.6510 C.3     1  CTO1        0.1842
      3  N21       37.6890    4.3940   13.4050 N.am    1  CTO1       -0.1992
      4  C71       37.7810    5.3260   14.3750 C.2     1  CTO1        0.2420
      5  O71       37.9820    6.5250   14.1590 O.2     1  CTO1       -0.2733
      6  C81       37.6120    4.8310   15.8020 C.3     1  CTO1        0.0964
      7  C31       38.4290    2.1210   12.8210 C.3     1  CTO1        0.2094
      8  O31       39.7680    2.2530   13.3470 O.3     1  CTO1       -0.2183
      9  C41       38.0470    0.6260   12.7630 C.3     1  CTO1        0.2136
     10  O41       38.8480    0.0420   11.7290 O.3     1  CTO1       -0.2176
     11  C51       36.5520    0.4830   12.4340 C.3     1  CTO1        0.1834
     12  O51       35.7590    1.2360   13.3660 O.3     1  CTO1       -0.3262
     13  C61       36.0990   -0.9650   12.5820 C.3     1  CTO1        0.2142
     14  O61       34.8110   -1.1020   12.0000 O.3     1  CTO1       -0.2176
     15  C12       31.0540    4.1730   14.6930 C.3     1  CTO1        0.2586
     16  C22       31.3750    2.7020   14.5150 C.3     1  CTO1        0.1841
     17  N22       30.6630    1.9200   15.5410 N.am    1  CTO1       -0.1992
     18  C72       29.5660    1.1990   15.2590 C.2     1  CTO1        0.2420
     19  O72       29.0610    1.1150   14.1390 O.2     1  CTO1       -0.2733
     20  C82       28.9570    0.4550   16.4560 C.3     1  CTO1        0.0964
     21  C32       32.8820    2.4440   14.6310 C.3     1  CTO1        0.2062
     22  O32       33.1420    1.0820   14.2590 O.3     1  CTO1       -0.2184
     23  C42       33.7160    3.3750   13.7290 C.3     1  CTO1        0.1795
     24  O42       35.0900    3.3380   14.1740 O.3     1  CTO1       -0.3264
     25  C52       33.2120    4.8270   13.7830 C.3     1  CTO1        0.1803
     26  O52       31.7650    4.9190   13.6970 O.3     1  CTO1       -0.3263
     27  C62       33.7690    5.5840   12.5810 C.3     1  CTO1        0.2141
     28  O62       34.1450    6.8880   13.0020 O.3     1  CTO1       -0.2176
     29  C13       27.9930    8.0450   16.0110 C.3     1  CTO1        0.2917
     30  O13       26.9210    8.5050   16.8530 O.3     1  CTO1       -0.1879
     31  C23       29.0920    7.3370   16.8850 C.3     1  CTO1        0.1870
     32  N23       30.2920    8.2070   16.8850 N.am    1  CTO1       -0.1991
     33  C73       31.2640    8.1770   17.8210 C.2     1  CTO1        0.2420
     34  O73       31.2920    7.4130   18.7870 O.2     1  CTO1       -0.2733
     35  C83       32.3900    9.1880   17.5990 C.3     1  CTO1        0.0964
     36  C33       29.4840    5.8560   16.4890 C.3     1  CTO1        0.2063
     37  O33       29.1590    4.9680   17.5770 O.3     1  CTO1       -0.2184
     38  C43       28.8330    5.3350   15.1820 C.3     1  CTO1        0.1795
     39  O43       29.6420    4.3370   14.4500 O.3     1  CTO1       -0.3264
     40  C53       28.4830    6.5180   14.2880 C.3     1  CTO1        0.1803
     41  O53       27.4360    7.2330   14.9430 O.3     1  CTO1       -0.3243
     42  C63       28.0510    6.0500   12.9000 C.3     1  CTO1        0.2141
     43  O63       29.1920    6.1280   12.0460 O.3     1  CTO1       -0.2176
@<TRIPOS>BOND
     1    10     9    1
     2    14    13    1
     3    43    42    1
     4    11    13    1
     5    11     9    1
     6    11    12    1
     7    27    28    1
     8    27    25    1
     9     9     7    1
    10     7     8    1
    11     7     2    1
    12    42    40    1
    13     1    12    1
    14     1     2    1
    15     1    24    1
    16     3     2    1
    17     3     4   am
    18    26    25    1
    19    26    15    1
    20    23    25    1
    21    23    24    1
    22    23    21    1
    23    19    18    2
    24     5     4    2
    25    22    21    1
    26    40    41    1
    27    40    38    1
    28     4     6    1
    29    39    15    1
    30    39    38    1
    31    16    21    1
    32    16    15    1
    33    16    17    1
    34    41    29    1
    35    38    36    1
    36    18    17   am
    37    18    20    1
    38    29    30    1
    39    29    31    1
    40    36    31    1
    41    36    37    1
    42    32    31    1
    43    32    33   am
    44    35    33    1
    45    33    34    2
