@<TRIPOS>MOLECULE
3nsq_CHZ_B_1.pdb
 18 20 0 0 0
SMALL
GASTEIGER

@<TRIPOS>ATOM
      1  OAA       52.7090  -16.0920    6.9920 O.2     1  CHZ1       -0.2866
      2  CAM       53.5360  -16.4780    7.8160 C.2     1  CHZ1        0.1959
      3  CAO       54.4960  -17.4180    7.4590 C.ar    1  CHZ1        0.0451
      4  CAI       54.5290  -17.9290    6.1670 C.ar    1  CHZ1        0.0035
      5  CAE       55.4900  -18.8710    5.8160 C.ar    1  CHZ1        0.0034
      6  CAG       56.4200  -19.3000    6.7550 C.ar    1  CHZ1        0.0421
      7  CAK       56.3840  -18.7840    8.0450 C.ar    1  CHZ1        0.1988
      8  OAC       57.2860  -19.1940    8.9700 O.3     1  CHZ1       -0.2865
      9  CAQ       55.4260  -17.8460    8.3970 C.ar    1  CHZ1        0.0810
     10  CAN       55.4010  -17.3390    9.6910 C.2     1  CHZ1        0.2019
     11  OAB       56.2260  -17.7200   10.5220 O.2     1  CHZ1       -0.2864
     12  CAR       54.4400  -16.3990   10.0450 C.ar    1  CHZ1        0.0810
     13  CAP       53.5100  -15.9690    9.1070 C.ar    1  CHZ1        0.0451
     14  CAJ       52.5480  -15.0310    9.4560 C.ar    1  CHZ1        0.0035
     15  CAF       52.5200  -14.5230   10.7460 C.ar    1  CHZ1        0.0034
     16  CAH       53.4500  -14.9500   11.6860 C.ar    1  CHZ1        0.0421
     17  CAL       54.4120  -15.8890   11.3360 C.ar    1  CHZ1        0.1988
     18  OAD       55.3250  -16.3080   12.2540 O.3     1  CHZ1       -0.2865
@<TRIPOS>BOND
     1     5     4   ar
     2     5     6   ar
     3     4     3   ar
     4     6     7   ar
     5     1     2    2
     6     3     2    1
     7     3     9   ar
     8     2    13    1
     9     7     9   ar
    10     7     8    1
    11     9    10    1
    12    13    14   ar
    13    13    12   ar
    14    14    15   ar
    15    10    12    1
    16    10    11    2
    17    12    17   ar
    18    15    16   ar
    19    17    16   ar
    20    17    18    1
