@<TRIPOS>MOLECULE
3nsz_ANP_A_1.pdb
 27 29 0 0 0
SMALL
GASTEIGER

@<TRIPOS>ATOM
      1  PB        -2.6460   -4.4440  -12.9670 P.3   1000  ANP1000     0.4738
      2  O1B       -2.0790   -5.9120  -12.9250 O.2   1000  ANP1000    -0.2343
      3  O2B       -4.1410   -4.2960  -12.5230 O.3   1000  ANP1000    -0.1247
      4  N3B       -2.3240   -3.9350  -14.4490 N.3   1000  ANP1000    -0.0178
      5  PA        -0.2350   -3.6530  -11.5410 P.3   1000  ANP1000     0.2220
      6  O1A        0.5770   -3.7110  -12.8040 O.2   1000  ANP1000    -0.5170
      7  O2A       -0.0400   -4.7540  -10.4970 O.3   1000  ANP1000    -0.4370
      8  O3A       -1.8010   -3.5760  -11.9240 O.3   1000  ANP1000    -0.2354
      9  O5'       -0.0200   -2.2550  -10.7810 O.3   1000  ANP1000    -0.3111
     10  C5'       -0.4400   -1.0760  -11.5190 C.3   1000  ANP1000     0.1813
     11  C4'        0.5110    0.0670  -11.1480 C.3   1000  ANP1000     0.1821
     12  O4'        0.6220    0.2940   -9.7310 O.3   1000  ANP1000    -0.3135
     13  C3'        1.9760   -0.2080  -11.5200 C.3   1000  ANP1000     0.2184
     14  O3'        2.2230    0.0800  -12.9440 O.3   1000  ANP1000    -0.2174
     15  C2'        2.7950    0.7480  -10.6380 C.3   1000  ANP1000     0.2570
     16  O2'        2.6230    2.1340  -11.0960 O.3   1000  ANP1000    -0.2130
     17  C1'        1.9830    0.6070   -9.3540 C.3   1000  ANP1000     0.3186
     18  N9         2.5390   -0.4370   -8.4830 N.pl3 1000  ANP1000    -0.1439
     19  C8         2.1210   -1.7460   -8.4820 C.3   1000  ANP1000     0.3377
     20  N7         2.8060   -2.4180   -7.6040 N.2   1000  ANP1000    -0.2095
     21  C5         3.6990   -1.5550   -6.9930 C.2   1000  ANP1000     0.2526
     22  C6         4.6280   -1.6680   -5.9600 C.2   1000  ANP1000     0.4393
     23  N6         4.8820   -2.8740   -5.3830 N.pl3 1000  ANP1000     0.2180
     24  N1         5.3540   -0.6000   -5.5640 N.2   1000  ANP1000     0.0021
     25  C2         5.1310    0.6270   -6.1430 C.3   1000  ANP1000     0.5254
     26  N3         4.2350    0.7720   -7.1320 N.2   1000  ANP1000    -0.0055
     27  C4         3.5000   -0.2930   -7.5810 C.2   1000  ANP1000     0.3518
@<TRIPOS>BOND
     1     4     1    1
     2     1     2    2
     3     1     3    1
     4     1     8    1
     5    14    13    1
     6     6     5    2
     7     8     5    1
     8     5     9    1
     9     5     7    1
    10    13    11    1
    11    13    15    1
    12    10    11    1
    13    10     9    1
    14    11    12    1
    15    16    15    1
    16    15    17    1
    17    12    17    1
    18    17    18    1
    19    18    19    1
    20    18    27    1
    21    19    20    1
    22    20    21    2
    23    27    26    2
    24    27    21    1
    25    26    25    1
    26    21    22    1
    27    25    24    1
    28    22    24    2
    29    22    23    1
