@<TRIPOS>MOLECULE
3nt1_NPS_A_1.pdb
 17 18 0 0 0
SMALL
GASTEIGER

@<TRIPOS>ATOM
      1  C1       -38.8240  -48.9260  -21.2490 C.ar    5  NPS5        0.1387
      2  O2       -38.0730  -47.7930  -21.0330 O.3     5  NPS5       -0.4714
      3  C2       -39.5610  -49.4030  -20.1670 C.ar    5  NPS5        0.0369
      4  C14      -42.2120  -54.2760  -22.9090 C.3     5  NPS5        0.1256
      5  C3       -40.3440  -50.5430  -20.3040 C.ar    5  NPS5        0.0031
      6  C4       -40.4100  -51.2140  -21.5140 C.ar    5  NPS5       -0.0001
      7  C5       -39.6820  -50.7510  -22.6110 C.ar    5  NPS5        0.0030
      8  C6       -38.8820  -49.6040  -22.4740 C.ar    5  NPS5        0.0369
      9  C7       -41.2090  -52.3520  -21.6270 C.ar    5  NPS5       -0.0037
     10  C8       -41.2990  -53.0430  -22.8280 C.ar    5  NPS5       -0.0118
     11  C10      -41.7120  -55.2940  -23.9400 C.3     5  NPS5        0.0166
     12  C13      -39.7700  -51.4500  -23.8150 C.ar    5  NPS5       -0.0002
     13  C11      -40.5800  -52.5850  -23.9360 C.ar    5  NPS5       -0.0037
     14  C12      -37.3820  -47.2910  -22.1960 C.3     5  NPS5        0.2525
     15  O        -43.7780  -53.3860  -24.4690 O.co2   5  NPS5       -0.2453
     16  OXT      -44.5310  -53.8010  -22.4220 O.co2   5  NPS5       -0.2453
     17  C15      -43.6290  -53.7950  -23.3010 C.2     5  NPS5        0.3683
@<TRIPOS>BOND
     1    15    17   ar
     2    11     4    1
     3    13    12   ar
     4    13    10   ar
     5    12     7   ar
     6    17     4    1
     7    17    16   ar
     8     4    10    1
     9    10     9   ar
    10     7     8   ar
    11     7     6   ar
    12     8     1   ar
    13    14     2    1
    14     9     6   ar
    15     6     5   ar
    16     1     2    1
    17     1     3   ar
    18     5     3   ar
