@<TRIPOS>MOLECULE
3nt1_HEM_A_1.pdb
 43 50 0 0 0
SMALL
GASTEIGER

@<TRIPOS>ATOM
      1  CHA      -27.1000  -36.6340  -19.7080 C.2   619  HEM619      0.0000
      2  CHB      -23.8680  -37.3860  -16.1960 C.2   619  HEM619      0.0000
      3  CHC      -25.1800  -42.0560  -16.0410 C.2   619  HEM619      0.0000
      4  CHD      -28.9460  -41.1190  -18.9970 C.2   619  HEM619      0.0000
      5  C1A      -26.0870  -36.4460  -18.8010 C.2   619  HEM619      0.0000
      6  C2A      -25.3150  -35.2300  -18.6360 C.2   619  HEM619      0.0000
      7  C3A      -24.4200  -35.4320  -17.6700 C.2   619  HEM619      0.0000
      8  C4A      -24.5940  -36.7850  -17.1910 C.2   619  HEM619      0.0000
      9  CMA      -23.3790  -34.4090  -17.1590 C.3   619  HEM619      0.0000
     10  CAA      -25.4950  -33.9350  -19.4510 C.3   619  HEM619      0.0000
     11  CBA      -26.5870  -33.0810  -18.8200 C.3   619  HEM619      0.0000
     12  CGA      -26.7510  -31.7880  -19.5840 C.2   619  HEM619      0.0000
     13  O1A      -25.7530  -31.2860  -20.1750 O.co2 619  HEM619      0.0000
     14  O2A      -27.8920  -31.2530  -19.5950 O.co2 619  HEM619      0.0000
     15  C1B      -23.8820  -38.7340  -15.9170 C.ar  619  HEM619      0.0000
     16  C2B      -22.8960  -39.4330  -15.1290 C.ar  619  HEM619      0.0000
     17  C3B      -23.2350  -40.7170  -15.0820 C.ar  619  HEM619      0.0000
     18  C4B      -24.4690  -40.8900  -15.8410 C.ar  619  HEM619      0.0000
     19  CMB      -21.6590  -38.7950  -14.4590 C.3   619  HEM619      0.0000
     20  CAB      -22.4270  -41.7840  -14.3210 C.2   619  HEM619      0.0000
     21  CBB      -22.3890  -43.0450  -14.7430 C.2   619  HEM619      0.0000
     22  C1C      -26.3370  -42.1930  -16.7920 C.2   619  HEM619      0.0000
     23  C2C      -27.1210  -43.4000  -16.9070 C.2   619  HEM619      0.0000
     24  C3C      -28.1550  -43.1650  -17.7200 C.2   619  HEM619      0.0000
     25  C4C      -28.0740  -41.7800  -18.1580 C.2   619  HEM619      0.0000
     26  CMC      -26.8110  -44.7390  -16.2050 C.3   619  HEM619      0.0000
     27  CAC      -29.2300  -44.2170  -18.0790 C.2   619  HEM619      0.0000
     28  CBC      -29.8240  -44.2270  -19.2700 C.2   619  HEM619      0.0000
     29  C1D      -28.7440  -39.8710  -19.5450 C.ar  619  HEM619      0.0000
     30  C2D      -29.4550  -39.3250  -20.6860 C.ar  619  HEM619      0.0000
     31  C3D      -28.8650  -37.9320  -20.8900 C.ar  619  HEM619      0.0000
     32  C4D      -27.8590  -37.7720  -19.8680 C.ar  619  HEM619      0.0000
     33  CMD      -30.5660  -39.9840  -21.5340 C.3   619  HEM619      0.0000
     34  CAD      -29.2410  -36.9170  -21.9820 C.3   619  HEM619      0.0000
     35  CBD      -28.2250  -37.0830  -23.1020 C.3   619  HEM619      0.0000
     36  CGD      -28.3790  -35.9910  -24.1280 C.2   619  HEM619      0.0000
     37  O1D      -29.5270  -35.5420  -24.3740 O.co2 619  HEM619      0.0000
     38  O2D      -27.3430  -35.5680  -24.6960 O.co2 619  HEM619      0.0000
     39  NA       -25.6270  -37.3790  -17.8970 N.2   619  HEM619      0.0000
     40  NB       -24.8250  -39.6520  -16.3340 N.ar  619  HEM619      0.0000
     41  NC       -26.9600  -41.2210  -17.5620 N.2   619  HEM619      0.0000
     42  ND       -27.8190  -38.9310  -19.1000 N.ar  619  HEM619      0.0000
     43 FE        -26.3350  -39.3140  -17.7040 Fe    619  HEM619      0.0000
@<TRIPOS>BOND
     1    38    36   ar
     2    37    36   ar
     3    36    35    1
     4    35    34    1
     5    34    31    1
     6    33    30    1
     7    31    30   ar
     8    31    32   ar
     9    30    29   ar
    10    13    12   ar
    11    32     1    2
    12    32    42   ar
    13     1     5    1
    14    14    12   ar
    15    12    11    1
    16    29    42   ar
    17    29     4    2
    18    10    11    1
    19    10     6    1
    20    28    27    2
    21    42    43    1
    22     4    25    1
    23     5     6    1
    24     5    39    2
    25     6     7    2
    26    25    24    1
    27    25    41    2
    28    27    24    1
    29    39    43    1
    30    39     8    1
    31    24    23    2
    32    43    41    1
    33    43    40    1
    34     7     8    1
    35     7     9    1
    36    41    22    1
    37     8     2    2
    38    23    22    1
    39    23    26    1
    40    22     3    2
    41    40    15   ar
    42    40    18   ar
    43     2    15    1
    44     3    18    1
    45    15    16   ar
    46    18    17   ar
    47    16    17   ar
    48    16    19    1
    49    17    20    1
    50    21    20    2
