@<TRIPOS>MOLECULE
3nt2_NAI_B_1.pdb
 44 48 0 0 0
SMALL
GASTEIGER

@<TRIPOS>ATOM
      1  PA         1.2180   14.9990   26.6750 P.3   400  NAI400      0.2189
      2  O1A        1.0760   15.8420   25.4330 O.2   400  NAI400     -0.5170
      3  O2A        1.2820   15.8830   27.9030 O.3   400  NAI400     -0.4371
      4  O5B        2.5110   14.2470   26.5160 O.3   400  NAI400     -0.3112
      5  C5B        3.3520   14.5510   25.4130 C.3   400  NAI400      0.1813
      6  C4B        4.7000   14.9880   25.9670 C.3   400  NAI400      0.1821
      7  O4B        5.7590   14.2000   25.4520 O.3   400  NAI400     -0.3135
      8  C3B        5.0410   16.4160   25.5800 C.3   400  NAI400      0.2184
      9  O3B        5.5870   17.1170   26.6880 O.3   400  NAI400     -0.2174
     10  C2B        6.0690   16.2950   24.4770 C.3   400  NAI400      0.2570
     11  O2B        7.0260   17.3250   24.6400 O.3   400  NAI400     -0.2130
     12  C1B        6.6820   14.9120   24.6440 C.3   400  NAI400      0.3186
     13  N9A        6.9050   14.2170   23.3530 N.pl3 400  NAI400     -0.1439
     14  C8A        6.0400   14.1290   22.3190 C.3   400  NAI400      0.3377
     15  N7A        6.5740   13.3810   21.3210 N.2   400  NAI400     -0.2095
     16  C5A        7.7840   12.9790   21.7160 C.2   400  NAI400      0.2526
     17  C6A        8.8760   12.1650   21.1500 C.2   400  NAI400      0.4393
     18  N6A        8.7230   11.6220   19.8810 N.pl3 400  NAI400      0.2180
     19  N1A        9.9860   11.9730   21.8790 N.2   400  NAI400      0.0021
     20  C2A       10.1250   12.5060   23.1100 C.3   400  NAI400      0.5254
     21  N3A        9.1660   13.2610   23.6860 N.2   400  NAI400     -0.0055
     22  C4A        8.0090   13.5270   23.0580 C.2   400  NAI400      0.3518
     23  O3         0.0520   14.0240   26.6680 O.3   400  NAI400     -0.2703
     24  PN        -0.3510   13.0380   27.7420 P.3   400  NAI400      0.2189
     25  O1N       -1.7740   13.2850   28.1430 O.2   400  NAI400     -0.5170
     26  O2N        0.6010   13.2040   28.9090 O.3   400  NAI400     -0.4371
     27  O5D       -0.2670   11.6240   27.2000 O.3   400  NAI400     -0.3112
     28  C5D        0.2350   11.3090   25.9050 C.3   400  NAI400      0.1813
     29  C4D       -0.0160    9.8510   25.5360 C.3   400  NAI400      0.1799
     30  O4D       -0.5470    9.1180   26.6340 O.3   400  NAI400     -0.3327
     31  C3D       -1.0500    9.6710   24.4350 C.3   400  NAI400      0.2158
     32  O3D       -0.6830    8.5760   23.5980 O.3   400  NAI400     -0.2175
     33  C2D       -2.3470    9.3820   25.1700 C.3   400  NAI400      0.2309
     34  O2D       -3.2090    8.6220   24.3310 O.3   400  NAI400     -0.2158
     35  C1D       -1.8730    8.6420   26.4230 C.3   400  NAI400      0.2263
     36  N1N       -2.7110    8.8100   27.6250 N.pl3 400  NAI400     -0.2787
     37  C2N       -3.1180    7.7480   28.3490 C.3   400  NAI400      0.1244
     38  C3N       -4.1530    7.8950   29.2850 C.2   400  NAI400      0.0544
     39  C7N       -4.9850    6.7370   29.7950 C.2   400  NAI400      0.2818
     40  O7N       -5.9920    6.9930   30.4450 O.2   400  NAI400     -0.2670
     41  N7N       -4.6700    5.4600   29.5520 N.am  400  NAI400     -0.0839
     42  C4N       -4.4900    9.1870   29.6960 C.2   400  NAI400      0.0033
     43  C5N       -3.9000   10.2760   29.0730 C.2   400  NAI400      0.0157
     44  C6N       -3.1220   10.0550   27.9410 C.2   400  NAI400      0.0633
@<TRIPOS>BOND
     1    18    17    1
     2    17    16    1
     3    17    19    2
     4    15    16    2
     5    15    14    1
     6    16    22    1
     7    19    20    1
     8    14    13    1
     9    22    13    1
    10    22    21    2
    11    20    21    1
    12    13    12    1
    13    32    31    1
    14    34    33    1
    15    31    33    1
    16    31    29    1
    17    10    11    1
    18    10    12    1
    19    10     8    1
    20    12     7    1
    21    33    35    1
    22     5     6    1
    23     5     4    1
    24     2     1    2
    25     7     6    1
    26    29    28    1
    27    29    30    1
    28     8     6    1
    29     8     9    1
    30    28    27    1
    31    35    30    1
    32    35    36    1
    33     4     1    1
    34    23     1    1
    35    23    24    1
    36     1     3    1
    37    27    24    1
    38    36    44    1
    39    36    37    1
    40    24    25    2
    41    24    26    1
    42    44    43    2
    43    37    38    1
    44    43    42    1
    45    38    42    2
    46    38    39    1
    47    41    39   am
    48    39    40    2
