@<TRIPOS>MOLECULE
3nt2_NAD_A_1.pdb
 44 48 0 0 0
SMALL
GASTEIGER

@<TRIPOS>ATOM
      1  PA       -58.0140  -15.4670   27.1380 P.3   400  NAD400      0.2189
      2  O1A      -57.5570  -15.9590   28.4620 O.3   400  NAD400     -0.4371
      3  O2A      -57.7310  -16.4420   26.0620 O.2   400  NAD400     -0.5170
      4  O5B      -59.5880  -15.1690   27.2280 O.3   400  NAD400     -0.3112
      5  C5B      -60.2810  -14.5600   26.1620 C.3   400  NAD400      0.1813
      6  C4B      -61.7760  -14.7790   26.3750 C.3   400  NAD400      0.1821
      7  O4B      -62.5300  -14.0300   25.4350 O.3   400  NAD400     -0.3135
      8  C3B      -62.1580  -16.2440   26.1950 C.3   400  NAD400      0.2184
      9  O3B      -63.0040  -16.6320   27.2530 O.3   400  NAD400     -0.2174
     10  C2B      -62.8910  -16.2840   24.8680 C.3   400  NAD400      0.2570
     11  O2B      -63.9100  -17.2570   24.8730 O.3   400  NAD400     -0.2130
     12  C1B      -63.4520  -14.8720   24.7600 C.3   400  NAD400      0.3186
     13  N9A      -63.6490  -14.4070   23.3730 N.pl3 400  NAD400     -0.1439
     14  C8A      -62.8720  -14.7000   22.2780 C.3   400  NAD400      0.3377
     15  N7A      -63.3840  -14.0530   21.2010 N.2   400  NAD400     -0.2095
     16  C5A      -64.4740  -13.3480   21.5930 C.2   400  NAD400      0.2526
     17  C6A      -65.3640  -12.5200   20.9050 C.2   400  NAD400      0.4393
     18  N6A      -65.2150  -12.3110   19.5960 N.pl3 400  NAD400      0.2180
     19  N1A      -66.4090  -11.9190   21.5900 N.2   400  NAD400      0.0021
     20  C2A      -66.5720  -12.1410   22.9500 C.3   400  NAD400      0.5254
     21  N3A      -65.6870  -12.9660   23.6230 N.2   400  NAD400     -0.0055
     22  C4A      -64.6550  -13.5620   22.9610 C.2   400  NAD400      0.3518
     23  O3       -57.3490  -14.0320   26.7840 O.3   400  NAD400     -0.2703
     24  PN       -56.7630  -13.0410   27.9210 P.3   400  NAD400      0.2189
     25  O1N      -57.8100  -12.8410   28.9500 O.3   400  NAD400     -0.4371
     26  O2N      -55.4440  -13.5530   28.3450 O.2   400  NAD400     -0.5170
     27  O5D      -56.4880  -11.6640   27.1200 O.3   400  NAD400     -0.3112
     28  C5D      -57.5090  -10.8490   26.5800 C.3   400  NAD400      0.1813
     29  C4D      -56.9040   -9.6510   25.8400 C.3   400  NAD400      0.1799
     30  O4D      -56.2250   -8.7910   26.7400 O.3   400  NAD400     -0.3327
     31  C3D      -55.8970  -10.0660   24.7740 C.3   400  NAD400      0.2158
     32  O3D      -56.1130   -9.2940   23.6150 O.3   400  NAD400     -0.2175
     33  C2D      -54.5440   -9.7430   25.3780 C.3   400  NAD400      0.2309
     34  O2D      -53.5980   -9.3220   24.4240 O.3   400  NAD400     -0.2158
     35  C1D      -54.8600   -8.6380   26.3750 C.3   400  NAD400      0.2263
     36  N1N      -53.9870   -8.7170   27.5600 N.pl3 400  NAD400     -0.2787
     37  C2N      -53.3930   -7.5690   28.0090 C.3   400  NAD400      0.1244
     38  C3N      -52.5580   -7.6080   29.1270 C.2   400  NAD400      0.0544
     39  C7N      -51.8920   -6.3600   29.6320 C.2   400  NAD400      0.2818
     40  O7N      -50.5620   -6.4490   30.0870 O.2   400  NAD400     -0.2670
     41  N7N      -52.5530   -5.2010   29.6140 N.am  400  NAD400     -0.0839
     42  C4N      -52.3310   -8.8200   29.7800 C.2   400  NAD400      0.0033
     43  C5N      -52.9400   -9.9860   29.3140 C.2   400  NAD400      0.0157
     44  C6N      -53.7690   -9.9170   28.1980 C.2   400  NAD400      0.0633
@<TRIPOS>BOND
     1    18    17    1
     2    17    19    2
     3    17    16    1
     4    15    16    2
     5    15    14    1
     6    19    20    1
     7    16    22    1
     8    14    13    1
     9    20    21    1
    10    22    13    1
    11    22    21    2
    12    13    12    1
    13    32    31    1
    14    34    33    1
    15    12    10    1
    16    12     7    1
    17    31    33    1
    18    31    29    1
    19    10    11    1
    20    10     8    1
    21    33    35    1
    22     7     6    1
    23    29    28    1
    24    29    30    1
    25     3     1    2
    26     5     6    1
    27     5     4    1
    28     8     6    1
    29     8     9    1
    30    35    30    1
    31    35    36    1
    32    28    27    1
    33    23     1    1
    34    23    24    1
    35    27    24    1
    36     1     4    1
    37     1     2    1
    38    36    37    1
    39    36    44    1
    40    24    26    2
    41    24    25    1
    42    37    38    1
    43    44    43    2
    44    38    39    1
    45    38    42    2
    46    43    42    1
    47    41    39   am
    48    39    40    2
