@<TRIPOS>MOLECULE
3nt4_NAI_A_1.pdb
 44 48 0 0 0
SMALL
GASTEIGER

@<TRIPOS>ATOM
      1  PA       -61.8050  -11.8420   18.7550 P.3   400  NAI400      0.2189
      2  O1A      -62.6080  -11.2200   19.8670 O.3   400  NAI400     -0.4371
      3  O2A      -62.3710  -11.4520   17.4070 O.2   400  NAI400     -0.5170
      4  O5B      -61.8680  -13.3330   18.9360 O.3   400  NAI400     -0.3112
      5  C5B      -60.8800  -13.9700   19.7370 C.3   400  NAI400      0.1813
      6  C4B      -61.1840  -15.4600   19.7070 C.3   400  NAI400      0.1821
      7  O4B      -60.3710  -16.2170   20.5900 O.3   400  NAI400     -0.3135
      8  C3B      -62.6160  -15.7350   20.1320 C.3   400  NAI400      0.2184
      9  O3B      -63.3090  -16.4340   19.1110 O.3   400  NAI400     -0.2174
     10  C2B      -62.5200  -16.5900   21.3760 C.3   400  NAI400      0.2570
     11  O2B      -63.5320  -17.5790   21.3130 O.3   400  NAI400     -0.2130
     12  C1B      -61.1190  -17.1830   21.3120 C.3   400  NAI400      0.3186
     13  N9A      -60.5450  -17.4650   22.6460 N.pl3 400  NAI400     -0.1439
     14  C8A      -60.6880  -16.7380   23.7770 C.3   400  NAI400      0.3377
     15  N7A      -59.9900  -17.3050   24.7970 N.2   400  NAI400     -0.2095
     16  C5A      -59.3930  -18.3990   24.3170 C.2   400  NAI400      0.2526
     17  C6A      -58.5080  -19.4540   24.8530 C.2   400  NAI400      0.4393
     18  N6A      -58.1290  -19.4060   26.1910 N.pl3 400  NAI400      0.2180
     19  N1A      -58.0970  -20.4300   24.0260 N.2   400  NAI400      0.0021
     20  C2A      -58.4680  -20.4730   22.7270 C.3   400  NAI400      0.5254
     21  N3A      -59.2750  -19.5390   22.1750 N.2   400  NAI400     -0.0055
     22  C4A      -59.7580  -18.5120   22.8970 C.2   400  NAI400      0.3518
     23  O3       -60.3520  -11.4750   18.9780 O.3   400  NAI400     -0.2703
     24  PN       -59.3630  -10.8640   18.0180 P.3   400  NAI400      0.2189
     25  O1N      -59.9700   -9.7030   17.2860 O.3   400  NAI400     -0.4371
     26  O2N      -58.9220  -11.9550   17.0660 O.2   400  NAI400     -0.5170
     27  O5D      -58.1870  -10.3910   18.8570 O.3   400  NAI400     -0.3112
     28  C5D      -57.3010  -11.3090   19.5010 C.3   400  NAI400      0.1813
     29  C4D      -56.3870  -10.6610   20.5420 C.3   400  NAI400      0.1799
     30  O4D      -55.2190  -10.0850   19.9690 O.3   400  NAI400     -0.3327
     31  C3D      -57.0460   -9.5220   21.3120 C.3   400  NAI400      0.2158
     32  O3D      -56.7620   -9.6170   22.7040 O.3   400  NAI400     -0.2175
     33  C2D      -56.4640   -8.2410   20.7380 C.3   400  NAI400      0.2309
     34  O2D      -56.3900   -7.2430   21.7520 O.3   400  NAI400     -0.2158
     35  C1D      -55.1160   -8.6730   20.1530 C.3   400  NAI400      0.2263
     36  N1N      -54.7160   -7.9770   18.9120 N.pl3 400  NAI400     -0.2787
     37  C2N      -53.4170   -7.8060   18.5960 C.3   400  NAI400      0.1244
     38  C3N      -53.0460   -6.9810   17.5210 C.2   400  NAI400      0.0544
     39  C7N      -51.6580   -6.3950   17.3690 C.2   400  NAI400      0.2818
     40  O7N      -51.4670   -5.6030   16.4550 O.2   400  NAI400     -0.2670
     41  N7N      -50.6570   -6.6860   18.2080 N.am  400  NAI400     -0.0839
     42  C4N      -54.0400   -6.5690   16.6280 C.2   400  NAI400      0.0033
     43  C5N      -55.3730   -6.7990   16.9380 C.2   400  NAI400      0.0157
     44  C6N      -55.6830   -7.4480   18.1320 C.2   400  NAI400      0.0633
@<TRIPOS>BOND
     1    40    39    2
     2    42    43    1
     3    42    38    2
     4    43    44    2
     5    26    24    2
     6    25    24    1
     7    39    38    1
     8    39    41   am
     9     3     1    2
    10    38    37    1
    11    24    27    1
    12    24    23    1
    13    44    36    1
    14    37    36    1
    15     1     4    1
    16     1    23    1
    17     1     2    1
    18    27    28    1
    19    36    35    1
    20     4     5    1
    21     9     8    1
    22    28    29    1
    23     6     5    1
    24     6     8    1
    25     6     7    1
    26    30    35    1
    27    30    29    1
    28     8    10    1
    29    35    33    1
    30    29    31    1
    31     7    12    1
    32    33    31    1
    33    33    34    1
    34    31    32    1
    35    12    10    1
    36    12    13    1
    37    11    10    1
    38    21    20    1
    39    21    22    2
    40    13    22    1
    41    13    14    1
    42    20    19    1
    43    22    16    1
    44    14    15    1
    45    19    17    2
    46    16    15    2
    47    16    17    1
    48    17    18    1
