@<TRIPOS>MOLECULE
3nt4_INS_A_1.pdb
 12 12 0 0 0
SMALL
GASTEIGER

@<TRIPOS>ATOM
      1  C1       -55.4790   -2.1760   16.0940 C.3   801  INS801      0.2175
      2  C2       -54.1680   -1.6190   16.6700 C.3   801  INS801      0.2175
      3  C3       -54.0710   -0.0970   16.6180 C.3   801  INS801      0.2175
      4  C4       -55.3900    0.5260   17.0520 C.3   801  INS801      0.2175
      5  C5       -56.5090    0.0410   16.1700 C.3   801  INS801      0.2175
      6  C6       -56.7220   -1.4000   16.5340 C.3   801  INS801      0.2175
      7  O1       -55.6150   -3.5530   16.4870 O.3   801  INS801     -0.2175
      8  O2       -54.0230   -2.0270   18.0430 O.3   801  INS801     -0.2175
      9  O3       -53.0280    0.3150   17.5150 O.3   801  INS801     -0.2175
     10  O4       -55.3610    1.9410   16.9210 O.3   801  INS801     -0.2175
     11  O5       -57.6810    0.7900   16.4570 O.3   801  INS801     -0.2175
     12  O6       -57.9130   -1.8750   15.8950 O.3   801  INS801     -0.2175
@<TRIPOS>BOND
     1    12     6    1
     2     1     7    1
     3     1     6    1
     4     1     2    1
     5     5    11    1
     6     5     6    1
     7     5     4    1
     8     3     2    1
     9     3     4    1
    10     3     9    1
    11     2     8    1
    12    10     4    1
