@<TRIPOS>MOLECULE
3nt5_NAI_B_1.pdb
 44 48 0 0 0
SMALL
GASTEIGER

@<TRIPOS>ATOM
      1  PA       -30.2830   47.1990   19.0240 P.3   400  NAI400      0.2189
      2  O1A      -30.0240   46.5840   20.4130 O.3   400  NAI400     -0.4371
      3  O2A      -29.0140   47.8750   18.4810 O.2   400  NAI400     -0.5170
      4  O5B      -31.4150   48.1810   19.3010 O.3   400  NAI400     -0.3112
      5  C5B      -31.4450   48.8770   20.5390 C.3   400  NAI400      0.1813
      6  C4B      -31.2320   50.3450   20.1910 C.3   400  NAI400      0.1821
      7  O4B      -32.0770   51.1930   20.9590 O.3   400  NAI400     -0.3135
      8  C3B      -29.8160   50.8470   20.5050 C.3   400  NAI400      0.2184
      9  O3B      -29.1060   51.2490   19.3300 O.3   400  NAI400     -0.2174
     10  C2B      -29.9660   51.9500   21.5770 C.3   400  NAI400      0.2570
     11  O2B      -29.7960   53.2740   21.0870 O.3   400  NAI400     -0.2130
     12  C1B      -31.3650   51.6680   22.1100 C.3   400  NAI400      0.3186
     13  N9A      -32.1130   52.5580   23.0590 N.pl3 400  NAI400     -0.1439
     14  C8A      -32.8620   52.0890   24.0990 C.3   400  NAI400      0.3377
     15  N7A      -33.5850   53.0850   24.6810 N.2   400  NAI400     -0.2095
     16  C5A      -33.3100   54.2230   24.0210 C.2   400  NAI400      0.2526
     17  C6A      -33.7270   55.6480   24.1420 C.2   400  NAI400      0.4393
     18  N6A      -34.6340   56.0330   25.1340 N.pl3 400  NAI400      0.2180
     19  N1A      -33.2070   56.5340   23.2710 N.2   400  NAI400      0.0021
     20  C2A      -32.3280   56.1480   22.3120 C.3   400  NAI400      0.5254
     21  N3A      -31.8900   54.8760   22.1380 N.2   400  NAI400     -0.0055
     22  C4A      -32.3370   53.8860   22.9410 C.2   400  NAI400      0.3518
     23  O3       -30.7620   46.1290   18.0170 O.3   400  NAI400     -0.2703
     24  PN       -32.1920   45.7120   17.6950 P.3   400  NAI400      0.2189
     25  O1N      -32.2540   44.6740   16.5900 O.2   400  NAI400     -0.5170
     26  O2N      -32.9450   46.9880   17.2720 O.3   400  NAI400     -0.4371
     27  O5D      -32.6770   45.0730   18.9990 O.3   400  NAI400     -0.3112
     28  C5D      -33.4630   45.8540   19.8970 C.3   400  NAI400      0.1813
     29  C4D      -34.9490   45.5720   19.7050 C.3   400  NAI400      0.1799
     30  O4D      -35.1580   44.7280   18.5600 O.3   400  NAI400     -0.3327
     31  C3D      -35.5500   44.7740   20.8660 C.3   400  NAI400      0.2158
     32  O3D      -36.9090   45.1780   21.0820 O.3   400  NAI400     -0.2175
     33  C2D      -35.5060   43.3310   20.3720 C.3   400  NAI400      0.2309
     34  O2D      -36.3420   42.5000   21.1890 O.3   400  NAI400     -0.2158
     35  C1D      -35.9340   43.5680   18.9030 C.3   400  NAI400      0.2263
     36  N1N      -35.9190   42.4460   17.9100 N.pl3 400  NAI400     -0.2787
     37  C2N      -34.8510   41.6150   17.7390 C.3   400  NAI400      0.1244
     38  C3N      -35.0750   40.2670   17.3510 C.2   400  NAI400      0.0544
     39  C7N      -33.9610   39.2980   16.9760 C.2   400  NAI400      0.2818
     40  O7N      -34.2790   38.1290   16.8000 O.2   400  NAI400     -0.2670
     41  N7N      -32.7300   39.6920   16.5870 N.am  400  NAI400     -0.0839
     42  C4N      -36.3950   39.8610   17.0590 C.2   400  NAI400      0.0033
     43  C5N      -37.3890   40.8290   16.8920 C.2   400  NAI400      0.0157
     44  C6N      -37.1090   42.1470   17.3020 C.2   400  NAI400      0.0633
@<TRIPOS>BOND
     1    41    39   am
     2    25    24    2
     3    40    39    2
     4    43    42    1
     5    43    44    2
     6    39    38    1
     7    42    38    2
     8    26    24    1
     9    44    36    1
    10    38    37    1
    11    24    23    1
    12    24    27    1
    13    37    36    1
    14    36    35    1
    15    23     1    1
    16     3     1    2
    17    30    35    1
    18    30    29    1
    19    35    33    1
    20    27    28    1
    21     1     4    1
    22     1     2    1
    23     4     5    1
    24     9     8    1
    25    29    28    1
    26    29    31    1
    27     6     8    1
    28     6     5    1
    29     6     7    1
    30    33    31    1
    31    33    34    1
    32     8    10    1
    33    31    32    1
    34     7    12    1
    35    11    10    1
    36    10    12    1
    37    12    13    1
    38    21    20    1
    39    21    22    2
    40    20    19    1
    41    22    13    1
    42    22    16    1
    43    13    14    1
    44    19    17    2
    45    16    17    1
    46    16    15    2
    47    14    15    1
    48    17    18    1
