@<TRIPOS>MOLECULE
3nt5_ISE_A_1.pdb
 12 12 0 0 0
SMALL
GASTEIGER

@<TRIPOS>ATOM
      1  C1       -55.4360   -1.4310   18.0190 C.3   345  ISE345      0.2440
      2  O1       -55.8670   -2.0160   19.2870 O.3   345  ISE345     -0.2122
      3  C2       -53.9280   -1.5900   17.7810 C.2   345  ISE345      0.2161
      4  O2       -53.2930   -2.5290   18.2350 O.2   345  ISE345     -0.2905
      5  C3       -53.4220   -0.8060   16.5810 C.3   345  ISE345      0.2440
      6  O3       -51.9840   -0.7200   16.4590 O.3   345  ISE345     -0.2122
      7  C4       -53.8740    0.6400   16.6350 C.3   345  ISE345      0.2221
      8  O4       -53.4450    1.2250   15.4130 O.3   345  ISE345     -0.2171
      9  C5       -55.3820    0.7500   16.6500 C.3   345  ISE345      0.2182
     10  O5       -55.6650    2.1410   16.8090 O.3   345  ISE345     -0.2175
     11  C6       -55.9860    0.0240   17.8490 C.3   345  ISE345      0.2221
     12  O6       -57.4080    0.0600   17.5910 O.3   345  ISE345     -0.2171
@<TRIPOS>BOND
     1     8     7    1
     2     6     5    1
     3     5     7    1
     4     5     3    1
     5     7     9    1
     6     9    10    1
     7     9    11    1
     8    12    11    1
     9     3     1    1
    10     3     4    2
    11    11     1    1
    12     1     2    1
