@<TRIPOS>MOLECULE
3nt5_NAD_A_1.pdb
 44 48 0 0 0
SMALL
GASTEIGER

@<TRIPOS>ATOM
      1  PA       -62.4090  -11.7020   18.1670 P.3   400  NAD400      0.2189
      2  O1A      -62.7400  -11.6950   16.7050 O.2   400  NAD400     -0.5170
      3  O2A      -63.6300  -11.2810   18.9210 O.3   400  NAD400     -0.4371
      4  O5B      -61.9990  -13.1870   18.6460 O.3   400  NAD400     -0.3112
      5  C5B      -61.1550  -13.4990   19.7590 C.3   400  NAD400      0.1813
      6  C4B      -61.0380  -15.0290   19.7090 C.3   400  NAD400      0.1821
      7  O4B      -60.1750  -15.5850   20.6920 O.3   400  NAD400     -0.3135
      8  C3B      -62.4290  -15.6770   19.8670 C.3   400  NAD400      0.2184
      9  O3B      -62.7990  -16.4780   18.7430 O.3   400  NAD400     -0.2174
     10  C2B      -62.3390  -16.4660   21.1720 C.3   400  NAD400      0.2570
     11  O2B      -63.1530  -17.6370   21.1590 O.3   400  NAD400     -0.2130
     12  C1B      -60.8290  -16.7470   21.2290 C.3   400  NAD400      0.3186
     13  N9A      -60.2650  -17.1600   22.5410 N.pl3 400  NAD400     -0.1439
     14  C8A      -60.3050  -16.4740   23.7370 C.3   400  NAD400      0.3377
     15  N7A      -59.5550  -17.1450   24.6540 N.2   400  NAD400     -0.2095
     16  C5A      -59.0360  -18.2620   24.0680 C.2   400  NAD400      0.2526
     17  C6A      -58.1950  -19.2990   24.5320 C.2   400  NAD400      0.4393
     18  N6A      -57.7230  -19.3030   25.7890 N.pl3 400  NAD400      0.2180
     19  N1A      -57.8300  -20.3230   23.6480 N.2   400  NAD400      0.0021
     20  C2A      -58.2880  -20.3230   22.3300 C.3   400  NAD400      0.5254
     21  N3A      -59.1130  -19.2990   21.8820 N.2   400  NAD400     -0.0055
     22  C4A      -59.4810  -18.2850   22.7280 C.2   400  NAD400      0.3518
     23  O3       -61.0350  -10.8900   18.6090 O.3   400  NAD400     -0.2703
     24  PN       -59.5650  -10.8930   17.8700 P.3   400  NAD400      0.2189
     25  O1N      -59.2100  -12.2760   17.3920 O.3   400  NAD400     -0.4371
     26  O2N      -59.6190   -9.7740   16.8970 O.2   400  NAD400     -0.5170
     27  O5D      -58.4290  -10.3870   18.9430 O.3   400  NAD400     -0.3112
     28  C5D      -57.7360  -11.2130   19.8800 C.3   400  NAD400      0.1813
     29  C4D      -56.7980  -10.4650   20.8710 C.3   400  NAD400      0.1799
     30  O4D      -55.4560  -10.2500   20.3890 O.3   400  NAD400     -0.3327
     31  C3D      -57.3290   -9.1440   21.4860 C.3   400  NAD400      0.2158
     32  O3D      -57.5780   -9.2270   22.8920 O.3   400  NAD400     -0.2175
     33  C2D      -56.2580   -8.1010   21.1340 C.3   400  NAD400      0.2309
     34  O2D      -55.9290   -7.1720   22.1530 O.3   400  NAD400     -0.2158
     35  C1D      -55.0700   -8.8670   20.5020 C.3   400  NAD400      0.2263
     36  N1N      -54.7490   -8.2810   19.1630 N.pl3 400  NAD400     -0.2787
     37  C2N      -53.4590   -7.8800   18.8480 C.3   400  NAD400      0.1244
     38  C3N      -53.1720   -7.3070   17.5840 C.2   400  NAD400      0.0544
     39  C7N      -51.7740   -6.8710   17.1980 C.2   400  NAD400      0.2818
     40  O7N      -51.6040   -6.1410   15.9850 O.2   400  NAD400     -0.2670
     41  N7N      -50.7370   -7.2220   17.9850 N.am  400  NAD400     -0.0839
     42  C4N      -54.2030   -7.1350   16.6420 C.2   400  NAD400      0.0033
     43  C5N      -55.5080   -7.5320   16.9640 C.2   400  NAD400      0.0157
     44  C6N      -55.7610   -8.1020   18.2230 C.2   400  NAD400      0.0633
@<TRIPOS>BOND
     1    40    39    2
     2    42    43    1
     3    42    38    2
     4     2     1    2
     5    26    24    2
     6    43    44    2
     7    39    38    1
     8    39    41   am
     9    25    24    1
    10    38    37    1
    11    24    23    1
    12    24    27    1
    13     1    23    1
    14     1     4    1
    15     1     3    1
    16    44    36    1
    17     4     5    1
    18     9     8    1
    19    37    36    1
    20    27    28    1
    21    36    35    1
    22     6     5    1
    23     6     8    1
    24     6     7    1
    25     8    10    1
    26    28    29    1
    27    30    35    1
    28    30    29    1
    29    35    33    1
    30     7    12    1
    31    29    31    1
    32    33    31    1
    33    33    34    1
    34    11    10    1
    35    10    12    1
    36    12    13    1
    37    31    32    1
    38    21    20    1
    39    21    22    2
    40    20    19    1
    41    13    22    1
    42    13    14    1
    43    22    16    1
    44    19    17    2
    45    14    15    1
    46    16    17    1
    47    16    15    2
    48    17    18    1
