@<TRIPOS>MOLECULE
3nt6_COA_A_1.pdb
 48 50 0 0 0
SMALL
GASTEIGER

@<TRIPOS>ATOM
      1  N1A       38.0200  -22.6200   43.8110 N.2   901  COA901      0.0021
      2  C2A       39.3560  -22.7390   44.0650 C.3   901  COA901      0.5254
      3  N3A       40.1930  -22.3440   43.0750 N.2   901  COA901     -0.0055
      4  C4A       39.6980  -21.8760   41.9040 C.2   901  COA901      0.3518
      5  C5A       38.3330  -21.8350   41.6610 C.2   901  COA901      0.2526
      6  C6A       37.4480  -22.2220   42.6780 C.2   901  COA901      0.4393
      7  N6A       36.1230  -21.9930   42.6520 N.pl3 901  COA901      0.2180
      8  N7A       38.1420  -21.3400   40.4220 N.2   901  COA901     -0.2095
      9  C8A       39.3220  -21.0460   39.8670 C.3   901  COA901      0.3377
     10  N9A       40.3250  -21.3690   40.7980 N.pl3 901  COA901     -0.1439
     11  C1B       41.7460  -21.0800   40.6490 C.3   901  COA901      0.3185
     12  C2B       42.2730  -21.7980   39.4100 C.3   901  COA901      0.2543
     13  O2B       42.7080  -23.0860   39.7360 O.3   901  COA901     -0.2131
     14  C3B       43.4470  -20.8940   38.9890 C.3   901  COA901      0.1928
     15  O3B       44.5940  -20.9850   39.7960 O.3   901  COA901     -0.2673
     16  P3B       45.8830  -21.8620   39.2970 P.3   901  COA901      0.5327
     17  O7A       46.8290  -21.5900   40.3710 O.3   901  COA901     -0.1145
     18  O8A       46.2660  -21.3030   37.9400 O.2   901  COA901     -0.2224
     19  O9A       45.4240  -23.3010   39.1850 O.3   901  COA901     -0.1145
     20  C4B       42.8820  -19.5560   39.2720 C.3   901  COA901      0.1795
     21  O4B       41.8640  -19.7120   40.2500 O.3   901  COA901     -0.3136
     22  C5B       42.4030  -18.8650   38.0040 C.3   901  COA901      0.1812
     23  O5B       41.6330  -17.7300   38.4150 O.3   901  COA901     -0.3112
     24  P1A       41.3770  -16.6230   37.2500 P.3   901  COA901      0.2189
     25  O1A       40.8670  -17.1610   35.9480 O.2   901  COA901     -0.5170
     26  O2A       40.6360  -15.5090   37.9670 O.3   901  COA901     -0.4371
     27  O3A       42.8100  -16.1840   36.7170 O.3   901  COA901     -0.2703
     28  P2A       44.0840  -15.5950   37.4210 P.3   901  COA901      0.2188
     29  O4A       45.2120  -16.3920   36.9500 O.2   901  COA901     -0.5170
     30  O5A       44.0080  -15.4160   38.9130 O.3   901  COA901     -0.4371
     31  O6A       44.1110  -14.0460   36.8910 O.3   901  COA901     -0.3138
     32  CBP       43.7270  -12.6890   34.8520 C.3   901  COA901      0.0645
     33  CCP       44.4620  -13.8190   35.5530 C.3   901  COA901      0.1519
     34  CDP       44.2650  -11.4680   35.5500 C.3   901  COA901      0.0056
     35  CEP       42.2060  -12.6560   35.0870 C.3   901  COA901      0.0056
     36  CAP       44.0680  -12.8230   33.3190 C.3   901  COA901      0.2312
     37  OAP       44.1370  -14.1130   32.6900 O.3   901  COA901     -0.2131
     38  C9P       43.6430  -11.7310   32.3590 C.2   901  COA901      0.2719
     39  O9P       44.2300  -10.4940   32.5190 O.2   901  COA901     -0.2706
     40  N8P       42.7720  -11.9480   31.3700 N.am  901  COA901     -0.2028
     41  C7P       41.8320  -10.9250   30.8840 C.3   901  COA901      0.1248
     42  C6P       42.3810  -10.3470   29.6060 C.3   901  COA901      0.1102
     43  C5P       42.3710  -11.3440   28.4500 C.2   901  COA901      0.2432
     44  O5P       42.4750  -12.5950   28.6110 O.2   901  COA901     -0.2733
     45  N4P       42.2160  -10.8070   27.2300 N.am  901  COA901     -0.2044
     46  C3P       42.0730  -11.7030   26.0790 C.3   901  COA901      0.1276
     47  C2P       40.8360  -11.5180   25.1630 C.3   901  COA901      0.0920
     48  S1P       39.2410  -11.2690   25.9800 S.3   901  COA901     -0.0802
@<TRIPOS>BOND
     1    47    48    1
     2    47    46    1
     3    46    45    1
     4    45    43   am
     5    43    44    2
     6    43    42    1
     7    42    41    1
     8    41    40    1
     9    40    38   am
    10    38    39    2
    11    38    36    1
    12    37    36    1
    13    36    32    1
    14    32    35    1
    15    32    34    1
    16    32    33    1
    17    33    31    1
    18    25    24    2
    19    27    24    1
    20    27    28    1
    21    31    28    1
    22    29    28    2
    23    24    26    1
    24    24    23    1
    25    28    30    1
    26    18    16    2
    27    22    23    1
    28    22    20    1
    29    14    20    1
    30    14    12    1
    31    14    15    1
    32    19    16    1
    33    20    21    1
    34    16    15    1
    35    16    17    1
    36    12    13    1
    37    12    11    1
    38     9     8    1
    39     9    10    1
    40    21    11    1
    41     8     5    2
    42    11    10    1
    43    10     4    1
    44     5     4    1
    45     5     6    1
    46     4     3    2
    47     7     6    1
    48     6     1    2
    49     3     2    1
    50     1     2    1
