@<TRIPOS>MOLECULE
3nta_COA_A_1.pdb
 48 50 0 0 0
SMALL
GASTEIGER

@<TRIPOS>ATOM
      1  N1A       38.0310  -22.5970   44.6210 N.2   901  COA901      0.0021
      2  C2A       39.3930  -22.7190   44.7820 C.3   901  COA901      0.5254
      3  N3A       40.2200  -22.3220   43.7880 N.2   901  COA901     -0.0055
      4  C4A       39.7140  -21.8740   42.6050 C.2   901  COA901      0.3518
      5  C5A       38.3480  -21.8020   42.3680 C.2   901  COA901      0.2526
      6  C6A       37.4830  -22.1370   43.4080 C.2   901  COA901      0.4393
      7  N6A       36.1630  -22.1230   43.1780 N.pl3 901  COA901      0.2180
      8  N7A       38.1570  -21.3450   41.1320 N.2   901  COA901     -0.2095
      9  C8A       39.3500  -21.1460   40.5300 C.3   901  COA901      0.3377
     10  N9A       40.3490  -21.4810   41.4860 N.pl3 901  COA901     -0.1439
     11  C1B       41.7860  -21.1590   41.4610 C.3   901  COA901      0.3185
     12  C2B       42.4880  -21.9320   40.4120 C.3   901  COA901      0.2543
     13  O2B       42.9410  -23.2160   40.7850 O.3   901  COA901     -0.2131
     14  C3B       43.5540  -20.9710   39.9380 C.3   901  COA901      0.1928
     15  O3B       44.7170  -21.0930   40.6440 O.3   901  COA901     -0.2673
     16  P3B       45.9960  -21.8940   40.2030 P.3   901  COA901      0.5327
     17  O7A       46.9840  -21.6640   41.2680 O.3   901  COA901     -0.1145
     18  O8A       46.4770  -21.3950   38.8150 O.2   901  COA901     -0.2224
     19  O9A       45.6030  -23.2980   40.1110 O.3   901  COA901     -0.1145
     20  C4B       43.0310  -19.5680   40.1760 C.3   901  COA901      0.1795
     21  O4B       41.9520  -19.7620   41.0810 O.3   901  COA901     -0.3136
     22  C5B       42.4220  -18.9450   38.9060 C.3   901  COA901      0.1812
     23  O5B       41.7740  -17.6940   39.2710 O.3   901  COA901     -0.3112
     24  P1A       41.4360  -16.6600   38.0280 P.3   901  COA901      0.2189
     25  O1A       41.0760  -17.2910   36.6990 O.2   901  COA901     -0.5170
     26  O2A       40.4350  -15.7060   38.4480 O.3   901  COA901     -0.4371
     27  O3A       42.8300  -16.0490   37.6490 O.3   901  COA901     -0.2703
     28  P2A       44.1850  -15.5410   38.3170 P.3   901  COA901      0.2188
     29  O4A       45.2730  -16.4510   37.8860 O.2   901  COA901     -0.5170
     30  O5A       44.1420  -15.2290   39.8610 O.3   901  COA901     -0.4371
     31  O6A       44.3290  -14.1310   37.5820 O.3   901  COA901     -0.3138
     32  CBP       44.0360  -12.9050   35.4930 C.3   901  COA901      0.0645
     33  CCP       44.4220  -14.2150   36.1520 C.3   901  COA901      0.1519
     34  CDP       44.6120  -11.7080   36.1820 C.3   901  COA901      0.0056
     35  CEP       42.5680  -12.6760   35.7510 C.3   901  COA901      0.0056
     36  CAP       44.3140  -12.9910   33.9740 C.3   901  COA901      0.2312
     37  OAP       43.6340  -14.0490   33.4000 O.3   901  COA901     -0.2131
     38  C9P       43.8350  -11.8240   33.1920 C.2   901  COA901      0.2719
     39  O9P       44.4380  -10.6490   33.4630 O.2   901  COA901     -0.2706
     40  N8P       42.8590  -11.9420   32.3070 N.am  901  COA901     -0.2028
     41  C7P       42.1560  -10.7920   31.6650 C.3   901  COA901      0.1248
     42  C6P       42.9540  -10.3720   30.4600 C.3   901  COA901      0.1102
     43  C5P       42.6660  -11.3740   29.3630 C.2   901  COA901      0.2432
     44  O5P       42.8040  -12.5770   29.4880 O.2   901  COA901     -0.2733
     45  N4P       42.2210  -10.8690   28.2010 N.am  901  COA901     -0.2044
     46  C3P       42.1750  -11.7100   27.0460 C.3   901  COA901      0.1276
     47  C2P       41.1220  -11.2360   26.0650 C.3   901  COA901      0.0920
     48  S1P       39.4610  -11.5490   26.6900 S.3   901  COA901     -0.0802
@<TRIPOS>BOND
     1    47    48    1
     2    47    46    1
     3    46    45    1
     4    45    43   am
     5    43    44    2
     6    43    42    1
     7    42    41    1
     8    41    40    1
     9    40    38   am
    10    38    39    2
    11    38    36    1
    12    37    36    1
    13    36    32    1
    14    32    35    1
    15    32    33    1
    16    32    34    1
    17    33    31    1
    18    25    24    2
    19    31    28    1
    20    27    24    1
    21    27    28    1
    22    29    28    2
    23    24    26    1
    24    24    23    1
    25    28    30    1
    26    18    16    2
    27    22    23    1
    28    22    20    1
    29    14    20    1
    30    14    12    1
    31    14    15    1
    32    19    16    1
    33    20    21    1
    34    16    15    1
    35    16    17    1
    36    12    13    1
    37    12    11    1
    38     9     8    1
    39     9    10    1
    40    21    11    1
    41     8     5    2
    42    11    10    1
    43    10     4    1
    44     5     4    1
    45     5     6    1
    46     4     3    2
    47     7     6    1
    48     6     1    2
    49     3     2    1
    50     1     2    1
