@<TRIPOS>MOLECULE
3ntb_HEM_A_1.pdb
 43 50 0 0 0
SMALL
GASTEIGER

@<TRIPOS>ATOM
      1  CHA      -60.7190   31.7170   -0.0030 C.2   619  HEM619      0.0000
      2  CHB      -63.8590   28.0970   -0.6700 C.2   619  HEM619      0.0000
      3  CHC      -64.2250   29.2920   -5.3680 C.2   619  HEM619      0.0000
      4  CHD      -61.5230   33.2480   -4.5970 C.2   619  HEM619      0.0000
      5  C1A      -61.5090   30.6150    0.2380 C.2   619  HEM619      0.0000
      6  C2A      -61.6130   29.8760    1.4840 C.2   619  HEM619      0.0000
      7  C3A      -62.4840   28.8750    1.3000 C.2   619  HEM619      0.0000
      8  C4A      -62.9550   28.9450   -0.0700 C.2   619  HEM619      0.0000
      9  CMA      -62.9170   27.8190    2.3490 C.3   619  HEM619      0.0000
     10  CAA      -60.8530   30.2050    2.7910 C.3   619  HEM619      0.0000
     11  CBA      -59.5530   29.4080    2.8760 C.3   619  HEM619      0.0000
     12  CGA      -59.2200   29.1300    4.3230 C.2   619  HEM619      0.0000
     13  O1A      -59.1950   30.0910    5.1420 O.co2 619  HEM619      0.0000
     14  O2A      -58.9780   27.9420    4.6610 O.co2 619  HEM619      0.0000
     15  C1B      -64.1710   28.0490   -2.0130 C.ar  619  HEM619      0.0000
     16  C2B      -64.8930   26.9890   -2.6890 C.ar  619  HEM619      0.0000
     17  C3B      -64.9950   27.3160   -3.9810 C.ar  619  HEM619      0.0000
     18  C4B      -64.3410   28.5980   -4.1780 C.ar  619  HEM619      0.0000
     19  CMB      -65.4490   25.7070   -2.0280 C.3   619  HEM619      0.0000
     20  CAB      -65.6920   26.4680   -5.0690 C.2   619  HEM619      0.0000
     21  CBB      -65.0310   26.1220   -6.1740 C.2   619  HEM619      0.0000
     22  C1C      -63.5560   30.4810   -5.5760 C.2   619  HEM619      0.0000
     23  C2C      -63.4910   31.2280   -6.8180 C.2   619  HEM619      0.0000
     24  C3C      -62.7450   32.3210   -6.6120 C.2   619  HEM619      0.0000
     25  C4C      -62.3090   32.3070   -5.2280 C.2   619  HEM619      0.0000
     26  CMC      -64.1690   30.8240   -8.1460 C.3   619  HEM619      0.0000
     27  CAC      -62.4090   33.4090   -7.6590 C.2   619  HEM619      0.0000
     28  CBC      -61.1380   33.7120   -7.9390 C.2   619  HEM619      0.0000
     29  C1D      -60.9230   33.1130   -3.3610 C.ar  619  HEM619      0.0000
     30  C2D      -59.7230   33.7950   -2.9280 C.ar  619  HEM619      0.0000
     31  C3D      -59.4780   33.3130   -1.4920 C.ar  619  HEM619      0.0000
     32  C4D      -60.5500   32.3860   -1.2010 C.ar  619  HEM619      0.0000
     33  CMD      -58.8650   34.7970   -3.7320 C.3   619  HEM619      0.0000
     34  CAD      -58.3220   33.7210   -0.5560 C.3   619  HEM619      0.0000
     35  CBD      -57.2570   32.6270   -0.5990 C.3   619  HEM619      0.0000
     36  CGD      -56.1680   32.8980    0.4060 C.2   619  HEM619      0.0000
     37  O1D      -56.1110   34.0300    0.9530 O.co2 619  HEM619      0.0000
     38  O2D      -55.3510   31.9780    0.6610 O.co2 619  HEM619      0.0000
     39  NA       -62.3430   30.0210   -0.6820 N.2   619  HEM619      0.0000
     40  NB       -63.8480   29.0100   -2.9540 N.ar  619  HEM619      0.0000
     41  NC       -62.8250   31.1740   -4.6310 N.2   619  HEM619      0.0000
     42  ND       -61.3710   32.2960   -2.3230 N.ar  619  HEM619      0.0000
     43 FE        -62.6090   30.6400   -2.6480 Fe    619  HEM619      0.0000
@<TRIPOS>BOND
     1    26    23    1
     2    28    27    2
     3    27    24    1
     4    23    24    2
     5    23    22    1
     6    24    25    1
     7    21    20    2
     8    22     3    2
     9    22    41    1
    10     3    18    1
    11    25    41    2
    12    25     4    1
    13    20    17    1
    14    41    43    1
    15     4    29    2
    16    18    17   ar
    17    18    40   ar
    18    17    16   ar
    19    33    30    1
    20    29    30   ar
    21    29    42   ar
    22    40    43    1
    23    40    15   ar
    24    30    31   ar
    25    16    19    1
    26    16    15   ar
    27    43    42    1
    28    43    39    1
    29    42    32   ar
    30    15     2    1
    31    31    32   ar
    32    31    34    1
    33    32     1    2
    34    39     8    1
    35    39     5    2
    36     2     8    2
    37    35    34    1
    38    35    36    1
    39     8     7    1
    40     1     5    1
    41     5     6    1
    42    36    38   ar
    43    36    37   ar
    44     7     6    2
    45     7     9    1
    46     6    10    1
    47    10    11    1
    48    11    12    1
    49    12    14   ar
    50    12    13   ar
