@<TRIPOS>MOLECULE
3ntb_T1N_A_1.pdb
 17 18 0 0 0
SMALL
GASTEIGER

@<TRIPOS>ATOM
      1  CAA      -58.4530   41.8110  -10.8970 C.3     3  T1N3        0.0742
      2  CAB      -57.1930   46.0170  -19.2800 C.3     3  T1N3        0.0166
      3  OAC      -56.5820   48.1780  -17.4780 O.co2   3  T1N3       -0.2453
      4  OAD      -58.6950   48.8300  -17.6920 O.co2   3  T1N3       -0.2453
      5  CAE      -60.9550   44.0420  -13.3500 C.ar    3  T1N3        0.0061
      6  CAF      -57.1600   44.9900  -16.4980 C.ar    3  T1N3       -0.0037
      7  CAG      -60.8290   44.8100  -14.5030 C.ar    3  T1N3        0.0005
      8  CAH      -57.2810   44.2110  -15.3460 C.ar    3  T1N3       -0.0003
      9  CAI      -58.6320   43.3880  -13.5220 C.ar    3  T1N3        0.0061
     10  CAJ      -59.4820   45.6340  -16.3150 C.ar    3  T1N3       -0.0037
     11  SAK      -60.0590   42.3830  -11.4070 S.3     3  T1N3       -0.1127
     12  CAL      -57.7800   47.9830  -17.7800 C.2     3  T1N3        0.3683
     13  CAM      -59.8600   43.3340  -12.8610 C.ar    3  T1N3        0.0252
     14  CAN      -58.2650   45.6910  -16.9870 C.ar    3  T1N3       -0.0118
     15  CAO      -58.5030   44.1530  -14.6770 C.ar    3  T1N3        0.0005
     16  CAP      -59.6050   44.8630  -15.1630 C.ar    3  T1N3       -0.0003
     17  CAQ      -58.1820   46.5690  -18.2400 C.3     3  T1N3        0.1256
@<TRIPOS>BOND
     1     2    17    1
     2    17    12    1
     3    17    14    1
     4    12     4   ar
     5    12     3   ar
     6    14     6   ar
     7    14    10   ar
     8     6     8   ar
     9    10    16   ar
    10     8    15   ar
    11    16    15   ar
    12    16     7   ar
    13    15     9   ar
    14     7     5   ar
    15     9    13   ar
    16     5    13   ar
    17    13    11    1
    18    11     1    1
