@<TRIPOS>MOLECULE
3ntd_COA_A_1.pdb
 48 50 0 0 0
SMALL
GASTEIGER

@<TRIPOS>ATOM
      1  N1A       38.0120  -22.5730   43.9150 N.2   901  COA901      0.0021
      2  C2A       39.3400  -22.6960   44.0040 C.3   901  COA901      0.5254
      3  N3A       40.1650  -22.2500   42.9940 N.2   901  COA901     -0.0055
      4  C4A       39.6320  -21.7740   41.8770 C.2   901  COA901      0.3518
      5  C5A       38.2870  -21.6680   41.7210 C.2   901  COA901      0.2526
      6  C6A       37.4480  -22.0380   42.7590 C.2   901  COA901      0.4393
      7  N6A       36.1050  -21.9200   42.5760 N.pl3 901  COA901      0.2180
      8  N7A       38.0130  -21.1820   40.4970 N.2   901  COA901     -0.2095
      9  C8A       39.1760  -20.9650   39.8790 C.3   901  COA901      0.3377
     10  N9A       40.2130  -21.3470   40.7330 N.pl3 901  COA901     -0.1439
     11  C1B       41.6360  -21.0280   40.6360 C.3   901  COA901      0.3185
     12  C2B       42.2650  -21.8000   39.5030 C.3   901  COA901      0.2543
     13  O2B       42.7600  -23.0800   39.9130 O.3   901  COA901     -0.2131
     14  C3B       43.3470  -20.8100   39.0460 C.3   901  COA901      0.1928
     15  O3B       44.4960  -20.9590   39.8630 O.3   901  COA901     -0.2673
     16  P3B       45.8210  -21.6740   39.3980 P.3   901  COA901      0.5327
     17  O7A       46.7640  -21.4650   40.5000 O.3   901  COA901     -0.1145
     18  O8A       46.2520  -21.1090   38.0240 O.2   901  COA901     -0.2224
     19  O9A       45.4410  -23.0850   39.1490 O.3   901  COA901     -0.1145
     20  C4B       42.7840  -19.4150   39.3530 C.3   901  COA901      0.1795
     21  O4B       41.6800  -19.6270   40.2810 O.3   901  COA901     -0.3136
     22  C5B       42.2440  -18.7710   38.0670 C.3   901  COA901      0.1812
     23  O5B       41.5430  -17.6010   38.4980 O.3   901  COA901     -0.3112
     24  P1A       41.2290  -16.5500   37.3740 P.3   901  COA901      0.2189
     25  O1A       40.6800  -17.1800   36.1070 O.2   901  COA901     -0.5170
     26  O2A       40.2930  -15.6790   37.9810 O.3   901  COA901     -0.4371
     27  O3A       42.6330  -15.9790   36.8420 O.3   901  COA901     -0.2703
     28  P2A       44.0090  -15.4620   37.5500 P.3   901  COA901      0.2188
     29  O4A       45.0780  -16.3790   37.2230 O.2   901  COA901     -0.5170
     30  O5A       43.8990  -15.1810   39.0150 O.3   901  COA901     -0.4371
     31  O6A       44.0680  -13.9670   36.9140 O.3   901  COA901     -0.3138
     32  CBP       43.8360  -12.6630   34.8820 C.3   901  COA901      0.0645
     33  CCP       44.4200  -13.9150   35.5430 C.3   901  COA901      0.1519
     34  CDP       44.4090  -11.4500   35.6320 C.3   901  COA901      0.0056
     35  CEP       42.3570  -12.5180   35.1440 C.3   901  COA901      0.0056
     36  CAP       44.1110  -12.7770   33.3660 C.3   901  COA901      0.2312
     37  OAP       43.4690  -13.8830   32.7390 O.3   901  COA901     -0.2131
     38  C9P       43.6240  -11.6230   32.5400 C.2   901  COA901      0.2719
     39  O9P       44.2230  -10.4260   32.7360 O.2   901  COA901     -0.2706
     40  N8P       42.6650  -11.7950   31.6630 N.am  901  COA901     -0.2028
     41  C7P       41.9170  -10.6770   31.0940 C.3   901  COA901      0.1248
     42  C6P       42.5720  -10.4140   29.7660 C.3   901  COA901      0.1102
     43  C5P       42.2770  -11.5480   28.8020 C.2   901  COA901      0.2432
     44  O5P       42.3940  -12.7410   29.0450 O.2   901  COA901     -0.2733
     45  N4P       41.8830  -11.1500   27.6050 N.am  901  COA901     -0.2044
     46  C3P       41.7940  -12.1110   26.5410 C.3   901  COA901      0.1276
     47  C2P       40.9840  -11.4830   25.4590 C.3   901  COA901      0.0920
     48  S1P       39.2880  -11.2620   26.0280 S.3   901  COA901     -0.0802
@<TRIPOS>BOND
     1    47    48    1
     2    47    46    1
     3    46    45    1
     4    45    43   am
     5    43    44    2
     6    43    42    1
     7    42    41    1
     8    41    40    1
     9    40    38   am
    10    38    39    2
    11    38    36    1
    12    37    36    1
    13    36    32    1
    14    32    35    1
    15    32    33    1
    16    32    34    1
    17    33    31    1
    18    25    24    2
    19    27    24    1
    20    27    28    1
    21    31    28    1
    22    29    28    2
    23    24    26    1
    24    24    23    1
    25    28    30    1
    26    18    16    2
    27    22    23    1
    28    22    20    1
    29    14    20    1
    30    14    12    1
    31    14    15    1
    32    19    16    1
    33    20    21    1
    34    16    15    1
    35    16    17    1
    36    12    13    1
    37    12    11    1
    38     9     8    1
    39     9    10    1
    40    21    11    1
    41     8     5    2
    42    11    10    1
    43    10     4    1
    44     5     4    1
    45     5     6    1
    46     4     3    2
    47     7     6    1
    48     6     1    2
    49     3     2    1
    50     1     2    1
