@<TRIPOS>MOLECULE
3ntg_HEM_A_1.pdb
 43 50 0 0 0
SMALL
GASTEIGER

@<TRIPOS>ATOM
      1  CHA       23.7850   34.8120    0.3760 C.2   601  HEM601      0.0000
      2  CHB       20.5230   38.2840    1.0170 C.2   601  HEM601      0.0000
      3  CHC       20.4770   37.4150    5.7760 C.2   601  HEM601      0.0000
      4  CHD       23.3300   33.5340    5.0910 C.2   601  HEM601      0.0000
      5  C1A       22.9360   35.8650    0.1410 C.ar  601  HEM601      0.0000
      6  C2A       22.7570   36.5530   -1.1120 C.ar  601  HEM601      0.0000
      7  C3A       21.8560   37.5120   -0.9300 C.ar  601  HEM601      0.0000
      8  C4A       21.4400   37.4570    0.4380 C.ar  601  HEM601      0.0000
      9  CMA       21.3340   38.5180   -1.9700 C.3   601  HEM601      0.0000
     10  CAA       23.4930   36.2410   -2.4260 C.3   601  HEM601      0.0000
     11  CBA       24.8210   36.9900   -2.3840 C.3   601  HEM601      0.0000
     12  CGA       25.5280   36.8620   -3.7140 C.2   601  HEM601      0.0000
     13  O1A       25.1860   35.9350   -4.5110 O.co2 601  HEM601      0.0000
     14  O2A       26.4460   37.6930   -3.9790 O.co2 601  HEM601      0.0000
     15  C1B       20.3120   38.3920    2.3610 C.2   601  HEM601      0.0000
     16  C2B       19.5960   39.4710    2.9840 C.2   601  HEM601      0.0000
     17  C3B       19.5720   39.2510    4.3010 C.2   601  HEM601      0.0000
     18  C4B       20.2860   38.0140    4.5640 C.2   601  HEM601      0.0000
     19  CMB       18.9710   40.6660    2.2400 C.3   601  HEM601      0.0000
     20  CAB       18.8830   40.1740    5.3260 C.2   601  HEM601      0.0000
     21  CBB       19.4730   40.3810    6.4950 C.2   601  HEM601      0.0000
     22  C1C       21.1890   36.2560    5.9910 C.ar  601  HEM601      0.0000
     23  C2C       21.2720   35.5460    7.2430 C.ar  601  HEM601      0.0000
     24  C3C       22.0510   34.4870    7.0540 C.ar  601  HEM601      0.0000
     25  C4C       22.5050   34.4730    5.6820 C.ar  601  HEM601      0.0000
     26  CMC       20.5780   35.9500    8.5620 C.3   601  HEM601      0.0000
     27  CAC       22.4180   33.4470    8.1090 C.2   601  HEM601      0.0000
     28  CBC       23.6860   33.0700    8.2440 C.2   601  HEM601      0.0000
     29  C1D       23.8050   33.5930    3.7990 C.2   601  HEM601      0.0000
     30  C2D       24.9210   32.8470    3.2850 C.2   601  HEM601      0.0000
     31  C3D       25.0520   33.2390    1.8200 C.2   601  HEM601      0.0000
     32  C4D       24.0100   34.2060    1.5990 C.2   601  HEM601      0.0000
     33  CMD       25.7990   31.8390    4.0450 C.3   601  HEM601      0.0000
     34  CAD       26.1080   32.7660    0.8020 C.3   601  HEM601      0.0000
     35  CBD       27.1740   33.8680    0.8050 C.3   601  HEM601      0.0000
     36  CGD       28.3050   33.6820   -0.1890 C.2   601  HEM601      0.0000
     37  O1D       28.4360   32.6120   -0.8350 O.co2 601  HEM601      0.0000
     38  O2D       29.0980   34.6470   -0.3290 O.co2 601  HEM601      0.0000
     39  NA        22.0930   36.4280    1.0600 N.ar  601  HEM601      0.0000
     40  NB        20.7270   37.5060    3.3450 N.2   601  HEM601      0.0000
     41  NC        21.9480   35.5640    5.0690 N.ar  601  HEM601      0.0000
     42  ND        23.2880   34.3790    2.7830 N.2   601  HEM601      0.0000
     43 FE         21.9770   35.9520    3.0930 Fe    601  HEM601      0.0000
@<TRIPOS>BOND
     1    13    12   ar
     2    14    12   ar
     3    12    11    1
     4    10    11    1
     5    10     6    1
     6     9     7    1
     7     6     7   ar
     8     6     5   ar
     9     7     8   ar
    10    37    36   ar
    11    38    36   ar
    12    36    35    1
    13     5     1    2
    14     5    39   ar
    15     1    32    1
    16     8     2    2
    17     8    39   ar
    18    34    35    1
    19    34    31    1
    20     2    15    1
    21    39    43    1
    22    32    31    1
    23    32    42    2
    24    31    30    2
    25    19    16    1
    26    15    16    1
    27    15    40    2
    28    42    43    1
    29    42    29    1
    30    16    17    2
    31    43    40    1
    32    43    41    1
    33    30    29    1
    34    30    33    1
    35    40    18    1
    36    29     4    2
    37    17    18    1
    38    17    20    1
    39    18     3    2
    40    41    25   ar
    41    41    22   ar
    42     4    25    1
    43    20    21    2
    44    25    24   ar
    45     3    22    1
    46    22    23   ar
    47    24    23   ar
    48    24    27    1
    49    23    26    1
    50    27    28    2
