@<TRIPOS>MOLECULE
3ntg_D72_A_1.pdb
 24 25 0 0 0
SMALL
GASTEIGER

@<TRIPOS>ATOM
      1  C1        24.6830   21.2580   17.0520 C.ar  701  D72701      0.0175
      2  C2        27.0260   22.6270   16.5220 C.ar  701  D72701      0.1262
      3  C3        25.8920   20.7180   17.4390 C.ar  701  D72701      0.0359
      4  C4        24.6660   22.4920   16.4330 C.ar  701  D72701      0.0926
      5  C5        25.8180   23.1820   16.1510 C.ar  701  D72701      0.1624
      6  C6        27.0590   21.4030   17.1610 C.ar  701  D72701      0.1526
      7  C7        26.0050   19.4020   18.0360 C.2   701  D72701      0.0091
      8 CL8        23.2060   23.2380   15.9420 Cl    701  D72701     -0.0791
      9  O9        25.6730   24.4170   15.5180 O.3   701  D72701     -0.4737
     10  O10       28.3180   20.9120   17.5050 O.3   701  D72701     -0.4647
     11  C11       27.1910   19.0690   18.5350 C.2   701  D72701      0.1055
     12  C12       27.3200   17.6270   18.9790 C.2   701  D72701      0.3875
     13  C13       28.3190   20.0310   18.6400 C.3   701  D72701      0.2885
     14  C14       28.3410   20.7370   20.0050 C.3   701  D72701      0.4385
     15  O15       28.5000   17.1820   18.9710 O.co2 701  D72701     -0.2408
     16  O16       26.2570   16.9950   19.2030 O.co2 701  D72701     -0.2408
     17  C17       26.4710   24.4290   14.3350 C.3   701  D72701      0.2054
     18  C18       25.6490   24.8110   13.1350 C.3   701  D72701      0.0438
     19  C19       24.9560   23.5680   12.6470 C.3   701  D72701      0.0038
     20  C20       26.5260   25.3050   12.0140 C.3   701  D72701      0.0038
     21  F21       28.4780   19.8440   21.0200 F     701  D72701     -0.1661
     22  F22       27.2190   21.4330   20.3250 F     701  D72701     -0.1661
     23  F23       29.4060   21.5790   20.1130 F     701  D72701     -0.1661
     24 CL24       28.5050   23.4420   16.1920 Cl    701  D72701     -0.0759
@<TRIPOS>BOND
     1    20    18    1
     2    19    18    1
     3    18    17    1
     4    17     9    1
     5     9     5    1
     6     8     4    1
     7     5     4   ar
     8     5     2   ar
     9    24     2    1
    10     4     1   ar
    11     2     6   ar
    12     1     3   ar
    13     6     3   ar
    14     6    10    1
    15     3     7    1
    16    10    13    1
    17     7    11    2
    18    11    13    1
    19    11    12    1
    20    13    14    1
    21    15    12   ar
    22    12    16   ar
    23    14    23    1
    24    14    22    1
    25    14    21    1
