@<TRIPOS>MOLECULE
3nth_III_C_1.pdb
 49 48 0 0 0
SMALL
GASTEIGER

@<TRIPOS>ATOM
      1  N         24.1690  -12.0500   -2.0990 N.3    10  ALA10      -0.1231
      2  CA        23.9560  -12.5530   -0.7010 C.3    10  ALA10       0.1694
      3  C         22.9260  -11.7020   -0.0030 C.2    10  ALA10       0.2592
      4  O         22.2100  -10.9490   -0.6490 O.2    10  ALA10      -0.2718
      5  CB        25.2530  -12.5100    0.0910 C.3    10  ALA10       0.0304
      6  N         22.8770  -11.7750    1.3290 N.am   11  ARG11      -0.1966
      7  CA        21.8840  -10.9810    2.0090 C.3    11  ARG11       0.1729
      8  C         22.0220  -10.6930    3.4890 C.2    11  ARG11       0.2617
      9  O         21.6890  -11.5230    4.3390 O.2    11  ARG11      -0.2715
     10  CB        20.5140  -11.5790    1.7510 C.3    11  ARG11       0.0348
     11  CG        19.4780  -10.5290    1.4570 C.3    11  ARG11       0.0492
     12  CD        20.1020   -9.1760    1.2160 C.3    11  ARG11       0.2205
     13  NE        19.4410   -8.4560    0.1320 N.pl3  11  ARG11      -0.0865
     14  CZ        19.9210   -7.3490   -0.4290 C.cat  11  ARG11       0.5346
     15  NH1       21.0680   -6.8300   -0.0010 N.pl3  11  ARG11       0.1354
     16  NH2       19.2700   -6.7770   -1.4370 N.pl3  11  ARG11       0.1354
     17  N         22.4810   -9.4790    3.7810 N.am   12  GLY12      -0.1940
     18  CA        22.6450   -9.0560    5.1520 C.3    12  GLY12       0.2014
     19  C         23.5730  -10.0210    5.8310 C.2    12  GLY12       0.2639
     20  O         23.3230  -10.4350    6.9590 O.2    12  GLY12      -0.2714
     21  N         24.6530  -10.3730    5.1390 N.am   13  ARG13      -0.1963
     22  CA        25.6200  -11.3080    5.6840 C.3    13  ARG13       0.1732
     23  CB        26.0620  -12.2900    4.6010 C.3    13  ARG13       0.0348
     24  CG        25.1530  -13.5090    4.4530 C.3    13  ARG13       0.0492
     25  CD        25.2290  -14.4440    5.6650 C.3    13  ARG13       0.2203
     26  NE        24.4040  -15.6450    5.5020 N.pl3  13  ARG13      -0.0923
     27  CZ        24.1850  -16.5530    6.4550 C.cat  13  ARG13       0.4545
     28  NH1       24.7280  -16.4010    7.6500 N.pl3  13  ARG13      -0.0883
     29  CQ1       24.0910  -16.9970    8.8280 C.3    13  ARG13       0.2668
     30  NH2       23.4200  -17.6210    6.2240 N.pl3  13  ARG13      -0.0883
     31  CQ2       22.8770  -17.9080    4.8820 C.3    13  ARG13       0.2668
     32  C         26.8380  -10.6930    6.3800 C.2    13  ARG13       0.2656
     33  O         26.8990  -10.6780    7.6070 O.2    13  ARG13      -0.2711
     34  N         27.8150  -10.1940    5.6350 N.am   14  GLY14      -0.1716
     35  CA        28.9640   -9.6380    6.3220 C.2    14  GLY14       0.1480
     36  C         30.0600   -9.0330    5.4790 C.2    14  GLY14       0.2821
     37  O         30.4210   -9.5660    4.4280 O.2    14  GLY14      -0.2669
     38  N         30.5930   -7.9130    5.9640 N.am   15  ARG15      -0.1907
     39  CA        31.6640   -7.1840    5.2880 C.3    15  ARG15       0.1982
     40  C         32.6510   -6.6230    6.3090 C.2    15  ARG15       0.3842
     41  O         32.8650   -5.3940    6.2960 O.co2  15  ARG15      -0.2437
     42  CB        31.0780   -6.0320    4.4690 C.3    15  ARG15       0.0370
     43  CG        31.5820   -5.9630    3.0400 C.3    15  ARG15       0.0493
     44  CD        31.1690   -7.1980    2.2550 C.3    15  ARG15       0.2205
     45  NE        29.7400   -7.4800    2.3850 N.pl3  15  ARG15      -0.0865
     46  CZ        28.7700   -6.6560    2.0000 C.cat  15  ARG15       0.5346
     47  NH1       29.0660   -5.4850    1.4540 N.pl3  15  ARG15       0.1354
     48  NH2       27.4990   -7.0010    2.1660 N.pl3  15  ARG15       0.1354
     49  OXT       33.1980   -7.4120    7.1090 O.co2  15  ARG15      -0.2437
@<TRIPOS>BOND
     1     1     2    1
     2    16    14    1
     3     2     3    1
     4     2     5    1
     5     4     3    2
     6    14    15    1
     7    14    13    2
     8     3     6   am
     9    13    12    1
    10    12    11    1
    11     6     7    1
    12    47    46    1
    13    11    10    1
    14    10     7    1
    15    46    48    1
    16    46    45    2
    17     7     8    1
    18    44    45    1
    19    44    43    1
    20    43    42    1
    21     8    17   am
    22     8     9    2
    23    17    18    1
    24    37    36    2
    25    24    23    1
    26    24    25    1
    27    42    39    1
    28    23    22    1
    29    31    30    1
    30    21    22    1
    31    21    19   am
    32    18    19    1
    33    39    38    1
    34    39    40    1
    35    36    38   am
    36    36    35    1
    37    26    25    1
    38    26    27    1
    39    34    35    2
    40    34    32    1
    41    22    32    1
    42    19    20    2
    43    30    27    2
    44    41    40   ar
    45    40    49   ar
    46    32    33    2
    47    27    28    1
    48    28    29    1
