@<TRIPOS>MOLECULE
3ntl_IHP_A_1.pdb
 36 36 0 0 0
SMALL
GASTEIGER

@<TRIPOS>ATOM
      1  C1       -17.4250   24.3160    2.4380 C.3   550  IHP550      0.1863
      2  C2       -18.3580   23.0450    2.4580 C.3   550  IHP550      0.1863
      3  C3       -19.8720   23.1220    2.0170 C.3   550  IHP550      0.1863
      4  C4       -19.9190   23.8720    0.6490 C.3   550  IHP550      0.1863
      5  C5       -18.5860   24.6090    0.1930 C.3   550  IHP550      0.1863
      6  C6       -17.6570   25.2990    1.2420 C.3   550  IHP550      0.1863
      7  O11      -17.4480   24.8500    3.7910 O.3   550  IHP550     -0.2675
      8  P1       -16.3690   25.6850    4.6980 P.3   550  IHP550      0.5327
      9  O21      -16.8040   27.1080    4.3950 O.3   550  IHP550     -0.1145
     10  O31      -14.9460   25.3530    4.2170 O.2   550  IHP550     -0.2224
     11  O41      -16.6160   25.3760    6.1470 O.3   550  IHP550     -0.1145
     12  O12      -17.6420   21.9570    1.8760 O.3   550  IHP550     -0.2675
     13  P2       -16.6220   22.1110    0.6430 P.3   550  IHP550      0.5327
     14  O22      -15.6080   21.0360    0.8590 O.3   550  IHP550     -0.1145
     15  O32      -17.5820   21.8650   -0.5210 O.2   550  IHP550     -0.2224
     16  O42      -15.9570   23.4680    0.6970 O.3   550  IHP550     -0.1145
     17  O13      -20.6790   21.8320    2.0420 O.3   550  IHP550     -0.2675
     18  P3       -21.6610   20.9100    3.0150 P.3   550  IHP550      0.5327
     19  O23      -22.7860   21.7050    3.6060 O.3   550  IHP550     -0.1145
     20  O33      -20.7190   20.2810    3.9960 O.3   550  IHP550     -0.1145
     21  O43      -22.1930   19.7410    2.1980 O.2   550  IHP550     -0.2224
     22  O14      -21.0810   24.7370    0.5860 O.3   550  IHP550     -0.2675
     23  P4       -22.5930   24.2420    0.2550 P.3   550  IHP550      0.5327
     24  O24      -22.9590   23.3170    1.3990 O.3   550  IHP550     -0.1145
     25  O34      -22.4590   23.5580   -1.0900 O.2   550  IHP550     -0.2224
     26  O44      -23.4340   25.5390    0.2200 O.3   550  IHP550     -0.1145
     27  O15      -18.6960   25.4470   -0.9890 O.3   550  IHP550     -0.2675
     28  P5       -19.7120   26.7060   -1.3150 P.3   550  IHP550      0.5327
     29  O25      -21.0990   26.0820   -1.3720 O.3   550  IHP550     -0.1145
     30  O35      -19.5300   27.7100   -0.2010 O.3   550  IHP550     -0.1145
     31  O45      -19.2700   27.1190   -2.7270 O.2   550  IHP550     -0.2224
     32  O16      -16.3830   25.7430    0.6210 O.3   550  IHP550     -0.2675
     33  P6       -15.8930   27.2620    0.1160 P.3   550  IHP550      0.5327
     34  O26      -14.3910   27.4130    0.3150 O.3   550  IHP550     -0.1145
     35  O36      -16.7260   28.2160    0.9760 O.3   550  IHP550     -0.1145
     36  O46      -16.1780   27.2620   -1.3760 O.2   550  IHP550     -0.2224
@<TRIPOS>BOND
     1    31    28    2
     2    36    33    2
     3    29    28    1
     4    28    27    1
     5    28    30    1
     6    25    23    2
     7    27     5    1
     8    15    13    2
     9    33    34    1
    10    33    32    1
    11    33    35    1
    12     5     4    1
    13     5     6    1
    14    26    23    1
    15    23    22    1
    16    23    24    1
    17    22     4    1
    18    32     6    1
    19    13    16    1
    20    13    14    1
    21    13    12    1
    22     4     3    1
    23     6     1    1
    24    12     2    1
    25     3    17    1
    26     3     2    1
    27    17    18    1
    28    21    18    2
    29     1     2    1
    30     1     7    1
    31    18    19    1
    32    18    20    1
    33     7     8    1
    34    10     8    2
    35     9     8    1
    36     8    11    1
