@<TRIPOS>MOLECULE
3ntp_RZD_A_1.pdb
 31 33 0 0 0
SMALL
GASTEIGER

@<TRIPOS>ATOM
      1  P         -6.2450   46.7980   79.9890 P.3   164  RZD164      0.5326
      2  C1        -5.9970   40.9080   80.0760 C.3   164  RZD164      0.1560
      3  N1        -5.4850   41.4860   81.3320 N.pl3 164  RZD164     -0.2986
      4  O1        -7.9590   39.7820   79.4240 O.2   164  RZD164     -0.2715
      5  C2        -4.5720   40.5280   81.9730 C.2   164  RZD164      0.0571
      6  N2        -8.0820   41.0680   81.2650 N.am  164  RZD164     -0.2037
      7  O2        -5.8100   43.3180   85.4150 O.2   164  RZD164     -0.2733
      8  C3        -4.3250   39.3850   80.9970 C.2   164  RZD164     -0.0081
      9  N3       -11.3790   38.0530   84.3860 N.2   164  RZD164     -0.2442
     10  C4        -5.2270   39.6240   79.7950 C.3   164  RZD164      0.0565
     11  N4        -5.1520   43.5470   83.2810 N.am  164  RZD164     -0.2028
     12  C5        -4.7950   42.7580   81.0810 C.3   164  RZD164      0.1154
     13  C6        -7.4380   40.5390   80.2300 C.2   164  RZD164      0.2597
     14  C7        -9.4770   40.8480   81.6320 C.3   164  RZD164      0.1199
     15  C8        -9.4730   40.9970   83.1520 C.3   164  RZD164      0.0514
     16  C9        -5.4820   43.8570   81.8920 C.3   164  RZD164      0.1450
     17  C10       -4.8430   45.2160   81.6190 C.3   164  RZD164      0.1770
     18  C11       -6.0710   43.5820   84.2460 C.2   164  RZD164      0.2419
     19  C12       -7.4500   43.9750   83.8080 C.3   164  RZD164      0.0964
     20  O1P       -6.3510   46.8270   78.4830 O.2   164  RZD164     -0.2224
     21  C21      -10.0500   39.7710   83.8230 C.2   164  RZD164     -0.0001
     22  C22      -11.2470   39.1340   83.5470 C.2   164  RZD164      0.0946
     23  C23      -10.2900   37.9690   85.1960 C.2   164  RZD164      0.0804
     24  C24       -9.4160   38.9980   84.9080 C.2   164  RZD164      0.0113
     25  C25       -8.2010   39.1760   85.5780 C.2   164  RZD164     -0.0202
     26  C26       -7.9110   38.2300   86.5820 C.3   164  RZD164      0.0521
     27  C27       -8.8020   37.1860   86.8710 C.2   164  RZD164     -0.0199
     28  C28      -10.0080   37.0370   86.1830 C.2   164  RZD164      0.0148
     29  O2P       -5.6180   48.0430   80.5720 O.3   164  RZD164     -0.1145
     30  O3P       -7.4830   46.2920   80.6850 O.3   164  RZD164     -0.1145
     31  O4P       -5.1580   45.6400   80.2900 O.3   164  RZD164     -0.2683
@<TRIPOS>BOND
     1    20     1    2
     2     4    13    2
     3    10     2    1
     4    10     8    1
     5     1    31    1
     6     1    29    1
     7     1    30    1
     8     2    13    1
     9     2     3    1
    10    13     6   am
    11    31    17    1
    12     8     5    2
    13    12     3    1
    14    12    16    1
    15     6    14    1
    16     3     5    1
    17    17    16    1
    18    14    15    1
    19    16    11    1
    20    15    21    1
    21    11    18   am
    22    22    21    2
    23    22     9    1
    24    19    18    1
    25    21    24    1
    26    18     7    2
    27     9    23    2
    28    24    23    1
    29    24    25    2
    30    23    28    1
    31    25    26    1
    32    28    27    2
    33    26    27    1
