@<TRIPOS>MOLECULE
3ntq_NAD_A_1.pdb
 44 48 0 0 0
SMALL
GASTEIGER

@<TRIPOS>ATOM
      1  PA       -61.8130  -11.6860   19.0910 P.3   400  NAD400      0.2189
      2  O1A      -62.4480  -11.1560   17.8480 O.2   400  NAD400     -0.5170
      3  O2A      -62.5190  -11.2860   20.3340 O.3   400  NAD400     -0.4371
      4  O5B      -61.7480  -13.2850   18.9740 O.3   400  NAD400     -0.3112
      5  C5B      -60.8650  -14.0720   19.7500 C.3   400  NAD400      0.1813
      6  C4B      -61.3100  -15.5270   19.5980 C.3   400  NAD400      0.1821
      7  O4B      -60.5250  -16.3780   20.4270 O.3   400  NAD400     -0.3135
      8  C3B      -62.7650  -15.6660   20.0550 C.3   400  NAD400      0.2184
      9  O3B      -63.5100  -16.5260   19.2030 O.3   400  NAD400     -0.2174
     10  C2B      -62.6450  -16.2100   21.4680 C.3   400  NAD400      0.2570
     11  O2B      -63.8080  -16.9420   21.8000 O.3   400  NAD400     -0.2130
     12  C1B      -61.3550  -17.0440   21.3810 C.3   400  NAD400      0.3186
     13  N9A      -60.6490  -17.3260   22.6670 N.pl3 400  NAD400     -0.1439
     14  C8A      -60.6750  -16.5960   23.8410 C.3   400  NAD400      0.3377
     15  N7A      -59.8900  -17.2110   24.7710 N.2   400  NAD400     -0.2095
     16  C5A      -59.3450  -18.3370   24.2190 C.2   400  NAD400      0.2526
     17  C6A      -58.4680  -19.3350   24.7030 C.2   400  NAD400      0.4393
     18  N6A      -58.0010  -19.3320   25.9560 N.pl3 400  NAD400      0.2180
     19  N1A      -58.0900  -20.3720   23.8660 N.2   400  NAD400      0.0021
     20  C2A      -58.5710  -20.4320   22.5650 C.3   400  NAD400      0.5254
     21  N3A      -59.4340  -19.4530   22.0900 N.2   400  NAD400     -0.0055
     22  C4A      -59.8220  -18.4180   22.8940 C.2   400  NAD400      0.3518
     23  O3       -60.2550  -11.2410   19.2150 O.3   400  NAD400     -0.2703
     24  PN       -59.3790  -10.6400   17.9890 P.3   400  NAD400      0.2189
     25  O1N      -59.1980  -11.7040   16.9720 O.2   400  NAD400     -0.5170
     26  O2N      -60.0070   -9.3630   17.5670 O.3   400  NAD400     -0.4371
     27  O5D      -57.9570  -10.2720   18.6850 O.3   400  NAD400     -0.3112
     28  C5D      -57.0710  -11.1890   19.3190 C.3   400  NAD400      0.1813
     29  C4D      -55.9010  -10.4950   20.0560 C.3   400  NAD400      0.1799
     30  O4D      -55.0210   -9.7970   19.1810 O.3   400  NAD400     -0.3327
     31  C3D      -56.3190   -9.4930   21.1360 C.3   400  NAD400      0.2158
     32  O3D      -55.5340   -9.7080   22.2930 O.3   400  NAD400     -0.2175
     33  C2D      -56.0320   -8.1250   20.5300 C.3   400  NAD400      0.2309
     34  O2D      -55.7800   -7.1030   21.4800 O.3   400  NAD400     -0.2158
     35  C1D      -54.8650   -8.4290   19.5820 C.3   400  NAD400      0.2263
     36  N1N      -54.7840   -7.5140   18.4090 N.pl3 400  NAD400     -0.2787
     37  C2N      -53.5530   -7.0430   18.0130 C.3   400  NAD400      0.1244
     38  C3N      -53.4490   -6.1860   16.9060 C.2   400  NAD400      0.0544
     39  C7N      -52.1150   -5.6560   16.4450 C.2   400  NAD400      0.2818
     40  O7N      -52.1230   -4.6610   15.4380 O.2   400  NAD400     -0.2670
     41  N7N      -50.9820   -6.1530   16.9720 N.am  400  NAD400     -0.0839
     42  C4N      -54.6000   -5.8100   16.2040 C.2   400  NAD400      0.0033
     43  C5N      -55.8480   -6.2860   16.6080 C.2   400  NAD400      0.0157
     44  C6N      -55.9190   -7.1380   17.7100 C.2   400  NAD400      0.0633
@<TRIPOS>BOND
     1    40    39    2
     2    42    43    1
     3    42    38    2
     4    39    38    1
     5    39    41   am
     6    43    44    2
     7    38    37    1
     8    25    24    2
     9    26    24    1
    10    44    36    1
    11     2     1    2
    12    24    27    1
    13    24    23    1
    14    37    36    1
    15    36    35    1
    16    27    28    1
    17     4     1    1
    18     4     5    1
    19     1    23    1
    20     1     3    1
    21    30    35    1
    22    30    29    1
    23     9     8    1
    24    28    29    1
    25    35    33    1
    26     6     5    1
    27     6     8    1
    28     6     7    1
    29     8    10    1
    30    29    31    1
    31     7    12    1
    32    33    31    1
    33    33    34    1
    34    31    32    1
    35    12    10    1
    36    12    13    1
    37    10    11    1
    38    21    20    1
    39    21    22    2
    40    20    19    1
    41    13    22    1
    42    13    14    1
    43    22    16    1
    44    14    15    1
    45    19    17    2
    46    16    17    1
    47    16    15    2
    48    17    18    1
