@<TRIPOS>MOLECULE
3ntr_NAD_A_1.pdb
 44 48 0 0 0
SMALL
GASTEIGER

@<TRIPOS>ATOM
      1  PA       -11.8710   19.1890  -61.3220 P.3   400  NAD400      0.2189
      2  O1A      -11.4550   17.8750  -61.8990 O.3   400  NAD400     -0.4371
      3  O2A      -11.5090   20.3450  -62.1820 O.2   400  NAD400     -0.5170
      4  O5B      -13.4590   19.1000  -61.0730 O.3   400  NAD400     -0.3112
      5  C5B      -14.2460   20.1280  -60.5040 C.3   400  NAD400      0.1813
      6  C4B      -15.7210   19.8060  -60.7880 C.3   400  NAD400      0.1821
      7  O4B      -16.5560   20.5770  -59.9370 O.3   400  NAD400     -0.3135
      8  C3B      -16.1360   20.1410  -62.2250 C.3   400  NAD400      0.2184
      9  O3B      -16.9620   19.1250  -62.7790 O.3   400  NAD400     -0.2174
     10  C2B      -16.8520   21.4830  -62.1040 C.3   400  NAD400      0.2570
     11  O2B      -17.8250   21.6440  -63.1210 O.3   400  NAD400     -0.2130
     12  C1B      -17.4370   21.4190  -60.6840 C.3   400  NAD400      0.3186
     13  N9A      -17.7140   22.7070  -59.9700 N.pl3 400  NAD400     -0.1439
     14  C8A      -16.9000   23.8180  -59.8700 C.3   400  NAD400      0.3377
     15  N7A      -17.5050   24.7550  -59.0880 N.2   400  NAD400     -0.2095
     16  C5A      -18.7080   24.2700  -58.6670 C.2   400  NAD400      0.2526
     17  C6A      -19.7350   24.7990  -57.8500 C.2   400  NAD400      0.4393
     18  N6A      -19.6590   26.0200  -57.3030 N.pl3 400  NAD400      0.2180
     19  N1A      -20.8680   24.0310  -57.6080 N.2   400  NAD400      0.0021
     20  C2A      -20.9900   22.7600  -58.1580 C.3   400  NAD400      0.5254
     21  N3A      -19.9760   22.2480  -58.9550 N.2   400  NAD400     -0.0055
     22  C4A      -18.8490   22.9790  -59.2170 C.2   400  NAD400      0.3518
     23  O3       -11.2550   19.4190  -59.8400 O.3   400  NAD400     -0.2703
     24  PN       -10.8050   18.2180  -58.8460 P.3   400  NAD400      0.2189
     25  O1N      -11.9760   17.3280  -58.6020 O.3   400  NAD400     -0.4371
     26  O2N       -9.5340   17.6460  -59.3550 O.2   400  NAD400     -0.5170
     27  O5D      -10.4260   19.0100  -57.4880 O.3   400  NAD400     -0.3112
     28  C5D      -11.3520   19.7410  -56.7040 C.3   400  NAD400      0.1813
     29  C4D      -10.6380   20.4300  -55.5360 C.3   400  NAD400      0.1799
     30  O4D       -9.9600   19.4860  -54.7290 O.3   400  NAD400     -0.3327
     31  C3D       -9.5670   21.4250  -55.9860 C.3   400  NAD400      0.2158
     32  O3D       -9.5610   22.5210  -55.0850 O.3   400  NAD400     -0.2175
     33  C2D       -8.2680   20.6330  -55.9100 C.3   400  NAD400      0.2309
     34  O2D       -7.1000   21.4310  -55.8320 O.3   400  NAD400     -0.2158
     35  C1D       -8.5590   19.7800  -54.6730 C.3   400  NAD400      0.2263
     36  N1N       -7.7390   18.5480  -54.4940 N.pl3 400  NAD400     -0.2787
     37  C2N       -7.3460   18.2210  -53.2150 C.3   400  NAD400      0.1244
     38  C3N       -6.6080   17.0560  -52.9780 C.2   400  NAD400      0.0544
     39  C7N       -6.1850   16.6900  -51.5780 C.2   400  NAD400      0.2818
     40  O7N       -5.4930   15.4690  -51.3890 O.2   400  NAD400     -0.2670
     41  N7N       -6.5210   17.5040  -50.5630 N.am  400  NAD400     -0.0839
     42  C4N       -6.2690   16.2200  -54.0510 C.2   400  NAD400      0.0033
     43  C5N       -6.6690   16.5500  -55.3490 C.2   400  NAD400      0.0157
     44  C6N       -7.4070   17.7180  -55.5530 C.2   400  NAD400      0.0633
@<TRIPOS>BOND
     1    11    10    1
     2     9     8    1
     3     8    10    1
     4     8     6    1
     5     3     1    2
     6    10    12    1
     7     2     1    1
     8     1     4    1
     9     1    23    1
    10     4     5    1
    11     6     5    1
    12     6     7    1
    13    12    13    1
    14    12     7    1
    15    13    14    1
    16    13    22    1
    17    14    15    1
    18    23    24    1
    19    26    24    2
    20    22    21    2
    21    22    16    1
    22    15    16    2
    23    21    20    1
    24    24    25    1
    25    24    27    1
    26    16    17    1
    27    20    19    1
    28    17    19    2
    29    17    18    1
    30    27    28    1
    31    28    29    1
    32    31    33    1
    33    31    29    1
    34    31    32    1
    35    33    34    1
    36    33    35    1
    37    44    43    2
    38    44    36    1
    39    29    30    1
    40    43    42    1
    41    30    35    1
    42    35    36    1
    43    36    37    1
    44    42    38    2
    45    37    38    1
    46    38    39    1
    47    39    40    2
    48    39    41   am
