@<TRIPOS>MOLECULE
3ntr_INS_A_1.pdb
 12 12 0 0 0
SMALL
GASTEIGER

@<TRIPOS>ATOM
      1  C1        -1.2870   17.9320  -55.4480 C.3   801  INS801      0.2175
      2  C2         0.1820   17.8000  -55.9340 C.3   801  INS801      0.2175
      3  C3         0.3150   17.5900  -57.4510 C.3   801  INS801      0.2175
      4  C4        -0.6120   18.5130  -58.2590 C.3   801  INS801      0.2175
      5  C5        -2.0490   18.5740  -57.7290 C.3   801  INS801      0.2175
      6  C6        -2.1040   18.9580  -56.2580 C.3   801  INS801      0.2175
      7  O1        -1.4050   18.1120  -54.0120 O.3   801  INS801     -0.2175
      8  O2         0.9630   18.9610  -55.5890 O.3   801  INS801     -0.2175
      9  O3         1.6810   17.7970  -57.8360 O.3   801  INS801     -0.2175
     10  O4        -0.6410   18.1110  -59.6400 O.3   801  INS801     -0.2175
     11  O5        -2.8220   19.5040  -58.4850 O.3   801  INS801     -0.2175
     12  O6        -3.4780   19.0710  -55.8270 O.3   801  INS801     -0.2175
@<TRIPOS>BOND
     1    10     4    1
     2    11     5    1
     3     4     5    1
     4     4     3    1
     5     9     3    1
     6     5     6    1
     7     3     2    1
     8     6    12    1
     9     6     1    1
    10     2     8    1
    11     2     1    1
    12     1     7    1
