@<TRIPOS>MOLECULE
3ntu_ANP_A_1.pdb
 31 33 0 0 0
SMALL
GASTEIGER

@<TRIPOS>ATOM
      1  PG        27.5930   60.5690   -8.0760 P.3   401  ANP401      0.4884
      2  O1G       28.9120   61.0430   -7.8030 O.3   401  ANP401     -0.1240
      3  O2G       27.0590   60.0800   -6.7860 O.3   401  ANP401     -0.1240
      4  O3G       27.0580   61.7790   -8.6620 O.2   401  ANP401     -0.2331
      5  PB        28.1510   57.8640   -9.0050 P.3   401  ANP401      0.4669
      6  O1B       27.5670   57.3780   -7.7340 O.3   401  ANP401     -0.1253
      7  O2B       29.5620   57.7150   -8.8930 O.2   401  ANP401     -0.2351
      8  N3B       27.9540   59.4400   -9.2310 N.3   401  ANP401     -0.0163
      9  PA        26.6280   56.0520  -10.4400 P.3   401  ANP401      0.2220
     10  O1A       27.0200   54.8540   -9.5900 O.3   401  ANP401     -0.4370
     11  O2A       25.3280   56.6220  -10.0440 O.2   401  ANP401     -0.5170
     12  O3A       27.7300   57.1450  -10.3640 O.3   401  ANP401     -0.2360
     13  O5'       26.6470   55.5490  -11.9520 O.3   401  ANP401     -0.3111
     14  C5'       25.8970   56.2390  -13.0660 C.3   401  ANP401      0.1813
     15  C4'       26.2850   55.6120  -14.2090 C.3   401  ANP401      0.1821
     16  O4'       25.8670   54.1930  -14.0640 O.3   401  ANP401     -0.3135
     17  C3'       25.3760   56.0760  -15.3880 C.3   401  ANP401      0.2184
     18  O3'       25.5890   57.3470  -15.8040 O.3   401  ANP401     -0.2174
     19  C2'       25.3090   54.8380  -16.3320 C.3   401  ANP401      0.2570
     20  O2'       26.6500   54.9640  -17.0420 O.3   401  ANP401     -0.2130
     21  C1'       25.5130   53.6410  -15.3690 C.3   401  ANP401      0.3186
     22  N9        24.2330   53.0670  -15.2330 N.pl3 401  ANP401     -0.1439
     23  C8        23.2590   53.3400  -14.2620 C.3   401  ANP401      0.3377
     24  N7        22.1920   52.6220  -14.4850 N.2   401  ANP401     -0.2095
     25  C5        22.4100   51.8660  -15.5800 C.2   401  ANP401      0.2526
     26  C6        21.6410   50.9350  -16.2870 C.2   401  ANP401      0.4393
     27  N6        20.3870   50.6300  -15.8960 N.pl3 401  ANP401      0.2180
     28  N1        22.1850   50.3350  -17.4060 N.2   401  ANP401      0.0021
     29  C2        23.4800   50.6310  -17.8480 C.3   401  ANP401      0.5254
     30  N3        24.2650   51.5400  -17.1810 N.2   401  ANP401     -0.0055
     31  C4        23.6730   52.1280  -16.0510 C.2   401  ANP401      0.3518
@<TRIPOS>BOND
     1    29    28    1
     2    29    30    1
     3    28    26    2
     4    30    31    2
     5    20    19    1
     6    19    17    1
     7    19    21    1
     8    26    27    1
     9    26    25    1
    10    31    25    1
    11    31    22    1
    12    18    17    1
    13    25    24    2
    14    17    15    1
    15    21    22    1
    16    21    16    1
    17    22    23    1
    18    24    23    1
    19    15    16    1
    20    15    14    1
    21    14    13    1
    22    13     9    1
    23     9    12    1
    24     9    11    2
    25     9    10    1
    26    12     5    1
    27     8     5    1
    28     8     1    1
    29     5     7    2
    30     5     6    1
    31     4     1    2
    32     1     2    1
    33     1     3    1
