@<TRIPOS>MOLECULE
3nty_5P3_A_1.pdb
 17 18 0 0 0
SMALL
GASTEIGER

@<TRIPOS>ATOM
      1  C1         5.9630   -4.9000   17.7230 C.ar  350  5P3350      0.1194
      2  C2         6.0070   -4.8580   16.3260 C.ar  350  5P3350      0.0099
      3  C3         5.4260   -5.8470   15.5460 C.ar  350  5P3350      0.0013
      4  C4         4.7670   -6.8890   16.2250 C.ar  350  5P3350      0.0146
      5  C5         4.6880   -6.9150   17.6120 C.ar  350  5P3350      0.0967
      6  C6         5.2830   -5.9330   18.3790 C.ar  350  5P3350      0.2124
      7  C7         6.5730   -3.7760   18.5770 C.2   350  5P3350      0.3909
      8  O8         7.2170   -2.8320   18.0120 O.co2 350  5P3350     -0.2404
      9  O9         6.3090   -3.8370   19.8020 O.co2 350  5P3350     -0.2404
     10  O10        5.1910   -5.9540   19.7500 O.3   350  5P3350     -0.2854
     11 CL11        3.8570   -8.2170   18.3900 Cl    350  5P3350     -0.0789
     12  C12        5.5420   -5.9470   14.1290 C.ar  350  5P3350      0.0000
     13  C13        4.5560   -6.5420   13.2830 C.ar  350  5P3350      0.0000
     14  C14        4.8280   -6.6730   11.9310 C.ar  350  5P3350      0.0000
     15  C15        6.0370   -6.2760   11.3970 C.ar  350  5P3350      0.0000
     16  C16        7.0390   -5.7780   12.2230 C.ar  350  5P3350      0.0000
     17  C17        6.7490   -5.5800   13.5670 C.ar  350  5P3350      0.0000
@<TRIPOS>BOND
     1    15    14   ar
     2    15    16   ar
     3    14    13   ar
     4    16    17   ar
     5    13    12   ar
     6    17    12   ar
     7    12     3    1
     8     3     4   ar
     9     3     2   ar
    10     4     5   ar
    11     2     1   ar
    12     5     6   ar
    13     5    11    1
    14     1     6   ar
    15     1     7    1
    16     8     7   ar
    17     6    10    1
    18     7     9   ar
