@<TRIPOS>MOLECULE
3nty_NAP_A_1.pdb
 48 52 0 0 0
SMALL
GASTEIGER

@<TRIPOS>ATOM
      1  PA         9.1340   -6.9820   27.7320 P.3   351  NAP351      0.2189
      2  O1A       10.0760   -8.0210   27.2250 O.2   351  NAP351     -0.5170
      3  O2A        9.7080   -5.6780   28.1680 O.3   351  NAP351     -0.4371
      4  O5B        8.2900   -7.6210   28.9160 O.3   351  NAP351     -0.3112
      5  C5B        7.4650   -8.7370   28.6930 C.3   351  NAP351      0.1813
      6  C4B        6.5130   -8.9980   29.8920 C.3   351  NAP351      0.1820
      7  O4B        7.2410   -8.9850   31.0790 O.3   351  NAP351     -0.3136
      8  C3B        5.4860   -7.8930   29.9980 C.3   351  NAP351      0.2157
      9  O3B        4.2890   -8.4050   29.4170 O.3   351  NAP351     -0.2175
     10  C2B        5.3240   -7.6020   31.4630 C.3   351  NAP351      0.2314
     11  O2B        3.9840   -7.9400   31.8710 O.3   351  NAP351     -0.2630
     12  C1B        6.3840   -8.5090   32.1140 C.3   351  NAP351      0.3158
     13  N9A        7.2080   -7.8440   33.1640 N.pl3 351  NAP351     -0.1439
     14  C8A        7.6310   -6.5330   33.1900 C.3   351  NAP351      0.3377
     15  N7A        8.2840   -6.3120   34.3370 N.2   351  NAP351     -0.2095
     16  C5A        8.2830   -7.5220   35.0320 C.2   351  NAP351      0.2526
     17  C6A        8.7680   -7.9950   36.2820 C.2   351  NAP351      0.4393
     18  N6A        9.4940   -7.2640   37.1610 N.pl3 351  NAP351      0.2180
     19  N1A        8.5830   -9.2960   36.6610 N.2   351  NAP351      0.0021
     20  C2A        7.8860  -10.1470   35.8910 C.3   351  NAP351      0.5254
     21  N3A        7.4200   -9.7420   34.6980 N.2   351  NAP351     -0.0055
     22  C4A        7.6120   -8.4480   34.2670 C.2   351  NAP351      0.3518
     23  O3         7.9080   -6.6060   26.7230 O.3   351  NAP351     -0.2703
     24  PN         7.8440   -6.3300   25.1100 P.3   351  NAP351      0.2189
     25  O1N        6.6260   -5.4540   25.0170 O.3   351  NAP351     -0.4371
     26  O2N        7.8950   -7.6240   24.3390 O.2   351  NAP351     -0.5170
     27  O5D        9.1170   -5.4010   24.8790 O.3   351  NAP351     -0.3112
     28  C5D        9.1830   -4.1340   25.5480 C.3   351  NAP351      0.1813
     29  C4D        9.0540   -2.9380   24.5990 C.3   351  NAP351      0.1799
     30  O4D        9.9490   -2.9310   23.4780 O.3   351  NAP351     -0.3327
     31  C3D        7.7020   -2.9520   23.8900 C.3   351  NAP351      0.2158
     32  O3D        6.5770   -2.6490   24.7530 O.3   351  NAP351     -0.2175
     33  C2D        7.9090   -1.9280   22.7930 C.3   351  NAP351      0.2309
     34  O2D        7.8620   -0.6150   23.3960 O.3   351  NAP351     -0.2158
     35  C1D        9.3350   -2.2960   22.3520 C.3   351  NAP351      0.2263
     36  N1N        9.3350   -3.2640   21.2550 N.pl3 351  NAP351     -0.2787
     37  C2N        9.7260   -2.8710   20.0270 C.3   351  NAP351      0.1244
     38  C3N        9.7250   -3.7350   18.9400 C.2   351  NAP351      0.0544
     39  C7N       10.1800   -3.2540   17.5410 C.2   351  NAP351      0.2818
     40  O7N        9.8310   -3.8960   16.5160 O.2   351  NAP351     -0.2670
     41  N7N       10.9960   -2.1700   17.4320 N.am  351  NAP351     -0.0839
     42  C4N        9.3220   -5.0680   19.1940 C.2   351  NAP351      0.0033
     43  C5N        8.9040   -5.5000   20.4540 C.2   351  NAP351      0.0157
     44  C6N        8.9720   -4.5810   21.5060 C.2   351  NAP351      0.0633
     45  P2B        3.1730   -6.9070   32.9110 P.3   351  NAP351      0.5328
     46  O1X        4.1570   -6.4230   33.9820 O.3   351  NAP351     -0.1145
     47  O2X        1.9780   -7.7040   33.3430 O.3   351  NAP351     -0.1145
     48  O3X        2.7380   -5.7540   32.0400 O.2   351  NAP351     -0.2224
@<TRIPOS>BOND
     1    40    39    2
     2    41    39   am
     3    39    38    1
     4    38    42    2
     5    38    37    1
     6    42    43    1
     7    37    36    1
     8    43    44    2
     9    36    44    1
    10    36    35    1
    11    35    33    1
    12    35    30    1
    13    33    34    1
    14    33    31    1
    15    30    29    1
    16    31    29    1
    17    31    32    1
    18    26    24    2
    19    29    28    1
    20    27    24    1
    21    27    28    1
    22    25    24    1
    23    24    23    1
    24    23     1    1
    25     2     1    2
    26     1     3    1
    27     1     4    1
    28     5     4    1
    29     5     6    1
    30     9     8    1
    31     6     8    1
    32     6     7    1
    33     8    10    1
    34     7    12    1
    35    10    11    1
    36    10    12    1
    37    11    45    1
    38    48    45    2
    39    12    13    1
    40    45    47    1
    41    45    46    1
    42    13    14    1
    43    13    22    1
    44    14    15    1
    45    22    21    2
    46    22    16    1
    47    15    16    2
    48    21    20    1
    49    16    17    1
    50    20    19    1
    51    17    19    2
    52    17    18    1
