@<TRIPOS>MOLECULE
3ntz_NDP_A_1.pdb
 48 52 0 0 0
SMALL
GASTEIGER

@<TRIPOS>ATOM
      1  PA        -6.1830   22.4210   35.9830 P.3   188  NDP188      0.2189
      2  O1A       -5.2750   21.4640   35.2980 O.2   188  NDP188     -0.5170
      3  O2A       -6.0650   23.8500   35.7430 O.3   188  NDP188     -0.4371
      4  O5B       -6.0570   22.1420   37.5700 O.3   188  NDP188     -0.3112
      5  C5B       -6.6100   23.0730   38.4460 C.3   188  NDP188      0.1813
      6  C4B       -5.8500   22.9050   39.8000 C.3   188  NDP188      0.1820
      7  O4B       -4.5040   23.3890   39.4570 O.3   188  NDP188     -0.3136
      8  C3B       -6.3910   23.9750   40.7530 C.3   188  NDP188      0.2157
      9  O3B       -7.3940   23.4270   41.6340 O.3   188  NDP188     -0.2175
     10  C2B       -5.1020   24.2420   41.4330 C.3   188  NDP188      0.2314
     11  O2B       -4.6540   23.3940   42.4100 O.3   188  NDP188     -0.2630
     12  C1B       -4.0360   24.4220   40.4350 C.3   188  NDP188      0.3158
     13  N9A       -3.8620   25.6740   39.7090 N.pl3 188  NDP188     -0.1439
     14  C8A       -4.3890   25.9750   38.4880 C.3   188  NDP188      0.3377
     15  N7A       -3.8720   27.1270   38.1250 N.2   188  NDP188     -0.2095
     16  C5A       -3.0080   27.5500   39.1230 C.2   188  NDP188      0.2526
     17  C6A       -2.2390   28.6720   39.2670 C.2   188  NDP188      0.4393
     18  N6A       -2.1930   29.6420   38.3200 N.pl3 188  NDP188      0.2180
     19  N1A       -1.4760   28.7460   40.3620 N.2   188  NDP188      0.0021
     20  C2A       -1.4580   27.7690   41.2900 C.3   188  NDP188      0.5254
     21  N3A       -2.2330   26.6640   41.1950 N.2   188  NDP188     -0.0055
     22  C4A       -3.0020   26.6220   40.0950 C.2   188  NDP188      0.3518
     23  O3        -7.7590   21.9100   35.8230 O.3   188  NDP188     -0.2703
     24  PN        -8.8260   21.9320   34.6250 P.3   188  NDP188      0.2189
     25  O1N       -9.9870   21.2340   35.2620 O.3   188  NDP188     -0.4371
     26  O2N       -8.9330   23.2710   34.0700 O.2   188  NDP188     -0.5170
     27  O5D       -8.2290   21.0700   33.6000 O.3   188  NDP188     -0.3112
     28  C5D       -8.1210   19.5920   33.5650 C.3   188  NDP188      0.1813
     29  C4D       -9.1830   19.0810   32.5330 C.3   188  NDP188      0.1799
     30  O4D       -8.8510   19.6240   31.2090 O.3   188  NDP188     -0.3327
     31  C3D       -9.1620   17.5970   32.4020 C.3   188  NDP188      0.2158
     32  O3D      -10.4560   17.1280   31.8540 O.3   188  NDP188     -0.2175
     33  C2D       -8.1400   17.3890   31.2550 C.3   188  NDP188      0.2309
     34  O2D       -8.3250   16.1440   30.5140 O.3   188  NDP188     -0.2158
     35  C1D       -8.5000   18.5920   30.3510 C.3   188  NDP188      0.2263
     36  N1N       -7.3100   19.1230   29.5720 N.pl3 188  NDP188     -0.2787
     37  C2N       -7.4990   19.0370   28.2130 C.3   188  NDP188      0.1244
     38  C3N       -6.5360   19.6240   27.3790 C.2   188  NDP188      0.0544
     39  C7N       -6.6890   19.6300   25.8950 C.2   188  NDP188      0.2818
     40  O7N       -5.8040   20.1510   25.2020 O.2   188  NDP188     -0.2670
     41  N7N       -7.8760   19.1750   25.4130 N.am  188  NDP188     -0.0839
     42  C4N       -5.3740   20.2320   27.9380 C.2   188  NDP188      0.0033
     43  C5N       -5.2290   20.2240   29.3570 C.2   188  NDP188      0.0157
     44  C6N       -6.1890   19.6900   30.1860 C.2   188  NDP188      0.0633
     45  P2B       -4.7620   23.6360   43.9990 P.3   188  NDP188      0.5328
     46  O1X       -4.1730   24.9780   44.2870 O.2   188  NDP188     -0.2224
     47  O2X       -3.9590   22.5260   44.5310 O.3   188  NDP188     -0.1145
     48  O3X       -6.1840   23.6210   44.4010 O.3   188  NDP188     -0.1145
@<TRIPOS>BOND
     1    40    39    2
     2    41    39   am
     3    39    38    1
     4    38    42    2
     5    38    37    1
     6    42    43    1
     7    37    36    1
     8    43    44    2
     9    36    44    1
    10    36    35    1
    11    35    30    1
    12    35    33    1
    13    34    33    1
    14    30    29    1
    15    33    31    1
    16    32    31    1
    17    31    29    1
    18    29    28    1
    19    28    27    1
    20    27    24    1
    21    26    24    2
    22    24    25    1
    23    24    23    1
    24     2     1    2
    25     3     1    1
    26    23     1    1
    27     1     4    1
    28     4     5    1
    29    15    14    1
    30    15    16    2
    31    18    17    1
    32     5     6    1
    33    14    13    1
    34    16    17    1
    35    16    22    1
    36    17    19    2
    37     7     6    1
    38     7    12    1
    39    13    22    1
    40    13    12    1
    41     6     8    1
    42    22    21    2
    43    19    20    1
    44    12    10    1
    45     8    10    1
    46     8     9    1
    47    21    20    1
    48    10    11    1
    49    11    45    1
    50    45    46    2
    51    45    48    1
    52    45    47    1
