@<TRIPOS>MOLECULE
3ntz_3TZ_A_1.pdb
 35 38 0 0 0
SMALL
GASTEIGER

@<TRIPOS>ATOM
      1  C          4.0750   12.3550   25.2230 C.2   187  3TZ187      0.3842
      2  N          1.6960   11.8360   25.4420 N.am  187  3TZ187     -0.1918
      3  O          5.2020   11.8130   25.2320 O.co2 187  3TZ187     -0.2437
      4  N1        -3.5840   17.6850   22.5600 N.2   187  3TZ187     -0.2537
      5  C2        -3.1400   18.9390   22.4310 C.1   187  3TZ187      0.2517
      6  N3        -2.7630   19.7170   23.4370 N.2   187  3TZ187     -0.3216
      7  C4        -2.7630   19.1180   24.6710 C.2   187  3TZ187      0.1725
      8  C5        -3.1800   17.7810   24.9180 C.3   187  3TZ187      0.2006
      9  C6        -3.6790   17.1450   23.7850 C.1   187  3TZ187      0.2023
     10  O6        -4.1910   15.9260   23.6900 O.2   187  3TZ187     -0.2126
     11  CA         3.0150   11.2330   25.2560 C.3   187  3TZ187      0.1986
     12  CB         3.1720   10.5520   23.8840 C.3   187  3TZ187      0.0451
     13  CD         2.1420    8.6380   22.8000 C.2   187  3TZ187      0.3649
     14  CG         1.9110   10.1210   23.1060 C.3   187  3TZ187      0.1164
     15  NAA       -3.0540   19.5190   21.1760 N.pl3 187  3TZ187     -0.0226
     16  OAD        1.0390   10.7680   27.3600 O.2   187  3TZ187     -0.2684
     17  CAH       -2.5280   17.3540   29.0700 C.ar  187  3TZ187      0.0002
     18  CAI       -3.0840   16.2860   28.4230 C.ar  187  3TZ187     -0.0028
     19  CAJ       -1.5240   13.6660   24.6540 C.ar  187  3TZ187      0.0162
     20  CAK       -2.3910   13.2190   26.9630 C.ar  187  3TZ187      0.0162
     21  CAL       -0.4340   12.9230   24.9350 C.ar  187  3TZ187      0.0059
     22  CAM       -1.2660   12.4870   27.2370 C.ar  187  3TZ187      0.0059
     23  CAN       -2.1930   18.5430   28.4060 C.ar  187  3TZ187      0.0063
     24  CAQ       -4.0550   15.0030   26.6190 C.3   187  3TZ187      0.1383
     25  NAT       -3.5330   14.4920   25.4340 N.pl3 187  3TZ187     -0.2328
     26  SAV       -2.3290   19.9390   26.0380 S.3   187  3TZ187     -0.0577
     27  CAY        0.8940   11.5890   26.4370 C.2   187  3TZ187      0.2652
     28  CBA       -2.4720   13.7980   25.6860 C.ar  187  3TZ187      0.0657
     29  CBB       -0.3290   12.3710   26.2140 C.ar  187  3TZ187      0.0551
     30  CBD       -3.3900   16.2860   27.0680 C.ar  187  3TZ187     -0.0027
     31  CBE       -2.5300   18.4930   27.0540 C.ar  187  3TZ187      0.0288
     32  CBG       -3.0410   17.4350   26.3020 C.ar  187  3TZ187      0.0051
     33  OE1        2.2090    7.8240   23.7910 O.co2 187  3TZ187     -0.2457
     34  OE2        2.3730    8.3850   21.5840 O.co2 187  3TZ187     -0.2457
     35  OXT        3.7580   13.6210   25.0600 O.co2 187  3TZ187     -0.2437
@<TRIPOS>BOND
     1    15     5    1
     2    34    13   ar
     3     5     4    2
     4     5     6    2
     5     4     9    2
     6    13    14    1
     7    13    33   ar
     8    14    12    1
     9     6     7    2
    10    10     9    2
    11     9     8    1
    12    12    11    1
    13    19    21   ar
    14    19    28   ar
    15     7     8    1
    16     7    26    1
    17     8    32    1
    18    21    29   ar
    19    35     1   ar
    20     1     3   ar
    21     1    11    1
    22    11     2    1
    23    25    28    1
    24    25    24    1
    25     2    27   am
    26    28    20   ar
    27    26    31    1
    28    29    27    1
    29    29    22   ar
    30    32    31   ar
    31    32    30   ar
    32    27    16    2
    33    24    30    1
    34    20    22   ar
    35    31    23   ar
    36    30    18   ar
    37    23    17   ar
    38    18    17   ar
