@<TRIPOS>MOLECULE
3nu0_3TU_A_1.pdb
 36 40 0 0 0
SMALL
GASTEIGER

@<TRIPOS>ATOM
      1  C        -12.7150   -2.7170   -0.8000 C.2   188  3TU188      0.3825
      2  N        -10.9200   -4.4890   -0.4270 N.am  188  3TU188     -0.2636
      3  O        -13.6570   -3.5530   -0.8790 O.co2 188  3TU188     -0.2438
      4  N1       -13.6640  -12.0240   -3.4060 N.2   188  3TU188     -0.2537
      5  C2       -15.0040  -12.2290   -3.5430 C.1   188  3TU188      0.2517
      6  N3       -15.8120  -12.3070   -2.4990 N.2   188  3TU188     -0.3216
      7  C4       -15.2540  -12.0370   -1.2730 C.2   188  3TU188      0.1725
      8  C5       -13.8800  -11.6830   -1.0500 C.3   188  3TU188      0.2006
      9  C6       -13.0960  -11.8380   -2.1810 C.1   188  3TU188      0.2023
     10  O6       -11.7640  -11.7670   -2.2500 O.2   188  3TU188     -0.2126
     11  CA       -11.3790   -3.2800   -1.1710 C.3   188  3TU188      0.1800
     12  CB       -10.8300   -3.0690   -2.5210 C.3   188  3TU188      0.0433
     13  CD        -8.5330   -2.2280   -2.2440 C.2   188  3TU188      0.3649
     14  CG        -9.3560   -3.4250   -2.8150 C.3   188  3TU188      0.1163
     15  NAA      -15.4650  -12.4200   -4.7900 N.pl3 188  3TU188     -0.0226
     16  OAD       -9.0170   -3.7830    0.5060 O.2   188  3TU188     -0.2699
     17  CAH      -13.8040  -10.8250    3.1170 C.ar  188  3TU188      0.0002
     18  CAI       -9.0040   -8.1110    1.6470 C.ar  188  3TU188      0.0162
     19  CAJ      -12.6000  -10.7550    2.4080 C.ar  188  3TU188     -0.0028
     20  CAK       -8.8140   -6.7280    1.4770 C.ar  188  3TU188      0.0056
     21  CAL      -15.0070  -11.2250    2.4600 C.ar  188  3TU188      0.0063
     22  CAM      -10.9960   -8.1230    0.2530 C.ar  188  3TU188      0.0136
     23  CAP      -11.1210  -10.9830    0.4420 C.3   188  3TU188      0.1383
     24  CAQ      -11.6010   -5.7870   -0.6730 C.3   188  3TU188      0.1211
     25  NAT      -10.1750  -10.1330    1.2440 N.pl3 188  3TU188     -0.2328
     26  SAU      -16.1840  -12.0430    0.1110 S.3   188  3TU188     -0.0577
     27  CAX       -9.8550   -4.6880    0.3270 C.2   188  3TU188      0.2494
     28  CAZ      -10.0810   -8.8200    1.0580 C.ar  188  3TU188      0.0654
     29  CBB      -10.7980   -6.7170    0.1110 C.ar  188  3TU188      0.0033
     30  CBC      -12.4660  -11.0600    1.0690 C.ar  188  3TU188     -0.0027
     31  CBD       -9.7370   -6.0310    0.7220 C.ar  188  3TU188      0.0513
     32  CBE      -14.8220  -11.4810    1.0690 C.ar  188  3TU188      0.0288
     33  CBH      -13.6590  -11.4290    0.3240 C.ar  188  3TU188      0.0051
     34  OE1       -9.1530   -1.1360   -2.1850 O.co2 188  3TU188     -0.2457
     35  OE2       -7.3150   -2.4060   -1.9310 O.co2 188  3TU188     -0.2457
     36  OXT      -12.8920   -1.5190   -0.4980 O.co2 188  3TU188     -0.2438
@<TRIPOS>BOND
     1    15     5    1
     2     5     4    2
     3     5     6    2
     4     4     9    2
     5    14    12    1
     6    14    13    1
     7    12    11    1
     8     6     7    2
     9    10     9    2
    10    13    34   ar
    11    13    35   ar
    12     9     8    1
    13     7     8    1
    14     7    26    1
    15    11     1    1
    16    11     2    1
    17     8    33    1
    18     3     1   ar
    19     1    36   ar
    20    24     2    1
    21    24    29    1
    22     2    27   am
    23    26    32    1
    24    29    22   ar
    25    29    31   ar
    26    22    28   ar
    27    33    30   ar
    28    33    32   ar
    29    27    16    2
    30    27    31    1
    31    23    30    1
    32    23    25    1
    33    31    20   ar
    34    28    25    1
    35    28    18   ar
    36    30    19   ar
    37    32    21   ar
    38    20    18   ar
    39    19    17   ar
    40    21    17   ar
