@<TRIPOS>MOLECULE
3nu0_NDP_A_1.pdb
 48 52 0 0 0
SMALL
GASTEIGER

@<TRIPOS>ATOM
      1  PA       -16.3610  -16.5940   10.0920 P.3   187  NDP187      0.2189
      2  O1A      -15.9600  -15.4210    9.4300 O.2   187  NDP187     -0.5170
      3  O2A      -17.6250  -17.1770    9.8170 O.3   187  NDP187     -0.4371
      4  O5B      -16.2120  -16.3220   11.6760 O.3   187  NDP187     -0.3112
      5  C5B      -16.6740  -17.3070   12.5940 C.3   187  NDP187      0.1813
      6  C4B      -16.9490  -16.5540   13.9010 C.3   187  NDP187      0.1820
      7  O4B      -18.0320  -15.6290   13.5820 O.3   187  NDP187     -0.3136
      8  C3B      -17.6370  -17.5010   14.8930 C.3   187  NDP187      0.2157
      9  O3B      -16.6770  -18.1360   15.7640 O.3   187  NDP187     -0.2175
     10  C2B      -18.5200  -16.5360   15.6000 C.3   187  NDP187      0.2314
     11  O2B      -17.9520  -15.7170   16.5320 O.3   187  NDP187     -0.2630
     12  C1B      -19.1130  -15.6660   14.5790 C.3   187  NDP187      0.3158
     13  N9A      -20.2760  -16.2140   13.8550 N.pl3 187  NDP187     -0.1439
     14  C8A      -20.2970  -16.8110   12.6160 C.3   187  NDP187      0.3377
     15  N7A      -21.5840  -16.9300   12.2620 N.2   187  NDP187     -0.2095
     16  C5A      -22.3500  -16.4120   13.2660 C.2   187  NDP187      0.2526
     17  C6A      -23.7100  -16.2970   13.3860 C.2   187  NDP187      0.4393
     18  N6A      -24.5670  -16.7400   12.4290 N.pl3 187  NDP187      0.2180
     19  N1A      -24.1950  -15.6430   14.4920 N.2   187  NDP187      0.0021
     20  C2A      -23.3120  -15.1890   15.4210 C.3   187  NDP187      0.5254
     21  N3A      -21.9570  -15.3140   15.3180 N.2   187  NDP187     -0.0055
     22  C4A      -21.5100  -15.9440   14.2190 C.2   187  NDP187      0.3518
     23  O3       -15.1670  -17.7170    9.9220 O.3   187  NDP187     -0.2703
     24  PN       -14.6440  -18.6650    8.7420 P.3   187  NDP187      0.2189
     25  O1N      -13.4650  -19.3590    9.3380 O.3   187  NDP187     -0.4371
     26  O2N      -15.7310  -19.4080    8.1770 O.2   187  NDP187     -0.5170
     27  O5D      -14.1950  -17.6820    7.7180 O.3   187  NDP187     -0.3112
     28  C5D      -12.9210  -16.9370    7.7150 C.3   187  NDP187      0.1813
     29  C4D      -11.9320  -17.5650    6.6420 C.3   187  NDP187      0.1799
     30  O4D      -12.6440  -17.5430    5.3200 O.3   187  NDP187     -0.3327
     31  C3D      -10.7050  -16.7710    6.4890 C.3   187  NDP187      0.2158
     32  O3D       -9.6780  -17.6360    5.9070 O.3   187  NDP187     -0.2175
     33  C2D      -11.0480  -15.7790    5.3500 C.3   187  NDP187      0.2309
     34  O2D       -9.9200  -15.3110    4.6340 O.3   187  NDP187     -0.2158
     35  C1D      -11.9820  -16.6990    4.4800 C.3   187  NDP187      0.2263
     36  N1N      -12.9840  -15.9580    3.6310 N.pl3 187  NDP187     -0.2787
     37  C2N      -12.8260  -16.0310    2.3060 C.3   187  NDP187      0.1244
     38  C3N      -13.7930  -15.5020    1.4990 C.2   187  NDP187      0.0544
     39  C7N      -13.7340  -15.6550    0.0200 C.2   187  NDP187      0.2818
     40  O7N      -14.6050  -15.1350   -0.7220 O.2   187  NDP187     -0.2670
     41  N7N      -12.8030  -16.4290   -0.5150 N.am  187  NDP187     -0.0839
     42  C4N      -14.8980  -14.7980    2.0230 C.2   187  NDP187      0.0033
     43  C5N      -14.9430  -14.6950    3.4680 C.2   187  NDP187      0.0157
     44  C6N      -14.0060  -15.3010    4.2620 C.2   187  NDP187      0.0633
     45  P2B      -18.0820  -15.9380   18.1480 P.3   187  NDP187      0.5328
     46  O1X      -19.5790  -16.0760   18.4730 O.2   187  NDP187     -0.2224
     47  O2X      -17.4740  -14.7160   18.6570 O.3   187  NDP187     -0.1145
     48  O3X      -17.3460  -17.1600   18.4840 O.3   187  NDP187     -0.1145
@<TRIPOS>BOND
     1    40    39    2
     2    41    39   am
     3    39    38    1
     4    38    42    2
     5    38    37    1
     6    42    43    1
     7    37    36    1
     8    43    44    2
     9    36    44    1
    10    36    35    1
    11    35    30    1
    12    35    33    1
    13    34    33    1
    14    30    29    1
    15    33    31    1
    16    32    31    1
    17    31    29    1
    18    29    28    1
    19    28    27    1
    20    27    24    1
    21    26    24    2
    22    24    25    1
    23    24    23    1
    24     2     1    2
    25     3     1    1
    26    23     1    1
    27     1     4    1
    28     4     5    1
    29    15    14    1
    30    15    16    2
    31    18    17    1
    32     5     6    1
    33    14    13    1
    34    16    17    1
    35    16    22    1
    36    17    19    2
    37     7     6    1
    38     7    12    1
    39    13    22    1
    40    13    12    1
    41     6     8    1
    42    22    21    2
    43    19    20    1
    44    12    10    1
    45     8    10    1
    46     8     9    1
    47    21    20    1
    48    10    11    1
    49    11    45    1
    50    45    46    2
    51    45    48    1
    52    45    47    1
