@<TRIPOS>MOLECULE
3nu1_HEM_A_1.pdb
 43 50 0 0 0
SMALL
GASTEIGER

@<TRIPOS>ATOM
      1  CHA       10.1980   51.4550   10.0120 C.2   301  HEM301      0.0000
      2  CHB        6.3510   52.9420    7.4650 C.2   301  HEM301      0.0000
      3  CHC        3.9930   48.8980    8.7710 C.2   301  HEM301      0.0000
      4  CHD        7.8450   47.4020   11.3830 C.2   301  HEM301      0.0000
      5  C1A        9.3720   52.1720    9.1740 C.ar  301  HEM301      0.0000
      6  C2A        9.7370   53.3850    8.4770 C.ar  301  HEM301      0.0000
      7  C3A        8.6840   53.7970    7.7680 C.ar  301  HEM301      0.0000
      8  C4A        7.6090   52.8610    7.9970 C.ar  301  HEM301      0.0000
      9  CMA        8.6180   55.0460    6.8630 C.3   301  HEM301      0.0000
     10  CAA       11.1270   54.0490    8.5270 C.3   301  HEM301      0.0000
     11  CBA       12.0210   53.1800    7.6430 C.3   301  HEM301      0.0000
     12  CGA       13.4190   53.1350    8.2040 C.2   301  HEM301      0.0000
     13  O1A       14.2380   52.3110    7.7130 O.co2 301  HEM301      0.0000
     14  O2A       13.7100   53.9200    9.1460 O.co2 301  HEM301      0.0000
     15  C1B        5.4000   51.9620    7.5710 C.2   301  HEM301      0.0000
     16  C2B        4.1460   51.9430    6.8590 C.2   301  HEM301      0.0000
     17  C3B        3.4920   50.8310    7.2060 C.2   301  HEM301      0.0000
     18  C4B        4.3030   50.1030    8.1660 C.2   301  HEM301      0.0000
     19  CMB        3.6740   53.0200    5.8580 C.3   301  HEM301      0.0000
     20  CAB        2.1100   50.4140    6.6630 C.2   301  HEM301      0.0000
     21  CBB        1.6320   49.1960    6.9210 C.2   301  HEM301      0.0000
     22  C1C        4.8290   48.1530    9.5900 C.ar  301  HEM301      0.0000
     23  C2C        4.4970   46.8880   10.2170 C.ar  301  HEM301      0.0000
     24  C3C        5.5550   46.4690   10.9260 C.ar  301  HEM301      0.0000
     25  C4C        6.6030   47.4620   10.7880 C.ar  301  HEM301      0.0000
     26  CMC        3.1530   46.1400   10.0680 C.3   301  HEM301      0.0000
     27  CAC        5.6320   45.1600   11.7540 C.2   301  HEM301      0.0000
     28  CBC        6.7840   44.7200   12.2760 C.2   301  HEM301      0.0000
     29  C1D        8.8200   48.3680   11.3290 C.2   301  HEM301      0.0000
     30  C2D       10.0520   48.3690   12.0880 C.2   301  HEM301      0.0000
     31  C3D       10.7900   49.6400   11.6510 C.2   301  HEM301      0.0000
     32  C4D        9.9230   50.2760   10.6770 C.2   301  HEM301      0.0000
     33  CMD       10.5360   47.3210   13.1140 C.3   301  HEM301      0.0000
     34  CAD       12.1580   50.1430   12.1680 C.3   301  HEM301      0.0000
     35  CBD       13.3050   49.7100   11.2620 C.3   301  HEM301      0.0000
     36  CGD       14.5850   50.2730   11.8320 C.2   301  HEM301      0.0000
     37  O1D       14.5240   50.9210   12.9160 O.co2 301  HEM301      0.0000
     38  O2D       15.6630   50.0740   11.2080 O.co2 301  HEM301      0.0000
     39  NA         8.0600   51.8810    8.8570 N.ar  301  HEM301      0.0000
     40  NB         5.4680   50.8310    8.3620 N.2   301  HEM301      0.0000
     41  NC         6.1280   48.4730    9.9680 N.ar  301  HEM301      0.0000
     42  ND         8.7840   49.4940   10.5140 N.2   301  HEM301      0.0000
     43 FE          7.1680   50.1000    9.3080 Fe    301  HEM301      0.0000
@<TRIPOS>BOND
     1    19    16    1
     2    20    21    2
     3    20    17    1
     4    16    17    2
     5    16    15    1
     6     9     7    1
     7    17    18    1
     8     2    15    1
     9     2     8    2
    10    15    40    2
    11    11    12    1
    12    11    10    1
    13    13    12   ar
    14     7     8   ar
    15     7     6   ar
    16     8    39   ar
    17    18    40    1
    18    18     3    2
    19    12    14   ar
    20    40    43    1
    21     6    10    1
    22     6     5   ar
    23     3    22    1
    24    39     5   ar
    25    39    43    1
    26     5     1    2
    27    43    41    1
    28    43    42    1
    29    22    41   ar
    30    22    23   ar
    31    41    25   ar
    32     1    32    1
    33    26    23    1
    34    23    24   ar
    35    42    32    2
    36    42    29    1
    37    32    31    1
    38    25    24   ar
    39    25     4    1
    40    24    27    1
    41    38    36   ar
    42    35    36    1
    43    35    34    1
    44    29     4    2
    45    29    30    1
    46    31    30    2
    47    31    34    1
    48    27    28    2
    49    36    37   ar
    50    30    33    1
