@<TRIPOS>MOLECULE
3nu3_478_B_1.pdb
 36 38 0 0 0
SMALL
GASTEIGER

@<TRIPOS>ATOM
      1  C1        12.4560   18.0160   19.7620 C.3   401  478401      0.1856
      2  C1        21.0920   26.8040   15.4030 C.3   401  478401      0.0282
      3  C2        14.4290   18.7200   20.8760 C.3   401  478401      0.0784
      4  C3        14.6150   20.5140   18.2890 C.2   401  478401      0.4211
      5  C4        13.8340   18.5760   19.4830 C.3   401  478401      0.2024
      6  C5        15.1800   22.6440   17.1740 C.3   401  478401      0.1347
      7  C6        15.6420   23.7670   18.0870 C.3   401  478401      0.1898
      8  C7        14.4840   23.1260   15.9110 C.3   401  478401      0.0508
      9  C8        14.0720   21.9840   14.9890 C.ar  401  478401     -0.0204
     10  C9        12.7980   21.4770   14.9830 C.ar  401  478401     -0.0042
     11  C10       15.0220   21.3710   14.1580 C.ar  401  478401     -0.0042
     12  C11       12.4520   20.3800   14.2270 C.ar  401  478401     -0.0003
     13  C12       14.6940   20.2900   13.3760 C.ar  401  478401     -0.0003
     14  C13       13.4110   19.8100   13.4310 C.ar  401  478401     -0.0000
     15  C14       16.7590   24.6690   17.5750 C.3   401  478401      0.1304
     16  C15       19.0180   24.3960   18.5690 C.3   401  478401      0.0958
     17  C16       18.6750   23.8240   19.9270 C.3   401  478401      0.0178
     18  C17       19.5070   25.0860   15.3930 C.2   401  478401      0.1177
     19  C18       18.7370   26.0010   14.6500 C.2   401  478401      0.0164
     20  C19       19.2680   27.1610   14.1740 C.2   401  478401     -0.0062
     21  C20       20.6050   27.4550   14.3740 C.3   401  478401      0.1141
     22  C21       21.4030   26.5730   15.1280 C.3   401  478401      0.0293
     23  C22       20.8550   25.3770   15.6600 C.2   401  478401     -0.0062
     24  C23       18.6000   22.2940   19.9200 C.3   401  478401      0.0015
     25  C24       19.6840   24.2860   20.9880 C.3   401  478401      0.0015
     26  C25       13.2970   18.3110   21.8450 C.3   401  478401      0.1461
     27  N1        14.2780   21.7450   17.9010 N.am  401  478401     -0.1675
     28  N2        18.0690   24.0060   17.5200 N.3   401  478401     -0.1529
     29  N3        21.1080   28.6900   14.0090 N.3   401  478401     -0.1281
     30  O1        13.5750   19.8880   18.8630 O.3   401  478401     -0.4346
     31  O2        15.7730   19.9990   18.1850 O.2   401  478401     -0.2246
     32  O3        14.4720   24.5600   18.4230 O.3   401  478401     -0.2197
     33  O4        17.6060   23.4010   15.1600 O.2   401  478401     -0.1528
     34  O5        19.7300   22.6620   16.2780 O.2   401  478401     -0.1528
     35  O6        12.0980   18.4530   21.0540 O.3   401  478401     -0.3498
     36  S1        18.7070   23.6850   16.0520 S.O2  401  478401      0.0630
@<TRIPOS>BOND
     1    13    14   ar
     2    13    11   ar
     3    14    12   ar
     4    29    21    1
     5    11     9   ar
     6    20    21    1
     7    20    19    2
     8    12    10   ar
     9    21     2    1
    10    19    18    1
    11    10     9   ar
    12     9     8    1
    13    22     2    1
    14    22    23    1
    15    33    36    2
    16    18    23    2
    17    18    36    1
    18     8     6    1
    19    36    34    2
    20    36    28    1
    21     6    27    1
    22     6     7    1
    23    28    15    1
    24    28    16    1
    25    15     7    1
    26    27     4   am
    27     7    32    1
    28    31     4    2
    29     4    30    1
    30    16    17    1
    31    30     5    1
    32     5     1    1
    33     5     3    1
    34     1    35    1
    35    24    17    1
    36    17    25    1
    37     3    26    1
    38    35    26    1
