@<TRIPOS>MOLECULE
3nu4_478_B_1.pdb
 35 37 0 0 0
SMALL
GASTEIGER

@<TRIPOS>ATOM
      1  C1        12.4140   18.1580   19.8240 C.3   401  478401      0.1856
      2  C2        14.3460   19.0590   20.8790 C.3   401  478401      0.0784
      3  C3        14.5170   20.7300   18.2950 C.2   401  478401      0.4211
      4  C4        13.7610   18.8090   19.4840 C.3   401  478401      0.2024
      5  C5        15.0150   22.9050   17.1380 C.3   401  478401      0.1347
      6  C6        15.4490   23.9970   18.0940 C.3   401  478401      0.1898
      7  C7        14.2540   23.3390   15.8940 C.3   401  478401      0.0508
      8  C8        13.8220   22.2310   14.9890 C.ar  401  478401     -0.0204
      9  C9        12.5230   21.7390   15.0190 C.ar  401  478401     -0.0042
     10  C10       14.7520   21.6390   14.1380 C.ar  401  478401     -0.0042
     11  C11       12.2260   20.6070   14.2360 C.ar  401  478401     -0.0003
     12  C12       14.4620   20.5580   13.3160 C.ar  401  478401     -0.0003
     13  C13       13.1790   20.0540   13.3860 C.ar  401  478401     -0.0000
     14  C14       16.5710   24.8860   17.5760 C.3   401  478401      0.1304
     15  C15       18.7870   24.6260   18.5170 C.3   401  478401      0.0958
     16  C16       18.4920   23.9600   19.8900 C.3   401  478401      0.0178
     17  C17       19.3390   25.3170   15.3460 C.ar  401  478401      0.1223
     18  C18       18.6440   26.2570   14.6090 C.ar  401  478401      0.0213
     19  C19       19.1700   27.4660   14.1590 C.ar  401  478401      0.0194
     20  C20       20.4910   27.7420   14.4800 C.ar  401  478401      0.0892
     21  C21       21.2190   26.7810   15.1570 C.ar  401  478401      0.0194
     22  C22       20.6840   25.6050   15.6650 C.ar  401  478401      0.0213
     23  C23       18.5910   22.4550   19.7440 C.3   401  478401      0.0015
     24  C24       19.5610   24.4480   20.9010 C.3   401  478401      0.0015
     25  C25       13.2710   18.5670   21.8440 C.3   401  478401      0.1461
     26  N1        14.1800   21.9600   17.8550 N.am  401  478401     -0.1675
     27  N2        17.8500   24.2330   17.4690 N.3   401  478401     -0.1529
     28  N3        21.0690   28.8790   14.0010 N.pl3 401  478401     -0.1281
     29  O1        13.4800   20.0940   18.9260 O.3   401  478401     -0.4346
     30  O2        15.6260   20.2270   18.2190 O.2   401  478401     -0.2246
     31  O3        14.3320   24.8170   18.4480 O.3   401  478401     -0.2197
     32  O4        17.4450   23.6140   15.0580 O.2   401  478401     -0.1528
     33  O5        19.5550   22.8550   16.2380 O.2   401  478401     -0.1528
     34  O6        12.0330   18.6730   21.1260 O.3   401  478401     -0.3498
     35  S1        18.5320   23.9100   16.0040 S.O2  401  478401      0.0634
@<TRIPOS>BOND
     1    12    13   ar
     2    12    10   ar
     3    13    11   ar
     4    28    20    1
     5    10     8   ar
     6    19    20   ar
     7    19    18   ar
     8    11     9   ar
     9    20    21   ar
    10    18    17   ar
    11     8     9   ar
    12     8     7    1
    13    32    35    2
    14    21    22   ar
    15    17    22   ar
    16    17    35    1
    17     7     5    1
    18    35    33    2
    19    35    27    1
    20     5    26    1
    21     5     6    1
    22    27    14    1
    23    27    15    1
    24    14     6    1
    25    26     3   am
    26     6    31    1
    27    30     3    2
    28     3    29    1
    29    15    16    1
    30    29     4    1
    31     4     1    1
    32     4     2    1
    33    23    16    1
    34     1    34    1
    35    16    24    1
    36     2    25    1
    37    34    25    1
