@<TRIPOS>MOLECULE
3nu5_478_B_1.pdb
 36 37 0 0 0
SMALL
GASTEIGER

@<TRIPOS>ATOM
      1  C1        12.2590   18.0790   19.6550 C.3   401  478401      0.1856
      2  C1        20.8590   26.9420   15.1530 C.2   401  478401      0.0151
      3  C2        14.2270   18.9110   20.7220 C.3   401  478401      0.0784
      4  C3        14.2680   20.6920   18.1470 C.2   401  478401      0.4211
      5  C4        13.5910   18.7730   19.3470 C.3   401  478401      0.2024
      6  C5        14.8880   22.8250   17.0530 C.3   401  478401      0.1347
      7  C6        15.3150   23.9780   17.9440 C.3   401  478401      0.1898
      8  C7        14.1940   23.3080   15.7640 C.3   401  478401      0.0508
      9  C8        13.7020   22.1790   14.8740 C.ar  401  478401     -0.0204
     10  C9        12.4060   21.6680   14.9230 C.ar  401  478401     -0.0042
     11  C10       14.6020   21.5360   14.0300 C.ar  401  478401     -0.0042
     12  C11       12.0540   20.6190   14.0760 C.ar  401  478401     -0.0003
     13  C12       14.2960   20.4480   13.2210 C.ar  401  478401     -0.0003
     14  C13       13.0140   19.9680   13.3370 C.ar  401  478401     -0.0000
     15  C14       16.4030   24.8650   17.3430 C.3   401  478401      0.1303
     16  C15       18.5990   24.6540   18.3040 C.3   401  478401      0.0958
     17  C16       18.3630   24.0210   19.6900 C.3   401  478401      0.0178
     18  C17       19.1580   25.3320   15.1520 C.2   401  478401      0.0960
     19  C18       18.4640   26.3220   14.4760 C.2   401  478401     -0.0045
     20  C19       19.0550   27.5090   14.0460 C.3   401  478401      0.0717
     21  C20       20.3860   27.7650   14.3370 C.2   401  478401      0.0712
     22  C21       21.0890   26.7950   15.0530 C.3   401  478401      0.0065
     23  C22       20.4660   25.6380   15.4930 C.3   401  478401      0.0463
     24  C23       18.3950   22.4820   19.6160 C.3   401  478401      0.0015
     25  C24       19.4180   24.4780   20.7050 C.3   401  478401      0.0015
     26  C25       13.1390   18.4280   21.7020 C.3   401  478401      0.1461
     27  N1        13.9610   21.9440   17.7890 N.am  401  478401     -0.1675
     28  N2        17.6870   24.2050   17.2780 N.3   401  478401     -0.1532
     29  N3        20.9780   28.8990   13.9660 N.pl3 401  478401     -0.1324
     30  O1        13.2540   20.0560   18.7630 O.3   401  478401     -0.4346
     31  O2        15.3510   20.1330   17.9320 O.2   401  478401     -0.2246
     32  O3        14.1660   24.7470   18.3090 O.3   401  478401     -0.2197
     33  O4        17.2420   23.5470   14.8720 O.2   401  478401     -0.1531
     34  O5        19.3230   22.7810   15.9720 O.2   401  478401     -0.1531
     35  O6        11.9120   18.5810   20.9540 O.3   401  478401     -0.3498
     36  S1        18.3540   23.9210   15.7970 S.O2  401  478401      0.0593
@<TRIPOS>BOND
     1    13    14   ar
     2    13    11   ar
     3    14    12   ar
     4    29    21    1
     5    11     9   ar
     6    20    21    1
     7    20    19    1
     8    12    10   ar
     9    21     2    2
    10    19    18    2
    11    33    36    2
    12     9    10   ar
    13     9     8    1
    14    22    23    1
    15    18    23    1
    16    18    36    1
    17     8     6    1
    18    36    34    2
    19    36    28    1
    20     6    27    1
    21     6     7    1
    22    28    15    1
    23    28    16    1
    24    15     7    1
    25    27     4   am
    26    31     4    2
    27     7    32    1
    28     4    30    1
    29    16    17    1
    30    30     5    1
    31     5     1    1
    32     5     3    1
    33    24    17    1
    34     1    35    1
    35    17    25    1
    36     3    26    1
    37    35    26    1
