@<TRIPOS>MOLECULE
3nu6_478_B_1.pdb
 35 37 0 0 0
SMALL
GASTEIGER

@<TRIPOS>ATOM
      1  C1       -11.9900  -24.6880  -19.3970 C.3   401  478401      0.1856
      2  C2       -13.9150  -23.8220  -20.4540 C.3   401  478401      0.0784
      3  C3       -14.1500  -22.1040  -18.0070 C.2   401  478401      0.4211
      4  C4       -13.3290  -24.0650  -19.0430 C.3   401  478401      0.2024
      5  C5       -14.8120  -19.9740  -16.9220 C.3   401  478401      0.1347
      6  C6       -15.2430  -18.8940  -17.8970 C.3   401  478401      0.1898
      7  C7       -14.1110  -19.4660  -15.6390 C.3   401  478401      0.0508
      8  C8       -13.7570  -20.5460  -14.6760 C.ar  401  478401     -0.0204
      9  C9       -12.4640  -21.0160  -14.6270 C.ar  401  478401     -0.0042
     10  C10      -14.7220  -21.1090  -13.8230 C.ar  401  478401     -0.0042
     11  C11      -12.1550  -22.0800  -13.7810 C.ar  401  478401     -0.0003
     12  C12      -14.4480  -22.1370  -12.9470 C.ar  401  478401     -0.0003
     13  C13      -13.1640  -22.6300  -13.0040 C.ar  401  478401     -0.0000
     14  C14      -16.3410  -17.9990  -17.3190 C.3   401  478401      0.1304
     15  C15      -18.5200  -18.2820  -18.3750 C.3   401  478401      0.0958
     16  C16      -18.2440  -18.9080  -19.7560 C.3   401  478401      0.0178
     17  C17      -19.1650  -17.5650  -15.1850 C.ar  401  478401      0.1223
     18  C18      -18.5000  -16.6370  -14.3990 C.ar  401  478401      0.0213
     19  C19      -19.1630  -15.4690  -14.0710 C.ar  401  478401      0.0194
     20  C20      -20.4160  -15.1460  -14.4700 C.ar  401  478401      0.0892
     21  C21      -21.1480  -16.1320  -15.1350 C.ar  401  478401      0.0194
     22  C22      -20.4640  -17.2830  -15.5600 C.ar  401  478401      0.0213
     23  C23      -18.3640  -20.4250  -19.7600 C.3   401  478401      0.0015
     24  C24      -19.3300  -18.3640  -20.7300 C.3   401  478401      0.0015
     25  C25      -12.8910  -24.3020  -21.4370 C.3   401  478401      0.1461
     26  N1       -13.8630  -20.9040  -17.5620 N.am  401  478401     -0.1675
     27  N2       -17.6260  -18.6760  -17.3080 N.3   401  478401     -0.1529
     28  N3       -21.0460  -14.0390  -14.0480 N.pl3 401  478401     -0.1281
     29  O1       -13.0710  -22.7430  -18.4930 O.3   401  478401     -0.4346
     30  O2       -15.2620  -22.6230  -17.9670 O.2   401  478401     -0.2246
     31  O3       -14.1470  -18.0060  -18.2340 O.3   401  478401     -0.2197
     32  O4       -17.1940  -19.2070  -14.8590 O.2   401  478401     -0.1528
     33  O5       -19.2940  -20.0140  -16.0470 O.2   401  478401     -0.1528
     34  O6       -11.6830  -24.1780  -20.7150 O.3   401  478401     -0.3498
     35  S1       -18.3260  -18.9540  -15.8220 S.O2  401  478401      0.0634
@<TRIPOS>BOND
     1    25    34    1
     2    25     2    1
     3    24    16    1
     4    34     1    1
     5     2     4    1
     6    23    16    1
     7    16    15    1
     8     1     4    1
     9     4    29    1
    10    29     3    1
    11    15    27    1
    12    31     6    1
    13     3    30    2
    14     3    26   am
    15     6    14    1
    16     6     5    1
    17    26     5    1
    18    14    27    1
    19    27    35    1
    20     5     7    1
    21    33    35    2
    22    35    17    1
    23    35    32    2
    24     7     8    1
    25    22    17   ar
    26    22    21   ar
    27    17    18   ar
    28    21    20   ar
    29     8     9   ar
    30     8    10   ar
    31     9    11   ar
    32    20    19   ar
    33    20    28    1
    34    18    19   ar
    35    10    12   ar
    36    11    13   ar
    37    13    12   ar
