@<TRIPOS>MOLECULE
3nu9_478_A_1.pdb
 35 37 0 0 0
SMALL
GASTEIGER

@<TRIPOS>ATOM
      1  C1        17.1050   25.3570   18.6600 C.3   401  478401      0.1856
      2  C2        15.1580   24.5540   19.8520 C.3   401  478401      0.0784
      3  C3        14.8220   22.7010   17.4170 C.2   401  478401      0.4211
      4  C4        15.7230   24.7330   18.4450 C.3   401  478401      0.2024
      5  C5        14.1860   20.5200   16.4720 C.3   401  478401      0.1347
      6  C6        13.7730   19.4420   17.4770 C.3   401  478401      0.1898
      7  C7        14.8270   19.9860   15.1780 C.3   401  478401      0.0508
      8  C8        15.1930   21.1350   14.2640 C.ar  401  478401     -0.0204
      9  C9        16.4970   21.6270   14.2470 C.ar  401  478401     -0.0042
     10  C10       14.2200   21.7130   13.4400 C.ar  401  478401     -0.0042
     11  C11       16.8420   22.6940   13.4160 C.ar  401  478401     -0.0003
     12  C12       14.5450   22.7920   12.6110 C.ar  401  478401     -0.0003
     13  C13       15.8570   23.2750   12.6040 C.ar  401  478401     -0.0000
     14  C14       12.6420   18.5160   17.0120 C.3   401  478401      0.1304
     15  C15       10.4250   19.1550   18.1220 C.3   401  478401      0.0958
     16  C16       11.0040   19.7630   19.3990 C.3   401  478401      0.0178
     17  C17        9.9340   18.1410   15.0860 C.ar  401  478401      0.1223
     18  C18       10.5890   17.1810   14.3070 C.ar  401  478401      0.0213
     19  C19        9.9470   16.0090   13.8900 C.ar  401  478401      0.0194
     20  C20        8.6350   15.7530   14.2700 C.ar  401  478401      0.0892
     21  C21        7.9550   16.7100   15.0280 C.ar  401  478401      0.0194
     22  C22        8.6080   17.8940   15.4350 C.ar  401  478401      0.0213
     23  C23       11.1940   21.2720   19.3110 C.3   401  478401      0.0015
     24  C24        9.9950   19.4420   20.4900 C.3   401  478401      0.0015
     25  C25       16.2990   24.9320   20.8000 C.3   401  478401      0.1461
     26  N1        15.0990   21.4320   17.1390 N.am  401  478401     -0.1675
     27  N2        11.3000   19.1120   16.9590 N.3   401  478401     -0.1529
     28  N3         8.0050   14.6090   13.8580 N.pl3 401  478401     -0.1281
     29  O1        15.9820   23.4470   17.8920 O.3   401  478401     -0.4346
     30  O2        13.7190   23.2350   17.3230 O.2   401  478401     -0.2246
     31  O3        14.9210   18.6190   17.7610 O.3   401  478401     -0.2197
     32  O4        11.7900   19.7810   14.6570 O.2   401  478401     -0.1528
     33  O5         9.7180   20.5240   15.6980 O.2   401  478401     -0.1528
     34  O6        17.4780   24.9720   19.9860 O.3   401  478401     -0.3498
     35  S1        10.7060   19.4960   15.5710 S.O2  401  478401      0.0634
@<TRIPOS>BOND
     1    13    12   ar
     2    13    11   ar
     3    12    10   ar
     4    11     9   ar
     5    10     8   ar
     6    28    20    1
     7    19    20   ar
     8    19    18   ar
     9     9     8   ar
    10     8     7    1
    11    20    21   ar
    12    18    17   ar
    13    32    35    2
    14    21    22   ar
    15    17    22   ar
    16    17    35    1
    17     7     5    1
    18    35    33    2
    19    35    27    1
    20     5    26    1
    21     5     6    1
    22    27    14    1
    23    27    15    1
    24    14     6    1
    25    26     3   am
    26    30     3    2
    27     3    29    1
    28     6    31    1
    29    29     4    1
    30    15    16    1
    31     4     1    1
    32     4     2    1
    33     1    34    1
    34    23    16    1
    35    16    24    1
    36     2    25    1
    37    34    25    1
