@<TRIPOS>MOLECULE
3nua_AMP_A_1.pdb
 23 25 0 0 0
SMALL
GASTEIGER

@<TRIPOS>ATOM
      1  P         19.2080  -21.3500  -18.9220 P.3   242  AMP242      0.5327
      2  O1P       18.1700  -21.3710  -17.8290 O.3   242  AMP242     -0.1145
      3  O2P       19.6340  -22.6900  -19.4750 O.3   242  AMP242     -0.1145
      4  O3P       18.8180  -20.4390  -20.0440 O.2   242  AMP242     -0.2224
      5  O5'       20.5330  -20.6560  -18.3490 O.3   242  AMP242     -0.2675
      6  C5'       20.5930  -19.2870  -17.9800 C.3   242  AMP242      0.1860
      7  C4'       22.0150  -18.9020  -17.6390 C.3   242  AMP242      0.1823
      8  O4'       22.3680  -19.4800  -16.3590 O.3   242  AMP242     -0.3135
      9  C3'       23.0680  -19.3820  -18.6300 C.3   242  AMP242      0.2184
     10  O3'       24.1540  -18.4550  -18.6720 O.3   242  AMP242     -0.2174
     11  C2'       23.5590  -20.6800  -18.0140 C.3   242  AMP242      0.2570
     12  O2'       24.8860  -21.0130  -18.3780 O.3   242  AMP242     -0.2130
     13  C1'       23.4280  -20.4020  -16.5090 C.3   242  AMP242      0.3186
     14  N9        23.0650  -21.5800  -15.7340 N.pl3 242  AMP242     -0.1439
     15  C8        21.7920  -21.9700  -15.5000 C.3   242  AMP242      0.3377
     16  N7        21.7830  -23.1110  -14.7640 N.2   242  AMP242     -0.2095
     17  C5        23.0760  -23.4600  -14.5260 C.2   242  AMP242      0.2526
     18  C6        23.8110  -24.5460  -13.8290 C.2   242  AMP242      0.4393
     19  N6        23.1510  -25.5480  -13.1870 N.pl3 242  AMP242      0.2180
     20  N1        25.1610  -24.4830  -13.8520 N.2   242  AMP242      0.0021
     21  C2        25.8470  -23.5070  -14.4750 C.3   242  AMP242      0.5254
     22  N3        25.2560  -22.4970  -15.1310 N.2   242  AMP242     -0.0055
     23  C4        23.9040  -22.4430  -15.1840 C.2   242  AMP242      0.3518
@<TRIPOS>BOND
     1     4     1    2
     2     3     1    1
     3     1     5    1
     4     1     2    1
     5    10     9    1
     6     9    11    1
     7     9     7    1
     8    12    11    1
     9     5     6    1
    10    11    13    1
    11     6     7    1
    12     7     8    1
    13    13     8    1
    14    13    14    1
    15    14    15    1
    16    14    23    1
    17    15    16    1
    18    23    22    2
    19    23    17    1
    20    22    21    1
    21    16    17    2
    22    17    18    1
    23    21    20    1
    24    20    18    2
    25    18    19    1
