@<TRIPOS>MOLECULE
3nua_ADP_A_1.pdb
 27 29 0 0 0
SMALL
GASTEIGER

@<TRIPOS>ATOM
      1  PB        27.5190  -29.1080   -8.9740 P.3   241  ADP241      0.5373
      2  O1B       27.0110  -29.5210   -7.6050 O.3   241  ADP241     -0.1143
      3  O2B       26.7990  -27.9130   -9.5130 O.3   241  ADP241     -0.1143
      4  O3B       27.6100  -30.2870   -9.9730 O.2   241  ADP241     -0.2221
      5  PA        30.2260  -27.9440   -9.4010 P.3   241  ADP241      0.2231
      6  O1A       30.9080  -28.8790  -10.3370 O.2   241  ADP241     -0.5169
      7  O2A       29.7470  -26.5990   -9.8440 O.3   241  ADP241     -0.4370
      8  O3A       29.0500  -28.7400   -8.6170 O.3   241  ADP241     -0.2261
      9  O5'       31.2380  -27.7250   -8.1770 O.3   241  ADP241     -0.3111
     10  C5'       31.1440  -26.7780   -7.1360 C.3   241  ADP241      0.1813
     11  C4'       30.2480  -27.2840   -6.0060 C.3   241  ADP241      0.1821
     12  O4'       30.7500  -26.6270   -4.8500 O.3   241  ADP241     -0.3135
     13  C3'       28.8010  -26.8470   -6.1590 C.3   241  ADP241      0.2184
     14  O3'       27.9180  -27.7800   -5.5050 O.3   241  ADP241     -0.2174
     15  C2'       28.7900  -25.5350   -5.3760 C.3   241  ADP241      0.2570
     16  O2'       27.5100  -25.1420   -4.8690 O.3   241  ADP241     -0.2130
     17  C1'       29.7550  -25.7960   -4.2470 C.3   241  ADP241      0.3186
     18  N9        30.4930  -24.5880   -3.8230 N.pl3 241  ADP241     -0.1439
     19  C8        30.8440  -23.5180   -4.5700 C.3   241  ADP241      0.3377
     20  N7        31.5800  -22.6330   -3.8510 N.2   241  ADP241     -0.2095
     21  C5        31.6950  -23.1920   -2.6070 C.2   241  ADP241      0.2526
     22  C6        32.3380  -22.8000   -1.3570 C.2   241  ADP241      0.4393
     23  N6        33.0550  -21.6430   -1.2590 N.pl3 241  ADP241      0.2180
     24  N1        32.2150  -23.6240   -0.2980 N.2   241  ADP241      0.0021
     25  C2        31.5390  -24.7900   -0.3720 C.3   241  ADP241      0.5254
     26  N3        30.9330  -25.2360   -1.4920 N.2   241  ADP241     -0.0055
     27  C4        30.9680  -24.4530   -2.5970 C.2   241  ADP241      0.3518
@<TRIPOS>BOND
     1     6     5    2
     2     4     1    2
     3     7     5    1
     4     3     1    1
     5     5     8    1
     6     5     9    1
     7     1     8    1
     8     1     2    1
     9     9    10    1
    10    10    11    1
    11    13    11    1
    12    13    14    1
    13    13    15    1
    14    11    12    1
    15    15    16    1
    16    15    17    1
    17    12    17    1
    18    19    20    1
    19    19    18    1
    20    17    18    1
    21    20    21    2
    22    18    27    1
    23    21    27    1
    24    21    22    1
    25    27    26    2
    26    26    25    1
    27    22    23    1
    28    22    24    2
    29    25    24    1
