@<TRIPOS>MOLECULE
3nuc_THP_A_1.pdb
 26 27 0 0 0
SMALL
GASTEIGER

@<TRIPOS>ATOM
      1  P2         6.3630   14.0200   20.3180 P.3   151  THP151      0.5327
      2  O4P        5.3830   14.0580   19.1940 O.2   151  THP151     -0.2224
      3  O5P        7.5720   14.8480   20.0390 O.3   151  THP151     -0.1145
      4  O6P        6.5900   12.6480   20.8010 O.3   151  THP151     -0.1145
      5  P1         4.9350   11.8080   26.1530 P.3   151  THP151      0.5326
      6  O1P        5.2950   11.7050   27.5720 O.3   151  THP151     -0.1145
      7  O2P        6.0620   11.5770   25.2460 O.2   151  THP151     -0.2224
      8  O3P        3.6380   11.2080   25.7650 O.3   151  THP151     -0.1145
      9  O5'        5.7320   14.7880   21.5260 O.3   151  THP151     -0.2675
     10  C5'        4.6700   14.3010   22.3530 C.3   151  THP151      0.1857
     11  C4'        5.1330   14.3280   23.8190 C.3   151  THP151      0.1750
     12  O4'        5.4200   15.6820   24.2000 O.3   151  THP151     -0.3327
     13  C3'        4.0220   13.9130   24.7850 C.3   151  THP151      0.1602
     14  O3'        4.6330   13.3790   25.9840 O.3   151  THP151     -0.2700
     15  C2'        3.2630   15.1840   25.0840 C.3   151  THP151      0.0867
     16  C1'        4.3690   16.2110   25.0550 C.3   151  THP151      0.2106
     17  N1         3.8790   17.5460   24.6260 N.ar  151  THP151     -0.2574
     18  C2         3.4880   18.3730   25.6320 C.ar  151  THP151      0.3322
     19  O2         3.6900   18.1500   26.8090 O.2   151  THP151     -0.2464
     20  N3         2.8820   19.5110   25.2850 N.ar  151  THP151     -0.2746
     21  C4         2.7130   19.9660   24.0030 C.ar  151  THP151      0.2584
     22  O4         2.1750   21.0560   23.8410 O.2   151  THP151     -0.2674
     23  C5         3.2120   19.0940   22.9500 C.ar  151  THP151      0.0515
     24  C5M        3.0610   19.5430   21.4660 C.3   151  THP151      0.0376
     25  C6         3.7920   17.9340   23.2930 C.ar  151  THP151      0.0823
     26  H3         2.5100   20.0740   26.0370 H     151  THP151      0.1734
@<TRIPOS>BOND
     1     2     1    2
     2     3     1    1
     3     1     4    1
     4     1     9    1
     5    24    23    1
     6     9    10    1
     7    10    11    1
     8    23    25   ar
     9    23    21   ar
    10    25    17   ar
    11    11    12    1
    12    11    13    1
    13    22    21    2
    14    21    20   ar
    15    12    16    1
    16    17    16    1
    17    17    18   ar
    18    13    15    1
    19    13    14    1
    20    16    15    1
    21     7     5    2
    22    20    18   ar
    23    20    26    1
    24    18    19    2
    25     8     5    1
    26    14     5    1
    27     5     6    1
