@<TRIPOS>MOLECULE
3nud_PHE_A_1.pdb
 12 12 0 0 0
SMALL
GASTEIGER

@<TRIPOS>ATOM
      1  N         21.7850  115.9650    3.1020 N.3   465  PHE465     -0.1205
      2  CA        20.3060  116.1770    2.9960 C.3   465  PHE465      0.1986
      3  C         19.7410  116.3940    4.3840 C.2   465  PHE465      0.3822
      4  O         20.2760  115.8590    5.3560 O.co2 465  PHE465     -0.2440
      5  CB        19.6530  114.9430    2.3830 C.3   465  PHE465      0.0569
      6  CG        20.0050  113.6800    3.0860 C.ar  465  PHE465     -0.0202
      7  CD1       19.0780  113.0430    3.8700 C.ar  465  PHE465     -0.0042
      8  CD2       21.3030  113.2180    3.0740 C.ar  465  PHE465     -0.0042
      9  CE1       19.4190  111.9080    4.5660 C.ar  465  PHE465     -0.0003
     10  CE2       21.6620  112.0960    3.7840 C.ar  465  PHE465     -0.0003
     11  CZ        20.7190  111.4200    4.5080 C.ar  465  PHE465     -0.0000
     12  OXT       18.7250  117.0630    4.5640 O.co2 465  PHE465     -0.2440
@<TRIPOS>BOND
     1     5     2    1
     2     5     6    1
     3     2     1    1
     4     2     3    1
     5     8     6   ar
     6     8    10   ar
     7     6     7   ar
     8    10    11   ar
     9     7     9   ar
    10     3    12   ar
    11     3     4   ar
    12    11     9   ar
