@<TRIPOS>MOLECULE
3nue_TRP_A_1.pdb
 15 16 0 0 0
SMALL
GASTEIGER

@<TRIPOS>ATOM
      1  N         47.7590  101.9860    3.6000 N.3   9004  TRP9004    -0.1205
      2  CA        48.9860  102.6630    4.1230 C.3   9004  TRP9004     0.1984
      3  C         48.6090  103.6840    5.1570 C.2   9004  TRP9004     0.3822
      4  O         49.4730  104.3250    5.7590 O.co2 9004  TRP9004    -0.2440
      5  CB        49.7060  103.3960    3.0160 C.3   9004  TRP9004     0.0549
      6  CG        48.8220  104.3710    2.3730 C.2   9004  TRP9004    -0.0138
      7  CD1       47.8640  104.1060    1.4310 C.2   9004  TRP9004     0.0907
      8  CD2       48.7650  105.7600    2.6230 C.3   9004  TRP9004     0.0819
      9  NE1       47.3030  105.2610    1.0050 N.2   9004  TRP9004    -0.2482
     10  CE2       47.7690  106.2860    1.7900 C.2   9004  TRP9004     0.0665
     11  CE3       49.4790  106.6240    3.4470 C.2   9004  TRP9004    -0.0164
     12  CZ2       47.4390  107.6160    1.7880 C.2   9004  TRP9004     0.0153
     13  CZ3       49.1530  107.9450    3.4380 C.2   9004  TRP9004    -0.0038
     14  CH2       48.1550  108.4360    2.6080 C.2   9004  TRP9004     0.0009
     15  OXT       47.4300  103.9320    5.3490 O.co2 9004  TRP9004    -0.2440
@<TRIPOS>BOND
     1     9     7    1
     2     9    10    2
     3     7     6    2
     4    12    10    1
     5    12    14    2
     6    10     8    1
     7     6     8    1
     8     6     5    1
     9    14    13    1
    10     8    11    1
    11     5     2    1
    12    13    11    2
    13     1     2    1
    14     2     3    1
    15     3    15   ar
    16     3     4   ar
