@<TRIPOS>MOLECULE
3nug_NAD_A_1.pdb
 44 48 0 0 0
SMALL
GASTEIGER

@<TRIPOS>ATOM
      1  PA        -2.3070  -15.0370   22.7390 P.3   251  NAD251      0.2189
      2  O1A       -2.5000  -15.4800   21.3380 O.2   251  NAD251     -0.5170
      3  O2A       -2.2710  -16.1470   23.7140 O.3   251  NAD251     -0.4371
      4  O5B       -3.4580  -13.9880   23.1050 O.3   251  NAD251     -0.3112
      5  C5B       -3.6080  -12.8420   22.3030 C.3   251  NAD251      0.1813
      6  C4B       -5.0160  -12.3050   22.4920 C.3   251  NAD251      0.1821
      7  O4B       -5.1670  -11.1560   21.6790 O.3   251  NAD251     -0.3135
      8  C3B       -6.0600  -13.3200   22.0400 C.3   251  NAD251      0.2184
      9  O3B       -7.0300  -13.4890   23.0500 O.3   251  NAD251     -0.2174
     10  C2B       -6.6950  -12.6890   20.8150 C.3   251  NAD251      0.2570
     11  O2B       -8.0750  -12.9760   20.6990 O.3   251  NAD251     -0.2130
     12  C1B       -6.4300  -11.2120   21.0550 C.3   251  NAD251      0.3186
     13  N9A       -6.4610  -10.4540   19.7940 N.pl3 251  NAD251     -0.1439
     14  C8A       -5.9200  -10.8250   18.5870 C.3   251  NAD251      0.3377
     15  N7A       -6.1970   -9.8630   17.6760 N.2   251  NAD251     -0.2095
     16  C5A       -6.9030   -8.8890   18.2980 C.2   251  NAD251      0.2526
     17  C6A       -7.4340   -7.6970   17.8410 C.2   251  NAD251      0.4393
     18  N6A       -7.5420   -7.5140   16.5330 N.pl3 251  NAD251      0.2180
     19  N1A       -8.1270   -6.8900   18.7170 N.2   251  NAD251      0.0021
     20  C2A       -8.2970   -7.2700   20.0350 C.3   251  NAD251      0.5254
     21  N3A       -7.7760   -8.4620   20.4880 N.2   251  NAD251     -0.0055
     22  C4A       -7.0870   -9.2530   19.6300 C.2   251  NAD251      0.3518
     23  O3        -0.9720  -14.1170   22.7430 O.3   251  NAD251     -0.2703
     24  PN         0.0920  -13.9490   23.9460 P.3   251  NAD251      0.2189
     25  O1N        1.1720  -14.9400   23.7220 O.2   251  NAD251     -0.5170
     26  O2N       -0.6020  -13.8860   25.2550 O.3   251  NAD251     -0.4371
     27  O5D        0.6660  -12.4810   23.6160 O.3   251  NAD251     -0.3112
     28  C5D        0.1210  -11.3050   24.1790 C.3   251  NAD251      0.1813
     29  C4D        1.0750  -10.1500   23.8640 C.3   251  NAD251      0.1799
     30  O4D        2.3910  -10.5040   24.2700 O.3   251  NAD251     -0.3327
     31  C3D        1.1450   -9.8440   22.3720 C.3   251  NAD251      0.2158
     32  O3D        1.2940   -8.4450   22.1910 O.3   251  NAD251     -0.2175
     33  C2D        2.4140  -10.5370   21.9300 C.3   251  NAD251      0.2309
     34  O2D        2.9580   -9.9100   20.7900 O.3   251  NAD251     -0.2158
     35  C1D        3.2710  -10.3320   23.1720 C.3   251  NAD251      0.2263
     36  N1N        4.3730  -11.2880   23.2780 N.pl3 251  NAD251     -0.2787
     37  C2N        4.1190  -12.6220   23.4390 C.3   251  NAD251      0.1244
     38  C3N        5.1930  -13.4950   23.5430 C.2   251  NAD251      0.0544
     39  C7N        4.9890  -14.9370   23.8660 C.2   251  NAD251      0.2818
     40  O7N        6.0970  -15.7900   23.6980 O.2   251  NAD251     -0.2670
     41  N7N        3.8000  -15.3680   24.2990 N.am  251  NAD251     -0.0839
     42  C4N        6.4980  -13.0230   23.4940 C.2   251  NAD251      0.0033
     43  C5N        6.7300  -11.6660   23.3390 C.2   251  NAD251      0.0157
     44  C6N        5.6480  -10.8050   23.2330 C.2   251  NAD251      0.0633
@<TRIPOS>BOND
     1    18    17    1
     2    15    16    2
     3    15    14    1
     4    17    16    1
     5    17    19    2
     6    16    22    1
     7    14    13    1
     8    19    20    1
     9    22    13    1
    10    22    21    2
    11    13    12    1
    12    20    21    1
    13    11    10    1
    14    34    33    1
    15    10    12    1
    16    10     8    1
    17    12     7    1
    18     2     1    2
    19     7     6    1
    20    33    31    1
    21    33    35    1
    22     8     6    1
    23     8     9    1
    24    32    31    1
    25     5     6    1
    26     5     4    1
    27    31    29    1
    28     1    23    1
    29     1     4    1
    30     1     3    1
    31    23    24    1
    32    35    36    1
    33    35    30    1
    34    44    36    1
    35    44    43    2
    36    36    37    1
    37    43    42    1
    38    37    38    1
    39    42    38    2
    40    38    39    1
    41    27    24    1
    42    27    28    1
    43    40    39    2
    44    25    24    2
    45    29    28    1
    46    29    30    1
    47    39    41   am
    48    24    26    1
