@<TRIPOS>MOLECULE
3nuj_478_B_1.pdb
 35 37 0 0 0
SMALL
GASTEIGER

@<TRIPOS>ATOM
      1  C1        16.7790   24.9520   19.2150 C.3   401  478401      0.1856
      2  C2        14.8380   24.0450   20.2910 C.3   401  478401      0.0784
      3  C3        14.7210   22.2320   17.8570 C.2   401  478401      0.4211
      4  C4        15.4520   24.2370   18.9020 C.3   401  478401      0.2024
      5  C5        14.1420   20.0510   16.8470 C.3   401  478401      0.1347
      6  C6        13.6410   18.9770   17.8070 C.3   401  478401      0.1898
      7  C7        14.8280   19.5290   15.5830 C.3   401  478401      0.0508
      8  C8        15.2270   20.6690   14.6550 C.ar  401  478401     -0.0204
      9  C9        16.5230   21.1490   14.6460 C.ar  401  478401     -0.0042
     10  C10       14.3100   21.2780   13.8150 C.ar  401  478401     -0.0042
     11  C11       16.8310   22.2420   13.8370 C.ar  401  478401     -0.0003
     12  C12       14.5690   22.3450   12.9710 C.ar  401  478401     -0.0003
     13  C13       15.8560   22.8420   13.0760 C.ar  401  478401     -0.0000
     14  C14       12.4990   18.1500   17.2280 C.3   401  478401      0.1304
     15  C15       10.2450   18.3750   18.1580 C.3   401  478401      0.0958
     16  C16       10.6630   18.8840   19.5440 C.3   401  478401      0.0178
     17  C17        9.7550   17.6730   15.0520 C.ar  401  478401      0.1223
     18  C18       10.4650   16.7940   14.2600 C.ar  401  478401      0.0213
     19  C19        9.8060   15.6830   13.7540 C.ar  401  478401      0.0194
     20  C20        8.5590   15.3400   14.2150 C.ar  401  478401      0.0892
     21  C21        7.7960   16.2790   14.9180 C.ar  401  478401      0.0194
     22  C22        8.4400   17.4090   15.3760 C.ar  401  478401      0.0213
     23  C23       10.6740   20.4210   19.5090 C.3   401  478401      0.0015
     24  C24        9.5900   18.4390   20.5590 C.3   401  478401      0.0015
     25  C25       15.9160   24.5330   21.2310 C.3   401  478401      0.1461
     26  N1        15.0380   20.9620   17.5280 N.am  401  478401     -0.1675
     27  N2        11.2160   18.8130   17.1510 N.3   401  478401     -0.1529
     28  N3         7.9670   14.2410   13.7660 N.pl3 401  478401     -0.1281
     29  O1        15.7750   22.9110   18.4090 O.3   401  478401     -0.4346
     30  O2        13.6140   22.7310   17.7140 O.2   401  478401     -0.2246
     31  O3        14.6860   18.0690   18.1220 O.3   401  478401     -0.2197
     32  O4        11.6630   19.3930   14.6550 O.2   401  478401     -0.1528
     33  O5         9.6040   20.2520   15.7500 O.2   401  478401     -0.1528
     34  O6        17.1400   24.4610   20.5010 O.3   401  478401     -0.3498
     35  S1        10.5770   19.1030   15.6700 S.O2  401  478401      0.0634
@<TRIPOS>BOND
     1    12    13   ar
     2    12    10   ar
     3    13    11   ar
     4    19    20   ar
     5    19    18   ar
     6    28    20    1
     7    10     8   ar
     8    11     9   ar
     9    20    21   ar
    10    18    17   ar
    11     9     8   ar
    12    32    35    2
    13     8     7    1
    14    21    22   ar
    15    17    22   ar
    16    17    35    1
    17     7     5    1
    18    35    33    2
    19    35    27    1
    20     5    26    1
    21     5     6    1
    22    27    14    1
    23    27    15    1
    24    14     6    1
    25    26     3   am
    26    30     3    2
    27     6    31    1
    28     3    29    1
    29    15    16    1
    30    29     4    1
    31     4     1    1
    32     4     2    1
    33     1    34    1
    34    23    16    1
    35    16    24    1
    36     2    25    1
    37    34    25    1
