@<TRIPOS>MOLECULE
3nun_JMZ_A_1.pdb
 17 19 0 0 0
SMALL
GASTEIGER

@<TRIPOS>ATOM
      1  C4       -44.9010   18.7190   11.6150 C.2   361  JMZ361      0.1144
      2  C5       -42.0150   14.9530   11.7670 C.2   361  JMZ361      0.0219
      3  C6       -42.1460   16.3080   11.9580 C.2   361  JMZ361      0.0144
      4  C7       -39.7410   15.1250   12.6460 C.2   361  JMZ361      0.1103
      5  C8       -43.3940   16.9420   11.5900 C.2   361  JMZ361      0.1421
      6  C10      -38.7100   14.1650   12.8530 C.2   361  JMZ361      0.4416
      7  N12      -37.4810   14.4580   13.3550 N.pl3 361  JMZ361      0.2188
      8  C1       -41.1030   17.0360   12.4940 C.3   361  JMZ361      0.0553
      9  C2       -39.8860   16.4900   12.8410 C.2   361  JMZ361     -0.0119
     10  C3       -43.6680   18.2300   11.9680 C.2   361  JMZ361      0.0542
     11  C9       -40.8040   14.4130   12.1280 C.2   361  JMZ361      0.1347
     12  C11      -45.4580   16.7790   10.5990 C.1   361  JMZ361      0.1864
     13  N13      -46.4090   16.0440    9.8740 N.pl3 361  JMZ361     -0.0345
     14  N14      -40.3770   13.1210   12.0480 N.2   361  JMZ361     -0.0338
     15  N15      -45.8100   18.0230   10.9310 N.2   361  JMZ361     -0.1673
     16  N16      -44.2830   16.2060   10.9090 N.2   361  JMZ361     -0.3355
     17  N17      -39.1180   12.9500   12.4770 N.2   361  JMZ361      0.0889
@<TRIPOS>BOND
     1    13    12    1
     2    12    16    2
     3    12    15    2
     4    16     5    2
     5    15     1    1
     6     5     3    1
     7     5    10    1
     8     1    10    2
     9     2     3    2
    10     2    11    1
    11     3     8    1
    12    14    11    2
    13    14    17    1
    14    11     4    1
    15    17     6    2
    16     8     9    1
    17     4     9    2
    18     4     6    1
    19     6     7    1
