@<TRIPOS>MOLECULE
3nuo_478_B_1.pdb
 35 37 0 0 0
SMALL
GASTEIGER

@<TRIPOS>ATOM
      1  C1        16.6100   25.3290   19.4890 C.3   478  478478      0.1856
      2  C2        14.6280   24.5260   20.5520 C.3   478  478478      0.0784
      3  C3        14.4200   22.7240   18.0830 C.2   478  478478      0.4211
      4  C4        15.2710   24.6870   19.1590 C.3   478  478478      0.2024
      5  C5        13.8330   20.5600   17.0000 C.3   478  478478      0.1347
      6  C6        13.4190   19.4450   17.9610 C.3   478  478478      0.1898
      7  C7        14.5630   20.0660   15.7580 C.3   478  478478      0.0508
      8  C8        14.9670   21.2180   14.8550 C.ar  478  478478     -0.0204
      9  C9        16.2890   21.6600   14.7980 C.ar  478  478478     -0.0042
     10  C10       14.0300   21.8220   14.0480 C.ar  478  478478     -0.0042
     11  C11       16.6170   22.7880   14.0350 C.ar  478  478478     -0.0003
     12  C12       14.3440   22.8890   13.2240 C.ar  478  478478     -0.0003
     13  C13       15.6460   23.3470   13.2210 C.ar  478  478478     -0.0000
     14  C14       12.3310   18.5160   17.4000 C.3   478  478478      0.1304
     15  C15       10.0920   18.8170   18.4490 C.3   478  478478      0.0958
     16  C16       10.4790   19.3930   19.8130 C.3   478  478478      0.0178
     17  C17        9.5810   18.0420   15.2590 C.ar  478  478478      0.1223
     18  C18       10.2910   17.1470   14.4910 C.ar  478  478478      0.0213
     19  C19        9.7700   15.9410   14.0320 C.ar  478  478478      0.0194
     20  C20        8.4480   15.6290   14.3360 C.ar  478  478478      0.0892
     21  C21        7.6980   16.5740   15.0340 C.ar  478  478478      0.0194
     22  C22        8.2630   17.7600   15.5340 C.ar  478  478478      0.0213
     23  C23       10.4240   20.9220   19.7760 C.3   478  478478      0.0015
     24  C24        9.4510   18.8950   20.8400 C.3   478  478478      0.0015
     25  C25       15.7430   24.8990   21.5120 C.3   478  478478      0.1461
     26  N1        14.7320   21.4860   17.6810 N.am  478  478478     -0.1675
     27  N2        11.0260   19.1680   17.3790 N.3   478  478478     -0.1529
     28  N3         7.9390   14.4490   13.9390 N.pl3 478  478478     -0.1281
     29  O1        15.4920   23.3610   18.6400 O.3   478  478478     -0.4346
     30  O2        13.2940   23.2220   18.0320 O.2   478  478478     -0.2246
     31  O3        14.5520   18.6330   18.2720 O.3   478  478478     -0.2197
     32  O4        11.4320   19.8530   14.9750 O.2   478  478478     -0.1528
     33  O5         9.2710   20.4970   16.0770 O.2   478  478478     -0.1528
     34  O6        16.9520   24.8460   20.7830 O.3   478  478478     -0.3498
     35  S1        10.3430   19.5050   15.9230 S.O2  478  478478      0.0634
@<TRIPOS>BOND
     1    13    12   ar
     2    13    11   ar
     3    12    10   ar
     4    28    20    1
     5    19    20   ar
     6    19    18   ar
     7    11     9   ar
     8    10     8   ar
     9    20    21   ar
    10    18    17   ar
    11     9     8   ar
    12     8     7    1
    13    32    35    2
    14    21    22   ar
    15    17    22   ar
    16    17    35    1
    17     7     5    1
    18    35    33    2
    19    35    27    1
    20     5    26    1
    21     5     6    1
    22    27    14    1
    23    27    15    1
    24    14     6    1
    25    26     3   am
    26     6    31    1
    27    30     3    2
    28     3    29    1
    29    15    16    1
    30    29     4    1
    31     4     1    1
    32     4     2    1
    33     1    34    1
    34    23    16    1
    35    16    24    1
    36     2    25    1
    37    34    25    1
