@<TRIPOS>MOLECULE
3nup_3NU_A_1.pdb
 22 24 0 0 0
SMALL
GASTEIGER

@<TRIPOS>ATOM
      1  C1        24.6160   35.5390   -5.6230 C.3   900  3NU900      0.1340
      2  N1        24.7960   36.4960   -3.6670 N.2   900  3NU900     -0.1509
      3  C2        25.2580   35.4700   -4.3870 C.2   900  3NU900      0.1081
      4  N2        23.8850   37.2560   -4.3300 N.2   900  3NU900     -0.1562
      5  C3        23.7720   36.6820   -5.5130 C.2   900  3NU900      0.0700
      6  N3        25.1850   32.8430   -8.8330 N.2   900  3NU900     -0.1686
      7  C4        24.4460   33.9230   -8.9470 C.1   900  3NU900      0.1649
      8  N4        24.2280   34.8310   -7.9720 N.2   900  3NU900     -0.3401
      9  C5        24.8370   34.5630   -6.7520 C.2   900  3NU900      0.1339
     10  N5        23.8970   34.0630  -10.1950 N.pl3 900  3NU900     -0.1638
     11  C6        25.6440   33.4290   -6.5410 C.2   900  3NU900      0.0508
     12  N6        21.0770   37.0770  -11.0940 N.3   900  3NU900     -0.2714
     13  C7        25.7690   32.5950   -7.6500 C.2   900  3NU900      0.1141
     14  C8        22.7960   37.3160   -6.5130 C.3   900  3NU900      0.0387
     15  C9        21.3900   37.3440   -5.9370 C.3   900  3NU900      0.0060
     16  C10       23.2120   38.7380   -6.8790 C.3   900  3NU900      0.0060
     17  C11       23.1280   35.0860  -10.9070 C.3   900  3NU900      0.1074
     18  C12       21.6530   34.6510  -10.8660 C.3   900  3NU900      0.0398
     19  C13       20.8340   35.7050  -11.6660 C.3   900  3NU900      0.0739
     20  C14       22.4810   37.4770  -11.0940 C.3   900  3NU900      0.0739
     21  C15       23.3110   36.4980  -10.2840 C.3   900  3NU900      0.0398
     22  C16       20.3000   38.0630  -11.8700 C.3   900  3NU900      0.0896
@<TRIPOS>BOND
     1    22    12    1
     2    19    12    1
     3    19    18    1
     4    12    20    1
     5    20    21    1
     6    17    18    1
     7    17    21    1
     8    17    10    1
     9    10     7    1
    10     7     6    2
    11     7     8    2
    12     6    13    1
    13     8     9    2
    14    13    11    2
    15    16    14    1
    16     9    11    1
    17     9     1    1
    18    14    15    1
    19    14     5    1
    20     1     5    1
    21     1     3    1
    22     5     4    2
    23     3     2    2
    24     4     2    1
