@<TRIPOS>MOLECULE
3nus_JNZ_A_1.pdb
 10 11 0 0 0
SMALL
GASTEIGER

@<TRIPOS>ATOM
      1  C8       -41.6470   16.7550   12.7440 C.2   374  JNZ374     -0.0036
      2  C7       -42.6540   15.9820   12.2070 C.2   374  JNZ374      0.0010
      3  C9       -40.3940   16.2470   13.0120 C.2   374  JNZ374     -0.0079
      4  C6       -42.4820   14.6480   11.9040 C.2   374  JNZ374      0.0195
      5  C10      -40.1960   14.9090   12.7170 C.3   374  JNZ374      0.1824
      6  C5       -41.2270   14.1640   12.1840 C.2   374  JNZ374      0.1211
      7  C2       -39.1000   14.0160   12.8290 C.2   374  JNZ374      0.4267
      8  N3       -39.4300   12.7990   12.3950 N.2   374  JNZ374      0.0844
      9  N4       -40.7100   12.9160   12.0150 N.2   374  JNZ374     -0.0378
     10  N1       -37.8980   14.4010   13.3140 N.pl3 374  JNZ374      0.2142
@<TRIPOS>BOND
     1     4     6    1
     2     4     2    2
     3     9     6    2
     4     9     8    1
     5     6     5    1
     6     2     1    1
     7     8     7    2
     8     5     7    1
     9     5     3    1
    10     1     3    2
    11     7    10    1
