@<TRIPOS>MOLECULE
3nut_SAH_A_1.pdb
 26 28 0 0 0
SMALL
GASTEIGER

@<TRIPOS>ATOM
      1  N         51.6510   45.2350   12.3990 N.3   1501  SAH1501    -0.1208
      2  CA        51.2370   43.8030   12.2830 C.3   1501  SAH1501     0.1952
      3  CB        50.4830   43.5550   10.9670 C.3   1501  SAH1501     0.0422
      4  CG        49.0630   44.1200   11.0210 C.3   1501  SAH1501     0.0597
      5  SD        47.9690   43.3950    9.8220 S.3   1501  SAH1501    -0.1375
      6  C         52.5020   43.0270   12.3120 C.2   1501  SAH1501     0.3819
      7  O         53.5140   43.7050   12.1970 O.co2 1501  SAH1501    -0.2441
      8  OXT       52.5850   41.7890   12.4390 O.co2 1501  SAH1501    -0.2441
      9  C5'       47.2140   42.0800   10.7520 C.3   1501  SAH1501     0.0899
     10  C4'       47.5050   40.7060   10.1150 C.3   1501  SAH1501     0.1630
     11  O4'       48.7770   40.2330   10.5770 O.3   1501  SAH1501    -0.3153
     12  C3'       46.5190   39.5730   10.4360 C.3   1501  SAH1501     0.2168
     13  O3'       45.4400   39.4450    9.4990 O.3   1501  SAH1501    -0.2175
     14  C2'       47.3810   38.3320   10.3500 C.3   1501  SAH1501     0.2569
     15  O2'       47.5900   37.9160    8.9840 O.3   1501  SAH1501    -0.2130
     16  C1'       48.7180   38.8280   10.8650 C.3   1501  SAH1501     0.3185
     17  N9        48.8830   38.5580   12.3130 N.pl3 1501  SAH1501    -0.1439
     18  C8        48.9370   39.4640   13.3100 C.3   1501  SAH1501     0.3377
     19  N7        49.1170   38.8330   14.5110 N.2   1501  SAH1501    -0.2095
     20  C5        49.1830   37.4960   14.2900 C.2   1501  SAH1501     0.2526
     21  C6        49.3690   36.2510   15.0970 C.2   1501  SAH1501     0.4393
     22  N6        49.5220   36.2800   16.4460 N.pl3 1501  SAH1501     0.2180
     23  N1        49.3710   35.0560   14.4540 N.2   1501  SAH1501     0.0021
     24  C2        49.2170   34.9840   13.1150 C.3   1501  SAH1501     0.5254
     25  N3        49.0450   36.0730   12.3290 N.2   1501  SAH1501    -0.0055
     26  C4        49.0170   37.3300   12.8420 C.2   1501  SAH1501     0.3518
@<TRIPOS>BOND
     1    15    14    1
     2    13    12    1
     3     5     9    1
     4     5     4    1
     5    10    12    1
     6    10    11    1
     7    10     9    1
     8    14    12    1
     9    14    16    1
    10    11    16    1
    11    16    17    1
    12     3     4    1
    13     3     2    1
    14     7     6   ar
    15     2     6    1
    16     2     1    1
    17     6     8   ar
    18    17    26    1
    19    17    18    1
    20    25    26    2
    21    25    24    1
    22    26    20    1
    23    24    23    1
    24    18    19    1
    25    20    19    2
    26    20    21    1
    27    23    21    2
    28    21    22    1
