@<TRIPOS>MOLECULE
3nuu_JOZ_A_1.pdb
 11 12 0 0 0
SMALL
GASTEIGER

@<TRIPOS>ATOM
      1  C4       -39.2290   16.0260   13.3800 C.ar  361  JOZ361      0.0113
      2  C5       -42.1220   15.1380   11.1450 C.3   361  JOZ361      0.0543
      3  C6       -42.1300   13.6920   11.5750 C.3   361  JOZ361      0.1426
      4  C7       -41.2070   15.9100   12.0280 C.ar  361  JOZ361     -0.0092
      5  C8       -40.0850   15.3180   12.5660 C.ar  361  JOZ361      0.0789
      6  C1       -40.6120   17.9500   13.1360 C.ar  361  JOZ361     -0.0003
      7  C2       -39.4930   17.3470   13.6690 C.ar  361  JOZ361      0.0007
      8  C3       -41.4670   17.2360   12.3160 C.ar  361  JOZ361     -0.0035
      9  C9       -39.7650   13.9060   12.2770 C.1   361  JOZ361      0.1497
     10  N10      -40.7910   13.1710   11.7300 N.2   361  JOZ361     -0.2022
     11  O11      -38.6410   13.4850   12.5230 O.2   361  JOZ361     -0.2223
@<TRIPOS>BOND
     1     2     3    1
     2     2     4    1
     3     3    10    1
     4    10     9    2
     5     4     8   ar
     6     4     5   ar
     7     9    11    2
     8     9     5    1
     9     8     6   ar
    10     5     1   ar
    11     6     7   ar
    12     1     7   ar
