@<TRIPOS>MOLECULE
3nuv_ASD_A_1.pdb
 21 24 0 0 0
SMALL
GASTEIGER

@<TRIPOS>ATOM
      1  C1        32.7020    1.8870   -0.7770 C.3   126  ASD126      0.0118
      2  C10       33.1690    0.4400   -0.6340 C.3   126  ASD126      0.0157
      3  C11       32.2340   -0.2360   -2.8650 C.3   126  ASD126      0.0007
      4  C12       31.4060   -1.2410   -3.6940 C.3   126  ASD126      0.0069
      5  C13       31.8030   -2.6660   -3.3180 C.3   126  ASD126      0.0515
      6  C14       31.5860   -2.8920   -1.8360 C.3   126  ASD126      0.0070
      7  C15       31.8230   -4.4120   -1.7260 C.3   126  ASD126      0.0082
      8  C16       30.9620   -4.9450   -2.8960 C.3   126  ASD126      0.0645
      9  C17       30.8920   -3.7450   -3.8620 C.2   126  ASD126      0.1498
     10  C18       33.2370   -3.0130   -3.7140 C.3   126  ASD126      0.0073
     11  C19       34.5660    0.3130   -1.2370 C.3   126  ASD126      0.0041
     12  C2        33.5800    2.8350    0.0490 C.3   126  ASD126      0.0694
     13  C3        33.6140    2.4010    1.5230 C.2   126  ASD126      0.1725
     14  C4        33.4180    1.0710    1.8370 C.2   126  ASD126      0.0289
     15  C5        33.1990    0.1020    0.8700 C.2   126  ASD126     -0.0420
     16  C6        33.0370   -1.3220    1.3930 C.3   126  ASD126      0.0221
     17  C7        32.2120   -2.2150    0.4740 C.3   126  ASD126      0.0044
     18  C8        32.4960   -1.9870   -0.9970 C.3   126  ASD126      0.0010
     19  C9        32.2190   -0.5180   -1.3460 C.3   126  ASD126      0.0035
     20  O1        33.7790    3.1940    2.4520 O.2   126  ASD126     -0.2914
     21  O2        30.2510   -3.6590   -4.9090 O.2   126  ASD126     -0.2961
@<TRIPOS>BOND
     1    21     9    2
     2     9     5    1
     3     9     8    1
     4    10     5    1
     5     4     5    1
     6     4     3    1
     7     5     6    1
     8     8     7    1
     9     3    19    1
    10     6     7    1
    11     6    18    1
    12    19    18    1
    13    19     2    1
    14    11     2    1
    15    18    17    1
    16     1     2    1
    17     1    12    1
    18     2    15    1
    19    12    13    1
    20    17    16    1
    21    15    16    1
    22    15    14    2
    23    13    14    1
    24    13    20    2
