@<TRIPOS>MOLECULE
3nux_3NV_A_1.pdb
 28 31 0 0 0
SMALL
GASTEIGER

@<TRIPOS>ATOM
      1  C1        11.6350   30.8920   11.7220 C.3   900  3NV900      0.1096
      2  N1        12.3040   29.7070   12.3440 N.pl3 900  3NV900     -0.3033
      3 CL1        16.1400   23.6480    4.1730 Cl    900  3NV900     -0.0635
      4  C2        11.3670   32.0480   12.7480 C.3   900  3NV900      0.1101
      5  N2        10.5070   31.5580   13.8410 N.3   900  3NV900     -0.2144
      6  C3        11.2390   30.4880   14.5670 C.3   900  3NV900      0.1101
      7  N3        15.0970   27.2410   11.8920 N.ar  900  3NV900     -0.2253
      8  C4        11.6380   29.3010   13.6230 C.3   900  3NV900      0.1096
      9  N4        16.6830   26.9260   10.3040 N.pl3 900  3NV900     -0.1164
     10  C5        14.0230   27.9170   12.4170 C.ar  900  3NV900      0.1148
     11  N5        14.3340   25.5600    3.8800 N.2   900  3NV900     -0.1407
     12  C6        13.3930   29.0500   11.7870 C.ar  900  3NV900      0.0675
     13  N6        13.8010   26.6690    4.3980 N.2   900  3NV900     -0.1554
     14  C7        14.0010   29.4760   10.5580 C.ar  900  3NV900      0.0190
     15  N7        18.1600   25.6600    9.1310 N.2   900  3NV900     -0.1683
     16  C8        15.1160   28.7760   10.0130 C.ar  900  3NV900      0.0382
     17  N8        16.1650   26.3860    8.0770 N.2   900  3NV900     -0.3398
     18  C9        15.6460   27.6600   10.7190 C.ar  900  3NV900      0.1632
     19  C10       15.4970   25.8790    5.7620 C.3   900  3NV900      0.1437
     20  C11       15.3380   25.0770    4.6570 C.2   900  3NV900      0.1490
     21  C12       14.4780   26.8960    5.5240 C.2   900  3NV900      0.0709
     22  C13       14.0550   28.1160    6.3340 C.3   900  3NV900      0.0387
     23  C14       14.7080   29.3950    5.7840 C.3   900  3NV900      0.0060
     24  C15       12.5260   28.2400    6.3390 C.3   900  3NV900      0.0060
     25  C16       16.4860   25.7540    6.9020 C.2   900  3NV900      0.1348
     26  C17       17.7130   25.0430    6.8210 C.2   900  3NV900      0.0508
     27  C18       18.5040   25.0230    7.9870 C.2   900  3NV900      0.1141
     28  C19       17.0000   26.2910    9.1360 C.1   900  3NV900      0.1708
@<TRIPOS>BOND
     1    11    13    1
     2    11    20    2
     3     3    20    1
     4    13    21    2
     5    20    19    1
     6    21    19    1
     7    21    22    1
     8    19    25    1
     9    23    22    1
    10    22    24    1
    11    26    25    1
    12    26    27    2
    13    25    17    2
    14    27    15    1
    15    17    28    2
    16    15    28    2
    17    28     9    1
    18    16    14   ar
    19    16    18   ar
    20     9    18    1
    21    14    12   ar
    22    18     7   ar
    23     1     2    1
    24     1     4    1
    25    12     2    1
    26    12    10   ar
    27     7    10   ar
    28     2     8    1
    29     4     5    1
    30     8     6    1
    31     5     6    1
