@<TRIPOS>MOLECULE
3nuy_JPZ_A_1.pdb
 11 12 0 0 0
SMALL
GASTEIGER

@<TRIPOS>ATOM
      1  C9       -40.5750   17.1150   13.4840 C.2   370  JPZ370     -0.0031
      2  C8       -41.7140   17.6080   12.9000 C.2   370  JPZ370      0.0010
      3  C10      -40.2130   15.8140   13.1980 C.2   370  JPZ370     -0.0040
      4  C7       -42.4780   16.8280   12.0630 C.2   370  JPZ370      0.0158
      5  C4       -42.4270   13.5070   10.7620 C.3   370  JPZ370      0.2619
      6  C11      -40.9880   15.0370   12.3580 C.3   370  JPZ370      0.1676
      7  C6       -42.1340   15.5230   11.7760 C.2   370  JPZ370      0.0754
      8  C2       -40.6420   13.7340   12.0660 C.1   370  JPZ370      0.1368
      9  N5       -42.8660   14.7510   10.9660 N.2   370  JPZ370     -0.2466
     10  N3       -41.3330   12.9220   11.2630 N.2   370  JPZ370     -0.1784
     11  O1       -39.5000   13.2310   12.6270 O.2   370  JPZ370     -0.2263
@<TRIPOS>BOND
     1     5     9    1
     2     5    10    1
     3     9     7    2
     4    10     8    2
     5     7     4    1
     6     7     6    1
     7     4     2    2
     8     8     6    1
     9     8    11    2
    10     6     3    1
    11     2     1    1
    12     3     1    2
