@<TRIPOS>MOLECULE
3nv2_GAL_A_1.pdb
 11 11 0 0 0
SMALL
GASTEIGER

@<TRIPOS>ATOM
      1  C1        26.9350   55.5760   25.4920 C.3   501  GAL501      0.1777
      2  C2        25.6050   56.0980   24.9420 C.3   501  GAL501      0.2141
      3  C3        24.4490   55.7160   25.8730 C.3   501  GAL501      0.2173
      4  C4        24.4580   54.2120   26.1580 C.3   501  GAL501      0.2142
      5  C5        25.8540   53.7680   26.6300 C.3   501  GAL501      0.1810
      6  C6        25.9690   52.2670   26.8040 C.3   501  GAL501      0.2141
      7  O2        25.6680   57.5080   24.8200 O.3   501  GAL501     -0.2176
      8  O3        23.2140   56.0800   25.2730 O.3   501  GAL501     -0.2175
      9  O4        24.0880   53.4990   24.9870 O.3   501  GAL501     -0.2176
     10  O5        26.8630   54.1570   25.6720 O.3   501  GAL501     -0.3481
     11  O6        27.2660   51.9060   27.2460 O.3   501  GAL501     -0.2176
@<TRIPOS>BOND
     1     7     2    1
     2     2     1    1
     3     2     3    1
     4     9     4    1
     5     8     3    1
     6     1    10    1
     7    10     5    1
     8     3     4    1
     9     4     5    1
    10     5     6    1
    11     6    11    1
