@<TRIPOS>MOLECULE
3nv3_GAL_A_1.pdb
 11 11 0 0 0
SMALL
GASTEIGER

@<TRIPOS>ATOM
      1  C1        26.6920   55.7410   25.5830 C.3   501  GAL501      0.1777
      2  C2        25.3740   56.2790   25.0240 C.3   501  GAL501      0.2141
      3  C3        24.1960   55.8230   25.8890 C.3   501  GAL501      0.2173
      4  C4        24.2260   54.2990   26.0800 C.3   501  GAL501      0.2142
      5  C5        25.5980   53.8850   26.6150 C.3   501  GAL501      0.1810
      6  C6        25.7390   52.3870   26.7850 C.3   501  GAL501      0.2141
      7  O2        25.4270   57.6990   24.9940 O.3   501  GAL501     -0.2176
      8  O3        22.9780   56.2000   25.2680 O.3   501  GAL501     -0.2175
      9  O4        23.9820   53.6530   24.8340 O.3   501  GAL501     -0.2176
     10  O5        26.6310   54.3130   25.7020 O.3   501  GAL501     -0.3481
     11  O6        27.0470   52.0410   27.2110 O.3   501  GAL501     -0.2176
@<TRIPOS>BOND
     1     9     4    1
     2     7     2    1
     3     2     1    1
     4     2     3    1
     5     8     3    1
     6     1    10    1
     7    10     5    1
     8     3     4    1
     9     4     5    1
    10     5     6    1
    11     6    11    1
