@<TRIPOS>MOLECULE
3nv4_BGC_A_1.pdb
 12 12 0 0 0
SMALL
GASTEIGER

@<TRIPOS>ATOM
      1  C2        31.4220   54.6720   24.5450 C.3   502  BGC502      0.2434
      2  C3        30.0050   54.9280   24.0370 C.3   502  BGC502      0.2199
      3  C4        29.1770   55.6030   25.1270 C.3   502  BGC502      0.2144
      4  C5        29.8880   56.8920   25.5690 C.3   502  BGC502      0.1836
      5  C6        29.1700   57.6380   26.6770 C.3   502  BGC502      0.2142
      6  C1        32.0440   55.9820   25.0520 C.3   502  BGC502      0.3024
      7  O1        33.2700   55.7120   25.6350 O.3   502  BGC502     -0.1869
      8  O2        32.2100   54.1390   23.4910 O.3   502  BGC502     -0.2148
      9  O3        29.3990   53.7030   23.6490 O.3   502  BGC502     -0.2174
     10  O4        27.8740   55.9140   24.6050 O.3   502  BGC502     -0.2176
     11  O5        31.2080   56.5770   26.0580 O.3   502  BGC502     -0.3236
     12  O6        29.0610   56.8400   27.8480 O.3   502  BGC502     -0.2176
@<TRIPOS>BOND
     1     8     1    1
     2     9     2    1
     3     2     1    1
     4     2     3    1
     5     1     6    1
     6    10     3    1
     7     6     7    1
     8     6    11    1
     9     3     4    1
    10     4    11    1
    11     4     5    1
    12     5    12    1
