@<TRIPOS>MOLECULE
3nv4_GAL_A_1.pdb
 11 11 0 0 0
SMALL
GASTEIGER

@<TRIPOS>ATOM
      1  C1        26.7980   55.6820   25.4440 C.3   501  GAL501      0.1777
      2  C2        25.5280   56.2050   24.7810 C.3   501  GAL501      0.2141
      3  C3        24.3000   55.8660   25.6230 C.3   501  GAL501      0.2173
      4  C4        24.2590   54.3670   25.9550 C.3   501  GAL501      0.2142
      5  C5        25.6030   53.9380   26.5650 C.3   501  GAL501      0.1810
      6  C6        25.6870   52.4490   26.8410 C.3   501  GAL501      0.2141
      7  O2        25.6230   57.6110   24.6320 O.3   501  GAL501     -0.2176
      8  O3        23.1180   56.2360   24.8890 O.3   501  GAL501     -0.2175
      9  O4        24.0060   53.6260   24.7690 O.3   501  GAL501     -0.2176
     10  O5        26.6890   54.2700   25.6640 O.3   501  GAL501     -0.3481
     11  O6        27.0020   52.0760   27.2310 O.3   501  GAL501     -0.2176
@<TRIPOS>BOND
     1     7     2    1
     2     9     4    1
     3     2     1    1
     4     2     3    1
     5     8     3    1
     6     1    10    1
     7     3     4    1
     8    10     5    1
     9     4     5    1
    10     5     6    1
    11     6    11    1
