@<TRIPOS>MOLECULE
3nv5_HEM_A_1.pdb
 43 50 0 0 0
SMALL
GASTEIGER

@<TRIPOS>ATOM
      1  CHA       20.4740  -19.2480  -11.3760 C.2   418  HEM418      0.0000
      2  CHB       21.3220  -23.5430   -9.2540 C.2   418  HEM418      0.0000
      3  CHC       25.8680  -23.5910  -10.8730 C.2   418  HEM418      0.0000
      4  CHD       25.2150  -19.1920  -12.6830 C.2   418  HEM418      0.0000
      5  C1A       20.3170  -20.4300  -10.6930 C.2   418  HEM418      0.0000
      6  C2A       19.0800  -20.8870  -10.1210 C.2   418  HEM418      0.0000
      7  C3A       19.2930  -22.0880   -9.5530 C.2   418  HEM418      0.0000
      8  C4A       20.6970  -22.4150   -9.7250 C.2   418  HEM418      0.0000
      9  CMA       18.2450  -22.9340   -8.7770 C.3   418  HEM418      0.0000
     10  CAA       17.7510  -20.1040  -10.2160 C.3   418  HEM418      0.0000
     11  CBA       17.6540  -19.0840   -9.0890 C.3   418  HEM418      0.0000
     12  CGA       16.2590  -18.5380   -9.0940 C.2   418  HEM418      0.0000
     13  O1A       16.0210  -17.5930   -9.8880 O.co2 418  HEM418      0.0000
     14  O2A       15.4080  -19.0390   -8.2970 O.co2 418  HEM418      0.0000
     15  C1B       22.6160  -23.9390   -9.5260 C.ar  418  HEM418      0.0000
     16  C2B       23.2520  -25.1970   -9.1520 C.ar  418  HEM418      0.0000
     17  C3B       24.5070  -25.1590   -9.6130 C.ar  418  HEM418      0.0000
     18  C4B       24.6840  -23.9110  -10.2750 C.ar  418  HEM418      0.0000
     19  CMB       22.6040  -26.3560   -8.3650 C.3   418  HEM418      0.0000
     20  CAB       25.6760  -26.1700   -9.5620 C.2   418  HEM418      0.0000
     21  CBB       25.7520  -27.0830   -8.5950 C.2   418  HEM418      0.0000
     22  C1C       26.0590  -22.4270  -11.5270 C.2   418  HEM418      0.0000
     23  C2C       27.2670  -22.1130  -12.2270 C.2   418  HEM418      0.0000
     24  C3C       27.1060  -20.8980  -12.7280 C.2   418  HEM418      0.0000
     25  C4C       25.7890  -20.4000  -12.3480 C.2   418  HEM418      0.0000
     26  CMC       28.4880  -23.0620  -12.3650 C.3   418  HEM418      0.0000
     27  CAC       28.1770  -20.1880  -13.5540 C.2   418  HEM418      0.0000
     28  CBC       28.2840  -18.8590  -13.4520 C.2   418  HEM418      0.0000
     29  C1D       23.8900  -18.7960  -12.5340 C.ar  418  HEM418      0.0000
     30  C2D       23.3220  -17.5460  -13.0350 C.ar  418  HEM418      0.0000
     31  C3D       21.8610  -17.5440  -12.6180 C.ar  418  HEM418      0.0000
     32  C4D       21.6660  -18.8100  -11.9280 C.ar  418  HEM418      0.0000
     33  CMD       24.0340  -16.4200  -13.8190 C.3   418  HEM418      0.0000
     34  CAD       20.8270  -16.4600  -12.9200 C.3   418  HEM418      0.0000
     35  CBD       20.0820  -16.8230  -14.2120 C.3   418  HEM418      0.0000
     36  CGD       18.8530  -15.9650  -14.3820 C.2   418  HEM418      0.0000
     37  O1D       18.3330  -15.3670  -13.3900 O.co2 418  HEM418      0.0000
     38  O2D       18.3560  -15.8840  -15.5350 O.co2 418  HEM418      0.0000
     39  NA        21.3000  -21.3840  -10.4360 N.2   418  HEM418      0.0000
     40  NB        23.5300  -23.1760  -10.2040 N.ar  418  HEM418      0.0000
     41  NC        25.1540  -21.3880  -11.6180 N.2   418  HEM418      0.0000
     42  ND        22.8820  -19.4920  -11.8950 N.ar  418  HEM418      0.0000
     43 FE         23.1440  -21.3540  -11.2200 Fe    418  HEM418      0.0000
@<TRIPOS>BOND
     1    38    36   ar
     2    36    35    1
     3    36    37   ar
     4    35    34    1
     5    33    30    1
     6    27    28    2
     7    27    24    1
     8    30    31   ar
     9    30    29   ar
    10    34    31    1
    11    24    25    1
    12    24    23    2
    13     4    29    2
    14     4    25    1
    15    31    32   ar
    16    29    42   ar
    17    26    23    1
    18    25    41    2
    19    23    22    1
    20    32    42   ar
    21    32     1    2
    22    42    43    1
    23    41    22    1
    24    41    43    1
    25    22     3    2
    26     1     5    1
    27    43    39    1
    28    43    40    1
    29     3    18    1
    30     5    39    2
    31     5     6    1
    32    39     8    1
    33    18    40   ar
    34    18    17   ar
    35    10     6    1
    36    10    11    1
    37    40    15   ar
    38     6     7    2
    39    13    12   ar
    40     8     7    1
    41     8     2    2
    42    17    20    1
    43    17    16   ar
    44    20    21    2
    45     7     9    1
    46    15     2    1
    47    15    16   ar
    48    16    19    1
    49    12    11    1
    50    12    14   ar
