@<TRIPOS>MOLECULE
3nv6_HEM_A_1.pdb
 43 50 0 0 0
SMALL
GASTEIGER

@<TRIPOS>ATOM
      1  CHA        6.0170   27.3050    8.8260 C.2   418  HEM418      0.0000
      2  CHB        9.0670   30.0150   11.3880 C.2   418  HEM418      0.0000
      3  CHC        7.1190   34.0420    9.4820 C.2   418  HEM418      0.0000
      4  CHD        3.5330   31.3650    7.6310 C.2   418  HEM418      0.0000
      5  C1A        7.0490   27.6960    9.6000 C.2   418  HEM418      0.0000
      6  C2A        7.9950   26.8010   10.2150 C.2   418  HEM418      0.0000
      7  C3A        8.8560   27.5350   10.9350 C.2   418  HEM418      0.0000
      8  C4A        8.4580   28.9240   10.7970 C.2   418  HEM418      0.0000
      9  CMA       10.0470   27.0720   11.8130 C.3   418  HEM418      0.0000
     10  CAA        7.9180   25.2670    9.9680 C.3   418  HEM418      0.0000
     11  CBA        6.8790   24.5350   10.8120 C.3   418  HEM418      0.0000
     12  CGA        7.0710   23.0260   10.7320 C.2   418  HEM418      0.0000
     13  O1A        6.4150   22.3140   11.5360 O.co2 418  HEM418      0.0000
     14  O2A        7.8300   22.4730    9.8840 O.co2 418  HEM418      0.0000
     15  C1B        8.8300   31.3350   11.0650 C.ar  418  HEM418      0.0000
     16  C2B        9.6390   32.4730   11.4740 C.ar  418  HEM418      0.0000
     17  C3B        9.0940   33.5530   10.9180 C.ar  418  HEM418      0.0000
     18  C4B        7.9270   33.1580   10.1670 C.ar  418  HEM418      0.0000
     19  CMB       10.9180   32.4380   12.3650 C.3   418  HEM418      0.0000
     20  CAB        9.5270   35.0160   11.0510 C.2   418  HEM418      0.0000
     21  CBB       10.5420   35.3630   11.8660 C.2   418  HEM418      0.0000
     22  C1C        5.9930   33.6800    8.8110 C.2   418  HEM418      0.0000
     23  C2C        5.1250   34.5700    8.1040 C.2   418  HEM418      0.0000
     24  C3C        4.1300   33.8300    7.6310 C.2   418  HEM418      0.0000
     25  C4C        4.3220   32.4430    7.9960 C.2   418  HEM418      0.0000
     26  CMC        5.3240   36.1100    7.9470 C.3   418  HEM418      0.0000
     27  CAC        2.9760   34.3670    6.7900 C.2   418  HEM418      0.0000
     28  CBC        1.7560   34.0770    7.1850 C.2   418  HEM418      0.0000
     29  C1D        3.8750   30.0230    7.7300 C.ar  418  HEM418      0.0000
     30  C2D        3.0950   28.8840    7.2470 C.ar  418  HEM418      0.0000
     31  C3D        3.8730   27.6350    7.6310 C.ar  418  HEM418      0.0000
     32  C4D        5.0320   28.1260    8.3260 C.ar  418  HEM418      0.0000
     33  CMD        1.7710   28.9460    6.4750 C.3   418  HEM418      0.0000
     34  CAD        3.5460   26.1450    7.3750 C.3   418  HEM418      0.0000
     35  CBD        4.1570   25.6690    6.0580 C.3   418  HEM418      0.0000
     36  CGD        3.9680   24.1620    5.8420 C.2   418  HEM418      0.0000
     37  O1D        3.6360   23.3970    6.8010 O.co2 418  HEM418      0.0000
     38  O2D        4.1900   23.7350    4.6780 O.co2 418  HEM418      0.0000
     39  NA         7.3520   28.9940    9.9430 N.2   418  HEM418      0.0000
     40  NB         7.8020   31.7980   10.2600 N.ar  418  HEM418      0.0000
     41  NC         5.4940   32.3930    8.7160 N.2   418  HEM418      0.0000
     42  ND         4.9930   29.5190    8.3670 N.ar  418  HEM418      0.0000
     43 FE          6.4740   30.6330    9.1920 Fe    418  HEM418      0.0000
@<TRIPOS>BOND
     1    38    36   ar
     2    36    35    1
     3    36    37   ar
     4    35    34    1
     5    33    30    1
     6    27    28    2
     7    27    24    1
     8    30    31   ar
     9    30    29   ar
    10    34    31    1
    11    24    25    1
    12    24    23    2
    13    31    32   ar
    14     4    29    2
    15     4    25    1
    16    29    42   ar
    17    26    23    1
    18    25    41    2
    19    23    22    1
    20    32    42   ar
    21    32     1    2
    22    42    43    1
    23    41    22    1
    24    41    43    1
    25    22     3    2
    26     1     5    1
    27    43    39    1
    28    43    40    1
    29     3    18    1
    30     5    39    2
    31     5     6    1
    32    14    12   ar
    33    39     8    1
    34    10     6    1
    35    10    11    1
    36    18    40   ar
    37    18    17   ar
    38     6     7    2
    39    40    15   ar
    40    12    11    1
    41    12    13   ar
    42     8     7    1
    43     8     2    2
    44    17    20    1
    45    17    16   ar
    46     7     9    1
    47    20    21    2
    48    15     2    1
    49    15    16   ar
    50    16    19    1
