@<TRIPOS>MOLECULE
3nv6_CAM_A_1.pdb
 11 12 0 0 0
SMALL
GASTEIGER

@<TRIPOS>ATOM
      1  C1         4.7070   27.2810   13.5120 C.3   422  CAM422      0.0282
      2  C2         3.5720   28.1220   13.0340 C.3   422  CAM422      0.1519
      3  O          3.5430   28.7640   11.8040 O.3   422  CAM422     -0.2232
      4  C3         2.4150   28.0660   13.9810 C.3   422  CAM422      0.0329
      5  C4         2.8580   26.8050   14.7010 C.3   422  CAM422      0.0026
      6  C5         2.9830   25.6980   13.6320 C.3   422  CAM422      0.0002
      7  C6         4.2700   25.9680   12.8660 C.3   422  CAM422      0.0024
      8  C7         4.3150   27.1340   14.9640 C.3   422  CAM422      0.0024
      9  C8         4.4380   28.4490   15.7120 C.3   422  CAM422      0.0001
     10  C9         4.9460   25.9670   15.6980 C.3   422  CAM422      0.0001
     11  C10        6.1060   27.8310   13.2150 C.3   422  CAM422      0.0025
@<TRIPOS>BOND
     1     3     2    1
     2     7     1    1
     3     7     6    1
     4     2     1    1
     5     2     4    1
     6    11     1    1
     7     1     8    1
     8     6     5    1
     9     4     5    1
    10     5     8    1
    11     8    10    1
    12     8     9    1
