@<TRIPOS>MOLECULE
3nv8_PEP_A_1.pdb
 10 9 0 0 0
SMALL
GASTEIGER

@<TRIPOS>ATOM
      1  C1        80.9030  -28.7110   -3.3400 C.2   467  PEP467      0.3919
      2  O1        81.0200  -29.6110   -4.2100 O.co2 467  PEP467     -0.2429
      3  O2'       80.9050  -27.4960   -3.6620 O.co2 467  PEP467     -0.2429
      4  C2        80.8090  -29.0820   -1.8790 C.3   467  PEP467      0.2285
      5  C3        81.9470  -30.0820   -1.6930 C.3   467  PEP467      0.0450
      6  O2        79.5180  -29.5280   -1.4130 O.3   467  PEP467     -0.2611
      7  P         78.8770  -29.2980    0.0580 P.3   467  PEP467      0.5330
      8  O1P       79.9270  -29.7600    1.0370 O.3   467  PEP467     -0.1145
      9  O2P       77.6550  -30.1670    0.2230 O.3   467  PEP467     -0.1145
     10  O3P       78.5320  -27.8330    0.1190 O.2   467  PEP467     -0.2224
@<TRIPOS>BOND
     1     2     1   ar
     2     3     1   ar
     3     1     4    1
     4     4     5    1
     5     4     6    1
     6     6     7    1
     7     7    10    2
     8     7     9    1
     9     7     8    1
