@<TRIPOS>MOLECULE
3nvd_OAN_A_1.pdb
 25 26 0 0 0
SMALL
GASTEIGER

@<TRIPOS>ATOM
      1  CAH       59.2910   58.3360   87.2460 C.3   646  OAN646      0.0964
      2  CAG       60.5190   57.6120   87.7880 C.2   646  OAN646      0.2420
      3  OAN       61.5800   58.1940   87.8700 O.2   646  OAN646     -0.2733
      4  NAI       60.3010   56.3910   88.5510 N.am  646  OAN646     -0.2003
      5  CAB       61.4350   55.6960   89.1350 C.3   646  OAN646      0.1757
      6  CAC       61.8830   54.4850   88.2820 C.3   646  OAN646      0.2088
      7  OAJ       62.5770   54.9860   87.1940 O.3   646  OAN646     -0.2183
      8  CAD       62.7800   53.5900   89.1370 C.3   646  OAN646      0.2185
      9  OAK       63.2510   52.4600   88.4440 O.3   646  OAN646     -0.2172
     10  CAE       61.9020   53.0770   90.3090 C.3   646  OAN646      0.2138
     11  CAF       62.7490   52.1860   91.2030 C.2   646  OAN646      0.2394
     12  OAM       63.3900   52.7420   92.0060 O.2   646  OAN646     -0.2855
     13  OAL       61.4850   54.1110   91.2230 O.3   646  OAN646     -0.3272
     14  CAA       61.2550   55.4150   90.6620 C.3   646  OAN646      0.2538
     15  NAY       60.4140   56.2660   91.4490 N.4   646  OAN646      0.0081
     16  OAQ       60.1640   55.9500   92.8290 O.3   646  OAN646     -0.3289
     17  CAP       61.0580   55.9750   93.9330 C.2   646  OAN646      0.4448
     18  OAR       62.1690   55.5480   93.8480 O.2   646  OAN646     -0.2223
     19  NAO       60.4780   56.1790   95.2680 N.am  646  OAN646     -0.1410
     20  CAS       60.0550   57.5290   95.6370 C.ar  646  OAN646      0.0768
     21  CAT       61.1180   58.6210   95.8180 C.ar  646  OAN646      0.0167
     22  CAU       60.6890   60.0600   96.1350 C.ar  646  OAN646      0.0013
     23  CAV       59.1860   60.4080   96.2750 C.ar  646  OAN646      0.0001
     24  CAW       58.1150   59.3160   96.0890 C.ar  646  OAN646      0.0013
     25  CAX       58.5540   57.8770   95.7680 C.ar  646  OAN646      0.0167
@<TRIPOS>BOND
     1     7     6    1
     2     1     2    1
     3     2     3    2
     4     2     4   am
     5     6     5    1
     6     6     8    1
     7     9     8    1
     8     4     5    1
     9     5    14    1
    10     8    10    1
    11    10    11    1
    12    10    13    1
    13    14    13    1
    14    14    15    1
    15    11    12    2
    16    15    16    1
    17    16    17    1
    18    18    17    2
    19    17    19   am
    20    19    20    1
    21    20    25   ar
    22    20    21   ar
    23    25    24   ar
    24    21    22   ar
    25    24    23   ar
    26    22    23   ar
