@<TRIPOS>MOLECULE
3nvk_SAM_I_1.pdb
 26 28 0 0 0
SMALL
GASTEIGER

@<TRIPOS>ATOM
      1  N        -46.7180  -47.2650    1.6640 N.3   228  SAM228     -0.1245
      2  CA       -47.0860  -46.1950    2.5980 C.3   228  SAM228      0.1570
      3  C        -46.9760  -46.6880    4.0610 C.2   228  SAM228      0.2261
      4  O        -45.9890  -47.2690    4.5500 O.2   228  SAM228     -0.2867
      5  CB       -48.4860  -45.6210    2.2600 C.3   228  SAM228      0.0379
      6  CG       -48.7150  -44.0920    2.1480 C.3   228  SAM228      0.0502
      7  SD       -50.1960  -43.4420    3.0160 S.3   228  SAM228     -0.1761
      8  CE       -51.0830  -45.0050    3.3230 C.3   228  SAM228      0.0590
      9  C5'      -51.4130  -42.8460    1.8060 C.3   228  SAM228      0.0806
     10  C4'      -51.6120  -41.3830    1.3540 C.3   228  SAM228      0.1622
     11  O4'      -52.0520  -40.3660    2.2360 O.3   228  SAM228     -0.3153
     12  C3'      -50.4890  -40.7320    0.5880 C.3   228  SAM228      0.2168
     13  O3'      -50.6020  -41.2570   -0.7020 O.3   228  SAM228     -0.2175
     14  C2'      -50.9090  -39.2710    0.5590 C.3   228  SAM228      0.2569
     15  O2'      -51.0840  -38.8360   -0.7760 O.3   228  SAM228     -0.2130
     16  C1'      -52.2310  -39.2860    1.3190 C.3   228  SAM228      0.3185
     17  N9       -52.7000  -37.9850    1.8820 N.pl3 228  SAM228     -0.1439
     18  C8       -51.9650  -37.0620    2.5780 C.3   228  SAM228      0.3377
     19  N7       -52.7670  -36.0230    2.9170 N.2   228  SAM228     -0.2095
     20  C5       -54.0080  -36.2520    2.4540 C.2   228  SAM228      0.2526
     21  C6       -55.1820  -35.5190    2.5370 C.2   228  SAM228      0.4393
     22  N6       -55.2170  -34.3490    3.1520 N.pl3 228  SAM228      0.2180
     23  N1       -56.3290  -36.0020    1.9730 N.2   228  SAM228      0.0021
     24  C2       -56.2890  -37.2170    1.3220 C.3   228  SAM228      0.5254
     25  N3       -55.1150  -37.9380    1.2470 N.2   228  SAM228     -0.0055
     26  C4       -53.9810  -37.4740    1.8030 C.2   228  SAM228      0.3518
@<TRIPOS>BOND
     1    15    14    1
     2    13    12    1
     3    14    12    1
     4    14    16    1
     5    12    10    1
     6    25    24    1
     7    25    26    2
     8    16    17    1
     9    16    11    1
    10    24    23    1
    11    10     9    1
    12    10    11    1
    13     1     2    1
    14    26    17    1
    15    26    20    1
    16     9     7    1
    17    17    18    1
    18    23    21    2
    19     6     5    1
    20     6     7    1
    21     5     2    1
    22    20    21    1
    23    20    19    2
    24    21    22    1
    25    18    19    1
    26     2     3    1
    27     7     8    1
    28     3     4    2
