@<TRIPOS>MOLECULE
3nvr_HEM_A_1.pdb
 43 50 0 0 0
SMALL
GASTEIGER

@<TRIPOS>ATOM
      1  CHA      -23.8880   19.9370   -8.4830 C.2   200  HEM200      0.0000
      2  CHB      -23.1920   23.5780   -5.3860 C.2   200  HEM200      0.0000
      3  CHC      -23.3040   20.5890   -1.6140 C.2   200  HEM200      0.0000
      4  CHD      -24.9700   17.2420   -4.6150 C.2   200  HEM200      0.0000
      5  C1A      -23.7550   21.2040   -7.9670 C.ar  200  HEM200      0.0000
      6  C2A      -23.7760   22.4570   -8.7080 C.ar  200  HEM200      0.0000
      7  C3A      -23.5900   23.4430   -7.8360 C.ar  200  HEM200      0.0000
      8  C4A      -23.4270   22.8610   -6.5260 C.ar  200  HEM200      0.0000
      9  CMA      -23.5410   24.9500   -8.1690 C.3   200  HEM200      0.0000
     10  CAA      -23.9920   22.6690  -10.2230 C.3   200  HEM200      0.0000
     11  CBA      -25.3790   22.2000  -10.6830 C.3   200  HEM200      0.0000
     12  CGA      -25.5400   22.4090  -12.1740 C.2   200  HEM200      0.0000
     13  O1A      -24.7200   23.1490  -12.7940 O.co2 200  HEM200      0.0000
     14  O2A      -26.4950   21.8290  -12.7560 O.co2 200  HEM200      0.0000
     15  C1B      -23.0770   23.0940   -4.1110 C.2   200  HEM200      0.0000
     16  C2B      -22.6780   23.8590   -2.9450 C.2   200  HEM200      0.0000
     17  C3B      -22.7010   23.0310   -1.8940 C.2   200  HEM200      0.0000
     18  C4B      -23.1300   21.7210   -2.3720 C.2   200  HEM200      0.0000
     19  CMB      -22.2940   25.3590   -2.9630 C.3   200  HEM200      0.0000
     20  CAB      -22.3720   23.3590   -0.4160 C.2   200  HEM200      0.0000
     21  CBB      -22.2350   24.6180    0.0270 C.2   200  HEM200      0.0000
     22  C1C      -23.8310   19.4100   -2.0880 C.ar  200  HEM200      0.0000
     23  C2C      -24.1850   18.2290   -1.3200 C.ar  200  HEM200      0.0000
     24  C3C      -24.6490   17.3070   -2.1720 C.ar  200  HEM200      0.0000
     25  C4C      -24.6030   17.8870   -3.4820 C.ar  200  HEM200      0.0000
     26  CMC      -24.0300   18.0770    0.2080 C.3   200  HEM200      0.0000
     27  CAC      -25.1710   15.8770   -1.8900 C.2   200  HEM200      0.0000
     28  CBC      -25.5570   15.4890   -0.6690 C.2   200  HEM200      0.0000
     29  C1D      -24.6120   17.5630   -5.8960 C.2   200  HEM200      0.0000
     30  C2D      -24.4410   16.6050   -6.9680 C.2   200  HEM200      0.0000
     31  C3D      -24.1020   17.4360   -8.2020 C.2   200  HEM200      0.0000
     32  C4D      -24.1220   18.8120   -7.7350 C.2   200  HEM200      0.0000
     33  CMD      -24.5650   15.0710   -6.8700 C.3   200  HEM200      0.0000
     34  CAD      -23.8060   16.9020   -9.6240 C.3   200  HEM200      0.0000
     35  CBD      -24.8240   17.5020  -10.5880 C.3   200  HEM200      0.0000
     36  CGD      -25.8140   16.4360  -10.9950 C.2   200  HEM200      0.0000
     37  O1D      -26.7640   16.7510  -11.7540 O.co2 200  HEM200      0.0000
     38  O2D      -25.6550   15.2710  -10.5530 O.co2 200  HEM200      0.0000
     39  NA       -23.5410   21.4890   -6.6360 N.ar  200  HEM200      0.0000
     40  NB       -23.3400   21.8020   -3.7250 N.2   200  HEM200      0.0000
     41  NC       -24.1030   19.1610   -3.4090 N.ar  200  HEM200      0.0000
     42  ND       -24.4240   18.8340   -6.3850 N.2   200  HEM200      0.0000
     43 FE        -23.8420   20.3050   -5.0520 Fe    200  HEM200      0.0000
@<TRIPOS>BOND
     1    13    12   ar
     2    14    12   ar
     3    12    11    1
     4    37    36   ar
     5    36    35    1
     6    36    38   ar
     7    11    10    1
     8    35    34    1
     9    10     6    1
    10    34    31    1
    11     6     5   ar
    12     6     7   ar
    13     1     5    2
    14     1    32    1
    15    31    32    1
    16    31    30    2
    17     9     7    1
    18     5    39   ar
    19     7     8   ar
    20    32    42    2
    21    30    33    1
    22    30    29    1
    23    39     8   ar
    24    39    43    1
    25     8     2    2
    26    42    29    1
    27    42    43    1
    28    29     4    2
    29     2    15    1
    30    43    40    1
    31    43    41    1
    32     4    25    1
    33    15    40    2
    34    15    16    1
    35    40    18    1
    36    25    41   ar
    37    25    24   ar
    38    41    22   ar
    39    19    16    1
    40    16    17    2
    41    18    17    1
    42    18     3    2
    43    24    27    1
    44    24    23   ar
    45    22     3    1
    46    22    23   ar
    47    17    20    1
    48    27    28    2
    49    23    26    1
    50    20    21    2
