@<TRIPOS>MOLECULE
3nvs_GPJ_A_1.pdb
 10 9 0 0 0
SMALL
GASTEIGER

@<TRIPOS>ATOM
      1  P1        12.2150   14.0510   11.1540 P.3   429  GPJ429      0.1347
      2  O1        10.7860   13.6930   11.5340 O.3   429  GPJ429     -0.3562
      3  O2        12.4600   14.1510    9.6880 O.2   429  GPJ429     -0.4587
      4  O3        12.7480   15.2400   11.9030 O.3   429  GPJ429     -0.3562
      5  O4        11.4360   10.6390   14.6950 O.co2 429  GPJ429     -0.2440
      6  O5        13.0540    9.1190   14.8760 O.co2 429  GPJ429     -0.2440
      7  C1        13.2300   12.5980   11.5520 C.3   429  GPJ429      0.1476
      8  C2        13.2160   10.6380   13.1210 C.3   429  GPJ429      0.2033
      9  C3        12.5020   10.0930   14.3130 C.2   429  GPJ429      0.3823
     10  N1        12.7460   11.9690   12.7720 N.3   429  GPJ429     -0.1988
@<TRIPOS>BOND
     1     3     1    2
     2     1     2    1
     3     1     7    1
     4     1     4    1
     5     7    10    1
     6    10     8    1
     7     8     9    1
     8     9     5   ar
     9     9     6   ar
