@<TRIPOS>MOLECULE
3nvs_S3P_A_1.pdb
 16 16 0 0 0
SMALL
GASTEIGER

@<TRIPOS>ATOM
      1  C1         8.6740   10.3710    8.5820 C.2   427  S3P427      0.0583
      2  C2         9.5920    9.7940    7.7600 C.2   427  S3P427      0.0084
      3  C3        10.8590    9.0810    8.2260 C.3   427  S3P427      0.1809
      4  C4        10.9380    9.0680    9.7660 C.3   427  S3P427      0.2140
      5  C5        10.3620   10.3400   10.3700 C.3   427  S3P427      0.1895
      6  C6         8.9180   10.4590    9.9540 C.3   427  S3P427      0.0684
      7  C7         7.4440   10.9100    7.9320 C.2   427  S3P427      0.3837
      8  O1        11.9480    9.7570    7.5490 O.3   427  S3P427     -0.2655
      9  O2        12.3020    8.9550   10.1880 O.3   427  S3P427     -0.2174
     10  O3        10.5330   10.3910   11.7950 O.3   427  S3P427     -0.2200
     11  O4         7.3730   11.1380    6.6840 O.co2 427  S3P427     -0.2409
     12  O5         6.4840   11.1520    8.6970 O.co2 427  S3P427     -0.2409
     13  P1        12.8330    9.2020    6.3190 P.3   427  S3P427      0.5329
     14  O6        11.8690    9.0300    5.1490 O.2   427  S3P427     -0.2224
     15  O7        13.3970    7.9080    6.8130 O.3   427  S3P427     -0.1145
     16  O8        13.8180   10.3090    6.0830 O.3   427  S3P427     -0.1145
@<TRIPOS>BOND
     1    14    13    2
     2    16    13    1
     3    13    15    1
     4    13     8    1
     5    11     7   ar
     6     8     3    1
     7     2     3    1
     8     2     1    2
     9     7     1    1
    10     7    12   ar
    11     3     4    1
    12     1     6    1
    13     4     9    1
    14     4     5    1
    15     6     5    1
    16     5    10    1
