@<TRIPOS>MOLECULE
3nvs_SKM_A_1.pdb
 12 12 0 0 0
SMALL
GASTEIGER

@<TRIPOS>ATOM
      1  O12       12.2970    8.5140    9.9790 O.3   428  SKM428     -0.2173
      2  C8        10.9780    8.9130    9.5830 C.3   428  SKM428      0.2167
      3  C6        10.5700   10.2370   10.2100 C.3   428  SKM428      0.1896
      4  O7        10.6450   10.1960   11.6400 O.3   428  SKM428     -0.2200
      5  C5         9.1710   10.5660    9.7290 C.3   428  SKM428      0.0684
      6  C4         8.8040   10.2540    8.4540 C.2   428  SKM428      0.0584
      7  C1         7.5010   10.6530    7.9150 C.2   428  SKM428      0.3837
      8  O2         7.3490   10.7200    6.6720 O.co2 428  SKM428     -0.2409
      9  O3         6.5750   10.9090    8.7200 O.co2 428  SKM428     -0.2409
     10  C10        9.6150    9.5560    7.6320 C.2   428  SKM428      0.0111
     11  C9        10.9770    9.0920    8.0760 C.3   428  SKM428      0.2066
     12  O11       11.9400   10.0830    7.6680 O.3   428  SKM428     -0.2155
@<TRIPOS>BOND
     1     8     7   ar
     2    10    11    1
     3    10     6    2
     4    12    11    1
     5     7     6    1
     6     7     9   ar
     7    11     2    1
     8     6     5    1
     9     2     1    1
    10     2     3    1
    11     5     3    1
    12     3     4    1
