@<TRIPOS>MOLECULE
3nvu_HEM_A_1.pdb
 43 50 0 0 0
SMALL
GASTEIGER

@<TRIPOS>ATOM
      1  CHA       48.9050   -5.4640  -23.0130 C.2   200  HEM200      0.0000
      2  CHB       45.9230   -7.1760  -26.4240 C.2   200  HEM200      0.0000
      3  CHC       49.4370   -7.2070  -29.7400 C.2   200  HEM200      0.0000
      4  CHD       52.3420   -5.2000  -26.4780 C.2   200  HEM200      0.0000
      5  C1A       47.7650   -5.9060  -23.6440 C.ar  200  HEM200      0.0000
      6  C2A       46.4470   -6.0310  -23.0670 C.ar  200  HEM200      0.0000
      7  C3A       45.6230   -6.5000  -24.0060 C.ar  200  HEM200      0.0000
      8  C4A       46.3940   -6.6960  -25.2230 C.ar  200  HEM200      0.0000
      9  CMA       44.1170   -6.7780  -23.7980 C.3   200  HEM200      0.0000
     10  CAA       46.0080   -5.6760  -21.6290 C.3   200  HEM200      0.0000
     11  CBA       46.1000   -4.1740  -21.4430 C.3   200  HEM200      0.0000
     12  CGA       45.5980   -3.8260  -20.0700 C.2   200  HEM200      0.0000
     13  O1A       46.3790   -3.2370  -19.2830 O.co2 200  HEM200      0.0000
     14  O2A       44.4260   -4.1620  -19.7660 O.co2 200  HEM200      0.0000
     15  C1B       46.6100   -7.3200  -27.6030 C.2   200  HEM200      0.0000
     16  C2B       46.0330   -7.8030  -28.8470 C.2   200  HEM200      0.0000
     17  C3B       47.0070   -7.8130  -29.7640 C.2   200  HEM200      0.0000
     18  C4B       48.2150   -7.3220  -29.1280 C.2   200  HEM200      0.0000
     19  CMB       44.5500   -8.2260  -29.0160 C.3   200  HEM200      0.0000
     20  CAB       46.9550   -8.2290  -31.2570 C.2   200  HEM200      0.0000
     21  CBB       45.8140   -8.4770  -31.8970 C.2   200  HEM200      0.0000
     22  C1C       50.5310   -6.6410  -29.1550 C.ar  200  HEM200      0.0000
     23  C2C       51.7840   -6.3400  -29.8070 C.ar  200  HEM200      0.0000
     24  C3C       52.5920   -5.7700  -28.9000 C.ar  200  HEM200      0.0000
     25  C4C       51.8560   -5.6990  -27.6550 C.ar  200  HEM200      0.0000
     26  CMC       52.0840   -6.6390  -31.2930 C.3   200  HEM200      0.0000
     27  CAC       54.0450   -5.2480  -29.0660 C.2   200  HEM200      0.0000
     28  CBC       54.6550   -5.2310  -30.2530 C.2   200  HEM200      0.0000
     29  C1D       51.7380   -5.2230  -25.2470 C.2   200  HEM200      0.0000
     30  C2D       52.4560   -5.0530  -23.9990 C.2   200  HEM200      0.0000
     31  C3D       51.4020   -5.1640  -22.9110 C.2   200  HEM200      0.0000
     32  C4D       50.1350   -5.3470  -23.6120 C.2   200  HEM200      0.0000
     33  CMD       53.9730   -4.8440  -23.8110 C.3   200  HEM200      0.0000
     34  CAD       51.6230   -4.9950  -21.3950 C.3   200  HEM200      0.0000
     35  CBD       51.5630   -3.4700  -21.2190 C.3   200  HEM200      0.0000
     36  CGD       51.5770   -3.0600  -19.7660 C.2   200  HEM200      0.0000
     37  O1D       52.6740   -2.9830  -19.1720 O.co2 200  HEM200      0.0000
     38  O2D       50.4930   -2.7760  -19.1960 O.co2 200  HEM200      0.0000
     39  NA        47.6890   -6.3220  -24.9610 N.ar  200  HEM200      0.0000
     40  NB        47.9420   -7.0360  -27.8140 N.2   200  HEM200      0.0000
     41  NC        50.6010   -6.2290  -27.8450 N.ar  200  HEM200      0.0000
     42  ND        50.3760   -5.3880  -24.9830 N.2   200  HEM200      0.0000
     43 FE         49.1840   -6.2900  -26.3560 Fe    200  HEM200      0.0000
@<TRIPOS>BOND
     1    21    20    2
     2    26    23    1
     3    20    17    1
     4    28    27    2
     5    23    22   ar
     6    23    24   ar
     7    17    18    1
     8    17    16    2
     9     3    22    1
    10     3    18    2
    11    22    41   ar
    12    18    40    1
    13    27    24    1
    14    19    16    1
    15    24    25   ar
    16    16    15    1
    17    41    25   ar
    18    41    43    1
    19    40    15    2
    20    40    43    1
    21    25     4    1
    22    15     2    1
    23     4    29    2
    24     2     8    2
    25    43    42    1
    26    43    39    1
    27    29    42    1
    28    29    30    1
    29     8    39   ar
    30     8     7   ar
    31    42    32    2
    32    39     5   ar
    33     7     9    1
    34     7     6   ar
    35    30    33    1
    36    30    31    2
    37     5     6   ar
    38     5     1    2
    39    32     1    1
    40    32    31    1
    41     6    10    1
    42    31    34    1
    43    10    11    1
    44    11    12    1
    45    34    35    1
    46    35    36    1
    47    12    14   ar
    48    12    13   ar
    49    36    38   ar
    50    36    37   ar
