@<TRIPOS>MOLECULE
3nvw_GUN_C_1.pdb
 11 12 0 0 0
SMALL
GASTEIGER

@<TRIPOS>ATOM
      1  N9        38.9320   21.6900   20.2510 N.2   503  GUN503     -0.1802
      2  C8        38.6700   22.9000   19.6720 C.3   503  GUN503      0.2633
      3  N7        38.0010   22.7670   18.4880 N.2   503  GUN503     -0.2212
      4  C5        37.7950   21.4630   18.2950 C.2   503  GUN503      0.2482
      5  C6        37.1560   20.6040   17.2670 C.1   503  GUN503      0.2442
      6  O6        36.6090   21.1290   16.2680 O.2   503  GUN503     -0.2063
      7  N1        37.1670   19.2660   17.4620 N.2   503  GUN503     -0.2474
      8  C2        37.7660   18.6980   18.5460 C.1   503  GUN503      0.2608
      9  N2        37.7330   17.3560   18.6690 N.pl3 503  GUN503     -0.0220
     10  N3        38.3870   19.4170   19.5290 N.2   503  GUN503     -0.2682
     11  C4        38.4080   20.7710   19.4280 C.1   503  GUN503      0.1289
@<TRIPOS>BOND
     1     6     5    2
     2     5     7    2
     3     5     4    1
     4     7     8    2
     5     4     3    2
     6     4    11    1
     7     3     2    1
     8     8     9    1
     9     8    10    2
    10    11    10    2
    11    11     1    2
    12     2     1    1
