@<TRIPOS>MOLECULE
3nvy_QUE_C_1.pdb
 22 24 0 0 0
SMALL
GASTEIGER

@<TRIPOS>ATOM
      1  C1        36.7140   20.2970   16.5020 C.ar  1356  QUE1356     0.0843
      2  C2        37.3820   19.6090   17.4910 C.ar  1356  QUE1356     0.2050
      3  C3        38.0180   20.3890   18.5960 C.ar  1356  QUE1356     0.1158
      4  C4        37.9150   21.8700   18.6170 C.ar  1356  QUE1356     0.1549
      5  C5        37.2270   22.4710   17.5750 C.ar  1356  QUE1356     0.0798
      6  C6        36.6470   21.6810   16.5640 C.ar  1356  QUE1356     0.2020
      7  C9        38.7430   19.7400   19.6970 C.ar  1356  QUE1356     0.2433
      8  C10       39.3390   20.5760   20.7520 C.ar  1356  QUE1356     0.2685
      9  C11       39.1590   22.0530   20.7170 C.ar  1356  QUE1356     0.1872
     10  C14       39.7970   22.9630   21.7430 C.ar  1356  QUE1356     0.0413
     11  C15       39.3180   24.2530   21.9810 C.ar  1356  QUE1356     0.0066
     12  C16       39.9500   25.1280   22.8840 C.ar  1356  QUE1356     0.0455
     13  C17       41.0950   24.7250   23.5710 C.ar  1356  QUE1356     0.2343
     14  C18       41.6190   23.3630   23.3250 C.ar  1356  QUE1356     0.2344
     15  C19       40.9590   22.5440   22.4210 C.ar  1356  QUE1356     0.0485
     16  O12       38.4760   22.5940   19.6500 O.2   1356  QUE1356    -0.4498
     17  O13       38.8420   18.5020   19.7260 O.2   1356  QUE1356    -0.2828
     18  O23       42.7510   22.9480   23.9690 O.3   1356  QUE1356    -0.2831
     19  O24       41.7350   25.5270   24.4720 O.3   1356  QUE1356    -0.2831
     20  O27       40.2870   20.0210   21.5540 O.3   1356  QUE1356    -0.2798
     21  O29       35.9830   22.2550   15.5510 O.3   1356  QUE1356    -0.2864
     22  O30       37.4300   18.2480   17.4370 O.3   1356  QUE1356    -0.2862
@<TRIPOS>BOND
     1    21     6    1
     2     1     6   ar
     3     1     2   ar
     4     6     5   ar
     5    22     2    1
     6     2     3   ar
     7     5     4   ar
     8     3     4   ar
     9     3     7   ar
    10     4    16   ar
    11    16     9   ar
    12     7    17    2
    13     7     8   ar
    14     9     8   ar
    15     9    10    1
    16     8    20    1
    17    10    11   ar
    18    10    15   ar
    19    11    12   ar
    20    15    14   ar
    21    12    13   ar
    22    14    13   ar
    23    14    18    1
    24    13    19    1
