@<TRIPOS>MOLECULE
3nvz_I3A_C_1.pdb
 11 12 0 0 0
SMALL
GASTEIGER

@<TRIPOS>ATOM
      1  O         36.4710   21.5570   15.9560 O.2     1  I3A1       -0.2831
      2  C3'       36.7840   20.4260   16.3620 C.2     1  I3A1        0.2357
      3  C3        37.5560   20.2450   17.6810 C.2     1  I3A1        0.0624
      4  C2        37.9020   19.0850   18.2370 C.2     1  I3A1        0.1021
      5  N         38.5640   19.3360   19.3860 N.2     1  I3A1       -0.2437
      6  C8        38.6420   20.6440   19.5810 C.2     1  I3A1        0.0808
      7  C9        37.9940   21.2870   18.4830 C.2     1  I3A1        0.0184
      8  C4        37.9110   22.6960   18.3880 C.2     1  I3A1       -0.0198
      9  C5        38.4880   23.4510   19.4370 C.3     1  I3A1        0.0521
     10  C6        39.1220   22.8170   20.5370 C.2     1  I3A1       -0.0199
     11  C7        39.2260   21.4110   20.6180 C.2     1  I3A1        0.0149
@<TRIPOS>BOND
     1     1     2    2
     2     2     3    1
     3     3     4    2
     4     3     7    1
     5     4     5    1
     6     8     7    2
     7     8     9    1
     8     7     6    1
     9     5     6    2
    10     9    10    1
    11     6    11    1
    12    10    11    2
