@<TRIPOS>MOLECULE
3nw2_MPW_A_1.pdb
 19 21 0 0 0
SMALL
GASTEIGER

@<TRIPOS>ATOM
      1  O        125.8250  112.8370   29.6930 O.3     1  MPW1       -0.4713
      2  C1       121.2420  112.7700   37.2030 C.2     1  MPW1        0.1991
      3  N1       121.3940  115.0410   38.0820 N.2     1  MPW1       -0.1801
      4  C2       120.3930  112.4750   38.3160 C.3     1  MPW1        0.0992
      5  N2       122.5310  114.1270   35.9320 N.2     1  MPW1       -0.2886
      6  C3       120.0850  113.4690   39.2570 C.2     1  MPW1        0.0036
      7  N3       122.6810  114.9350   31.3100 N.ar    1  MPW1       -0.2479
      8  C4       120.6150  114.7700   39.1060 C.2     1  MPW1        0.1065
      9  N4       121.7510  112.0910   36.1080 N.2     1  MPW1       -0.3358
     10  C5       121.7450  114.1200   37.1030 C.1     1  MPW1        0.1266
     11  C6       122.4960  112.8820   35.3940 C.1     1  MPW1        0.1249
     12  C7       122.2780  113.1180   33.1220 C.3     1  MPW1        0.0640
     13  C8       123.0430  113.7260   31.8990 C.ar    1  MPW1        0.0632
     14  C9       123.3470  115.4240   30.2360 C.ar    1  MPW1        0.1016
     15  C10      124.4030  114.7660   29.6650 C.ar    1  MPW1        0.0575
     16  C11      124.7960  113.5220   30.2210 C.ar    1  MPW1        0.1415
     17  C12      126.3210  111.5600   30.2080 C.3     1  MPW1        0.2525
     18  C13      124.0940  113.0100   31.3530 C.ar    1  MPW1        0.0517
     19  C14      123.1750  112.4990   34.0960 C.3     1  MPW1        0.1320
@<TRIPOS>BOND
     1    15    16   ar
     2    15    14   ar
     3     1    17    1
     4     1    16    1
     5    16    18   ar
     6    14     7   ar
     7     7    13   ar
     8    18    13   ar
     9    13    12    1
    10    12    19    1
    11    19    11    1
    12    11     5    2
    13    11     9    2
    14     5    10    2
    15     9     2    2
    16    10     2    1
    17    10     3    2
    18     2     4    1
    19     3     8    1
    20     4     6    1
    21     8     6    2
