@<TRIPOS>MOLECULE
3nw2_HEM_A_1.pdb
 43 50 0 0 0
SMALL
GASTEIGER

@<TRIPOS>ATOM
      1  CHA      120.8460  110.2570   29.2990 C.2   901  HEM901      0.0000
      2  CHB      122.1700  114.1760   26.8320 C.2   901  HEM901      0.0000
      3  CHC      126.4730  112.1180   25.9670 C.2   901  HEM901      0.0000
      4  CHD      125.1100  108.1850   28.3270 C.2   901  HEM901      0.0000
      5  C1A      120.8230  111.5250   28.7410 C.ar  901  HEM901      0.0000
      6  C2A      119.7300  112.4660   28.8590 C.ar  901  HEM901      0.0000
      7  C3A      120.0920  113.5810   28.1390 C.ar  901  HEM901      0.0000
      8  C4A      121.4310  113.3030   27.6030 C.ar  901  HEM901      0.0000
      9  CMA      119.3470  114.8480   27.9180 C.3   901  HEM901      0.0000
     10  CAA      118.4440  112.2380   29.6630 C.3   901  HEM901      0.0000
     11  CBA      118.4070  113.0850   31.0190 C.3   901  HEM901      0.0000
     12  CGA      118.6870  112.4420   32.2720 C.2   901  HEM901      0.0000
     13  O1A      119.6480  111.5690   32.2720 O.co2 901  HEM901      0.0000
     14  O2A      118.0660  112.6970   33.3400 O.co2 901  HEM901      0.0000
     15  C1B      123.4610  113.9390   26.3680 C.2   901  HEM901      0.0000
     16  C2B      124.2150  114.8950   25.5780 C.2   901  HEM901      0.0000
     17  C3B      125.4320  114.3260   25.3350 C.2   901  HEM901      0.0000
     18  C4B      125.4080  113.0130   25.9800 C.2   901  HEM901      0.0000
     19  CMB      123.6850  116.2450   25.1720 C.3   901  HEM901      0.0000
     20  CAB      126.6150  114.8940   24.5800 C.3   901  HEM901      0.0000
     21  CBB      126.5320  114.5990   23.0740 C.3   901  HEM901      0.0000
     22  C1C      126.5020  110.8860   26.5580 C.ar  901  HEM901      0.0000
     23  C2C      127.6600  109.9860   26.5610 C.ar  901  HEM901      0.0000
     24  C3C      127.2440  108.8730   27.2260 C.ar  901  HEM901      0.0000
     25  C4C      125.8790  109.0970   27.6260 C.ar  901  HEM901      0.0000
     26  CMC      128.9870  110.3480   25.9350 C.3   901  HEM901      0.0000
     27  CAC      128.0030  107.5650   27.5710 C.3   901  HEM901      0.0000
     28  CBC      129.5360  107.5460   27.2910 C.3   901  HEM901      0.0000
     29  C1D      123.8070  108.3950   28.7850 C.2   901  HEM901      0.0000
     30  C2D      123.0500  107.4080   29.5610 C.2   901  HEM901      0.0000
     31  C3D      121.8890  108.0040   29.8400 C.2   901  HEM901      0.0000
     32  C4D      121.8990  109.3390   29.2240 C.2   901  HEM901      0.0000
     33  CMD      123.5670  106.0560   29.9540 C.3   901  HEM901      0.0000
     34  CAD      120.7470  107.5140   30.6540 C.3   901  HEM901      0.0000
     35  CBD      121.0940  107.9040   32.1840 C.3   901  HEM901      0.0000
     36  CGD      120.1420  107.4930   33.1060 C.2   901  HEM901      0.0000
     37  O1D      119.8160  108.2670   34.0520 O.co2 901  HEM901      0.0000
     38  O2D      119.6090  106.3660   33.0180 O.co2 901  HEM901      0.0000
     39  NA       121.8580  112.0400   27.9810 N.ar  901  HEM901      0.0000
     40  NB       124.1780  112.7780   26.5740 N.2   901  HEM901      0.0000
     41  NC       125.4090  110.3240   27.2260 N.ar  901  HEM901      0.0000
     42  ND       123.0550  109.5470   28.5570 N.2   901  HEM901      0.0000
     43 FE        123.6090  111.1610   27.5760 Fe    901  HEM901      0.0000
@<TRIPOS>BOND
     1    21    20    1
     2    20    17    1
     3    19    16    1
     4    17    16    2
     5    17    18    1
     6    16    15    1
     7    26    23    1
     8     3    18    2
     9     3    22    1
    10    18    40    1
    11    15    40    2
    12    15     2    1
    13    22    23   ar
    14    22    41   ar
    15    23    24   ar
    16    40    43    1
    17     2     8    2
    18    41    43    1
    19    41    25   ar
    20    24    27    1
    21    24    25   ar
    22    28    27    1
    23    43    39    1
    24    43    42    1
    25     8    39   ar
    26     8     7   ar
    27    25     4    1
    28     9     7    1
    29    39     5   ar
    30     7     6   ar
    31     4    29    2
    32    42    29    1
    33    42    32    2
    34     5     6   ar
    35     5     1    2
    36    29    30    1
    37     6    10    1
    38    32     1    1
    39    32    31    1
    40    30    31    2
    41    30    33    1
    42    10    11    1
    43    31    34    1
    44    34    35    1
    45    11    12    1
    46    35    36    1
    47    12    13   ar
    48    12    14   ar
    49    38    36   ar
    50    36    37   ar
