@<TRIPOS>MOLECULE
3nw2_H4B_A_1.pdb
 17 18 0 0 0
SMALL
GASTEIGER

@<TRIPOS>ATOM
      1  N1       113.0610  111.9090   31.4490 N.2   902  H4B902     -0.2683
      2  C2       114.3470  112.3250   31.6400 C.1   902  H4B902      0.2608
      3  N2       115.1280  112.7150   30.6500 N.pl3 902  H4B902     -0.0220
      4  N3       114.8320  112.3400   32.9250 N.2   902  H4B902     -0.2474
      5  C4       114.0930  111.9560   34.0840 C.1   902  H4B902      0.2441
      6  O4       114.6380  112.0210   35.1730 O.2   902  H4B902     -0.2063
      7  C4A      112.7580  111.5350   33.8050 C.2   902  H4B902      0.2463
      8  C8A      112.2360  111.5090   32.4930 C.1   902  H4B902      0.1270
      9  N5       111.8890  111.1250   34.9370 N.2   902  H4B902     -0.2460
     10  N8       110.9690  111.1130   32.2240 N.2   902  H4B902     -0.2054
     11  C6       110.7700  110.1430   34.5360 C.3   902  H4B902      0.1627
     12  C7       110.0290  110.6720   33.2940 C.3   902  H4B902      0.1643
     13  C9       109.9340  109.8930   35.8350 C.3   902  H4B902      0.2063
     14  O9       109.3870  111.1000   36.3640 O.3   902  H4B902     -0.2183
     15  C10      108.7470  108.9170   35.5710 C.3   902  H4B902      0.1842
     16  C11      107.9130  108.6290   36.7840 C.3   902  H4B902      0.0383
     17  O10      109.3320  107.7200   35.0520 O.3   902  H4B902     -0.2204
@<TRIPOS>BOND
     1     3     2    1
     2     1     2    2
     3     1     8    2
     4     2     4    2
     5    10     8    2
     6    10    12    1
     7     8     7    1
     8     4     5    2
     9    12    11    1
    10     7     5    1
    11     7     9    2
    12     5     6    2
    13    11     9    1
    14    11    13    1
    15    17    15    1
    16    15    13    1
    17    15    16    1
    18    13    14    1
