@<TRIPOS>MOLECULE
3nw3_MU2_D_1.pdb
 34 34 0 0 0
SMALL
GASTEIGER

@<TRIPOS>ATOM
      1  C1       -17.6450  -21.2200  -19.3950 C.3   5369  MU25369     0.2916
      2  O1       -17.5960  -20.3540  -18.2740 O.3   5369  MU25369    -0.1879
      3  C2       -16.2940  -21.9300  -19.6460 C.3   5369  MU25369     0.1839
      4  N2       -15.4390  -21.6520  -18.4850 N.am  5369  MU25369    -0.1993
      5  C7       -15.5920  -22.1650  -17.2490 C.2   5369  MU25369     0.2420
      6  O7       -16.4920  -22.9500  -16.9250 O.2   5369  MU25369    -0.2733
      7  C8       -14.5620  -21.6940  -16.2570 C.3   5369  MU25369     0.0964
      8  C3       -15.4850  -21.3220  -20.8070 C.3   5369  MU25369     0.1734
      9  O3       -14.3330  -22.1430  -21.0880 O.3   5369  MU25369    -0.3449
     10  C4       -16.3700  -20.9400  -22.0060 C.3   5369  MU25369     0.2103
     11  O4       -15.5870  -20.2620  -23.0090 O.3   5369  MU25369    -0.2178
     12  C5       -17.4300  -19.9720  -21.4600 C.3   5369  MU25369     0.1834
     13  O5       -18.2880  -20.7160  -20.5830 O.3   5369  MU25369    -0.3242
     14  C6       -18.2560  -19.3060  -22.5630 C.3   5369  MU25369     0.2142
     15  O6       -17.4990  -18.2110  -23.1200 O.3   5369  MU25369    -0.2176
     16  C18      -14.1470  -22.6440  -22.4190 C.3   5369  MU25369     0.1926
     17  C20      -14.0540  -24.1640  -22.3950 C.3   5369  MU25369     0.0421
     18  C19      -12.9140  -22.0640  -23.0670 C.2   5369  MU25369     0.2689
     19  O18      -12.0600  -21.4990  -22.4030 O.2   5369  MU25369    -0.2707
     20  N4       -12.8900  -22.2390  -24.3910 N.am  5369  MU25369    -0.1957
     21  C21      -11.9550  -21.8500  -25.4550 C.3   5369  MU25369     0.1729
     22  C23      -12.6190  -20.6800  -26.1820 C.3   5369  MU25369     0.0334
     23  C22      -10.5020  -21.5120  -25.2000 C.2   5369  MU25369     0.2617
     24  O19      -10.0990  -21.1130  -24.1180 O.2   5369  MU25369    -0.2715
     25  N5        -9.7360  -21.6730  -26.2920 N.am  5369  MU25369    -0.1941
     26  C24       -8.3000  -21.4320  -26.4810 C.3   5369  MU25369     0.1983
     27  C25       -8.0880  -21.9720  -27.8980 C.3   5369  MU25369     0.0429
     28  C26       -6.8510  -21.4320  -28.6130 C.3   5369  MU25369     0.0909
     29  C27       -6.0070  -22.5910  -29.0970 C.2   5369  MU25369     0.2608
     30  N20       -6.4060  -23.2040  -30.2110 N.am  5369  MU25369    -0.0878
     31  O21       -5.0090  -22.9270  -28.4790 O.2   5369  MU25369    -0.2717
     32  C28       -7.3820  -22.1210  -25.5010 C.2   5369  MU25369     0.3842
     33  O22       -7.9040  -22.8020  -24.5810 O.co2 5369  MU25369    -0.2437
     34  O23       -6.1290  -22.0170  -25.6590 O.co2 5369  MU25369    -0.2437
@<TRIPOS>BOND
     1    30    29   am
     2    29    28    1
     3    29    31    2
     4    28    27    1
     5    27    26    1
     6    26    25    1
     7    26    32    1
     8    25    23   am
     9    22    21    1
    10    34    32   ar
    11    32    33   ar
    12    21    23    1
    13    21    20    1
    14    23    24    2
    15    20    18   am
    16    15    14    1
    17    18    16    1
    18    18    19    2
    19    11    10    1
    20    14    12    1
    21    16    17    1
    22    16     9    1
    23    10    12    1
    24    10     8    1
    25    12    13    1
    26     9     8    1
    27     8     3    1
    28    13     1    1
    29     3     1    1
    30     3     4    1
    31     1     2    1
    32     4     5   am
    33     5     6    2
    34     5     7    1
