@<TRIPOS>MOLECULE
3nw4_GTQ_A_1.pdb
 11 11 0 0 0
SMALL
GASTEIGER

@<TRIPOS>ATOM
      1  OAA      -11.3780  -25.2980  -23.8510 O.co2 370  GTQ370     -0.2404
      2  OAB      -10.1620  -23.5050  -24.5340 O.co2 370  GTQ370     -0.2404
      3  OAC       -6.4760  -25.3440  -27.3650 O.3   370  GTQ370     -0.2866
      4  OAD      -11.0950  -27.5470  -25.1660 O.3   370  GTQ370     -0.2863
      5  CAE       -7.9860  -27.1840  -27.1380 C.ar  370  GTQ370      0.0453
      6  CAF       -9.1410  -27.7470  -26.5720 C.ar  370  GTQ370      0.0455
      7  CAG       -8.3870  -25.0830  -25.9690 C.ar  370  GTQ370      0.0518
      8  CAH      -10.4240  -24.7620  -24.5290 C.2   370  GTQ370      0.3910
      9  CAI       -7.6070  -25.8590  -26.8230 C.ar  370  GTQ370      0.1962
     10  CAJ       -9.9530  -27.0050  -25.7190 C.ar  370  GTQ370      0.2022
     11  CAK       -9.5650  -25.6100  -25.4120 C.ar  370  GTQ370      0.1217
@<TRIPOS>BOND
     1     3     9    1
     2     5     9   ar
     3     5     6   ar
     4     9     7   ar
     5     6    10   ar
     6     7    11   ar
     7    10    11   ar
     8    10     4    1
     9    11     8    1
    10     2     8   ar
    11     8     1   ar
