@<TRIPOS>MOLECULE
3nw5_LGX_A_1.pdb
 32 37 0 0 0
SMALL
GASTEIGER

@<TRIPOS>ATOM
      1  N1       -15.5730    7.0780    9.9630 N.ar    1  LGX1       -0.2133
      2  C2       -16.3160    6.7330   11.0890 C.ar    1  LGX1        0.1566
      3  C3       -16.7140    7.9300   11.7570 C.ar    1  LGX1        0.0272
      4  C4       -16.1780    8.9670   10.9820 C.ar    1  LGX1        0.0225
      5  C5       -15.4880    8.4260    9.8950 C.ar    1  LGX1        0.1014
      6  N6       -15.0710    6.1110    9.1440 N.2     1  LGX1       -0.1015
      7  C7       -15.2690    4.7880    9.3850 C.1     1  LGX1        0.1039
      8  N8       -15.9770    4.4160   10.4580 N.2     1  LGX1       -0.3082
      9  C9       -16.4970    5.3510   11.3030 C.2     1  LGX1        0.3417
     10  N10      -17.2140    4.9010   12.3830 N.pl3   1  LGX1        0.0279
     11  C11      -17.4420    3.4820   12.7710 C.2     1  LGX1        0.3772
     12  C12      -17.0840    2.1930   12.2070 C.3     1  LGX1        0.1690
     13  C13      -17.5890    1.1400   13.0410 C.2     1  LGX1        0.0951
     14  N14      -18.2070    1.7890   14.0360 N.2     1  LGX1       -0.0426
     15  N15      -18.1130    3.1250   13.8650 N.2     1  LGX1        0.0793
     16  C16      -17.4920   -0.4050   12.9040 C.3     1  LGX1        0.0406
     17  C17      -17.0550   -0.5080   11.4940 C.3     1  LGX1        0.0061
     18  C18      -18.5030   -0.4970   11.8160 C.3     1  LGX1        0.0061
     19  C19      -14.7260    3.7100    8.5000 C.3     1  LGX1        0.1751
     20  N20      -13.6670    4.1200    7.5860 N.am    1  LGX1       -0.2643
     21  C21      -13.9980    3.7880    6.1920 C.3     1  LGX1        0.0948
     22  C22      -15.1580    2.7800    6.3010 C.3     1  LGX1        0.0244
     23  C23      -15.7940    2.9990    7.6720 C.3     1  LGX1        0.0382
     24  C24      -12.5420    4.7370    8.1150 C.2     1  LGX1        0.2512
     25  O25      -12.3600    4.6890    9.3360 O.2     1  LGX1       -0.2698
     26  C26      -11.5640    5.4440    7.2580 C.ar    1  LGX1        0.0729
     27  C27      -10.2260    5.4810    7.6800 C.ar    1  LGX1        0.0100
     28  C28       -9.2170    6.1250    6.9450 C.ar    1  LGX1        0.0498
     29  C29       -9.6190    6.7350    5.7540 C.ar    1  LGX1        0.2223
     30  N30      -10.8890    6.7250    5.3080 N.ar    1  LGX1       -0.2163
     31  C31      -11.8470    6.0960    6.0390 C.ar    1  LGX1        0.1058
     32  F32       -8.6390    7.3410    5.0700 F       1  LGX1       -0.1832
@<TRIPOS>BOND
     1    32    29    1
     2    30    29   ar
     3    30    31   ar
     4    29    28   ar
     5    31    26   ar
     6    21    22    1
     7    21    20    1
     8    22    23    1
     9    28    27   ar
    10    26    27   ar
    11    26    24    1
    12    20    24   am
    13    20    19    1
    14    23    19    1
    15    24    25    2
    16    19     7    1
    17     6     7    2
    18     6     1    1
    19     7     8    2
    20     5     1   ar
    21     5     4   ar
    22     1     2   ar
    23     8     9    2
    24     4     3   ar
    25     2     9    1
    26     2     3   ar
    27     9    10    1
    28    17    18    1
    29    17    16    1
    30    18    16    1
    31    12    11    1
    32    12    13    1
    33    10    11    1
    34    11    15    2
    35    16    13    1
    36    13    14    2
    37    15    14    1
