@<TRIPOS>MOLECULE
3nw6_LGW_A_1.pdb
 32 37 0 0 0
SMALL
GASTEIGER

@<TRIPOS>ATOM
      1  N1       -16.4110    7.4650   10.4150 N.ar    1  LGW1       -0.2133
      2  C2       -17.1080    6.9940   11.5160 C.ar    1  LGW1        0.1566
      3  C3       -17.5720    8.0950   12.3100 C.ar    1  LGW1        0.0272
      4  C4       -17.1170    9.2330   11.6250 C.ar    1  LGW1        0.0225
      5  C5       -16.4150    8.8180   10.4790 C.ar    1  LGW1        0.1014
      6  N6       -15.8680    6.5940    9.5050 N.2     1  LGW1       -0.1015
      7  C7       -15.9780    5.2610    9.6250 C.1     1  LGW1        0.1039
      8  N8       -16.6480    4.7630   10.6830 N.2     1  LGW1       -0.3082
      9  C9       -17.1980    5.6150   11.6050 C.2     1  LGW1        0.3417
     10  N10      -17.8660    5.1100   12.6590 N.pl3   1  LGW1        0.0279
     11  C11      -18.0990    3.6890   12.9590 C.2     1  LGW1        0.3772
     12  C12      -17.7980    2.4260   12.3000 C.3     1  LGW1        0.1690
     13  C13      -18.3150    1.3880   13.1520 C.2     1  LGW1        0.0951
     14  N14      -18.8580    2.0190   14.1990 N.2     1  LGW1       -0.0426
     15  N15      -18.7310    3.3370   14.0810 N.2     1  LGW1        0.0793
     16  C16      -18.3300   -0.1470   13.0470 C.3     1  LGW1        0.0406
     17  C17      -19.1040   -0.2790   11.7720 C.3     1  LGW1        0.0061
     18  C18      -17.5890   -0.3710   11.7850 C.3     1  LGW1        0.0061
     19  C19      -15.3620    4.3760    8.5960 C.3     1  LGW1        0.1751
     20  N20      -14.5730    3.2790    9.1640 N.am    1  LGW1       -0.2643
     21  C21      -14.9350    1.9720    8.6100 C.3     1  LGW1        0.0948
     22  C22      -15.8280    2.3040    7.3980 C.3     1  LGW1        0.0244
     23  C23      -16.3850    3.7410    7.6400 C.3     1  LGW1        0.0382
     24  C24      -13.6190    3.5410   10.1070 C.2     1  LGW1        0.2512
     25  O25      -13.1690    4.6680   10.2530 O.2     1  LGW1       -0.2698
     26  C26      -13.0990    2.5030   10.9740 C.ar    1  LGW1        0.0729
     27  C27      -13.9690    1.6500   11.6860 C.ar    1  LGW1        0.0100
     28  C28      -13.4740    0.6660   12.5100 C.ar    1  LGW1        0.0498
     29  C29      -12.0890    0.5460   12.6130 C.ar    1  LGW1        0.2223
     30  N30      -11.2190    1.3540   11.9370 N.ar    1  LGW1       -0.2163
     31  C31      -11.7120    2.3330   11.1170 C.ar    1  LGW1        0.1058
     32  F32      -11.7040   -0.4390   13.4370 F       1  LGW1       -0.1832
@<TRIPOS>BOND
     1    22    23    1
     2    22    21    1
     3    23    19    1
     4    19    20    1
     5    19     7    1
     6    21    20    1
     7    20    24   am
     8     6     7    2
     9     6     1    1
    10     7     8    2
    11    24    25    2
    12    24    26    1
    13     1     5   ar
    14     1     2   ar
    15     5     4   ar
    16     8     9    2
    17    26    31   ar
    18    26    27   ar
    19    31    30   ar
    20     2     9    1
    21     2     3   ar
    22     9    10    1
    23     4     3   ar
    24    27    28   ar
    25    17    18    1
    26    17    16    1
    27    18    16    1
    28    30    29   ar
    29    12    11    1
    30    12    13    1
    31    28    29   ar
    32    29    32    1
    33    10    11    1
    34    11    15    2
    35    16    13    1
    36    13    14    2
    37    15    14    1
