@<TRIPOS>MOLECULE
3nw7_LGV_A_1.pdb
 29 33 0 0 0
SMALL
GASTEIGER

@<TRIPOS>ATOM
      1  C1       -17.4570    8.9330   11.3080 C.ar    1  LGV1        0.0225
      2  C2       -12.8690    2.0720   11.7070 C.ar    1  LGV1        0.0101
      3  C3       -17.9820    7.8730   12.0950 C.ar    1  LGV1        0.0272
      4  C4       -11.9540    1.5210   12.6090 C.ar    1  LGV1        0.0498
      5  C5       -18.4740    2.4290   12.7460 C.3     1  LGV1        0.1690
      6  C6       -14.4440    0.4060   12.4090 C.ar    1  LGV1        0.1058
      7  C7       -16.7490    8.3690   10.2640 C.ar    1  LGV1        0.1014
      8  C8       -14.1460    1.4960   11.6000 C.ar    1  LGV1        0.0744
      9  C9       -17.5770    6.6970   11.5070 C.ar    1  LGV1        0.1566
     10  C10      -18.9330    1.4430   13.6050 C.2     1  LGV1        0.0951
     11  C11      -18.7850    3.6650   13.3880 C.2     1  LGV1        0.3772
     12  C12      -12.3630    0.4360   13.3540 C.ar    1  LGV1        0.2223
     13  C13      -17.7880    5.3070   11.8330 C.2     1  LGV1        0.3417
     14  C14      -16.4970    4.8650    9.9180 C.1     1  LGV1        0.1085
     15  C15      -15.2270    1.9800   10.7030 C.2     1  LGV1        0.2673
     16  C16      -18.3440   -0.7040   12.1660 C.3     1  LGV1        0.0061
     17  C17      -19.8180   -0.7170   12.4470 C.3     1  LGV1        0.0061
     18  C18      -18.8680   -0.0760   13.4280 C.3     1  LGV1        0.0406
     19  C19      -15.9320    3.7260    9.1060 C.3     1  LGV1        0.2281
     20  N20      -13.5820   -0.1380   13.2800 N.ar    1  LGV1       -0.2163
     21  N21      -19.3920    3.4250   14.5620 N.2     1  LGV1        0.0793
     22  N22      -17.2260    4.4570   11.0090 N.2     1  LGV1       -0.3080
     23  N23      -16.2630    6.0910    9.5670 N.2     1  LGV1       -0.1014
     24  N24      -19.4720    2.0820   14.6740 N.2     1  LGV1       -0.0426
     25  N25      -16.8270    7.0110   10.3940 N.ar    1  LGV1       -0.2133
     26  N26      -18.5370    4.9380   12.9470 N.pl3   1  LGV1        0.0279
     27  N27      -14.9470    3.1040    9.9670 N.am    1  LGV1       -0.1840
     28  O28      -16.3050    1.3970   10.6820 O.2     1  LGV1       -0.2683
     29  F29      -11.5100   -0.1090   14.2230 F       1  LGV1       -0.1832
@<TRIPOS>BOND
     1    19    14    1
     2    19    27    1
     3    23    14    2
     4    23    25    1
     5    14    22    2
     6    27    15   am
     7     7    25   ar
     8     7     1   ar
     9    25     9   ar
    10    28    15    2
    11    15     8    1
    12    22    13    2
    13     1     3   ar
    14     9    13    1
    15     9     3   ar
    16     8     2   ar
    17     8     6   ar
    18     2     4   ar
    19    13    26    1
    20    16    17    1
    21    16    18    1
    22     6    20   ar
    23    17    18    1
    24     4    12   ar
    25     5    11    1
    26     5    10    1
    27    26    11    1
    28    20    12   ar
    29    12    29    1
    30    11    21    2
    31    18    10    1
    32    10    24    2
    33    21    24    1
