@<TRIPOS>MOLECULE
3nw9_637_A_1.pdb
 38 42 0 0 0
SMALL
GASTEIGER

@<TRIPOS>ATOM
      1  C1        -4.5520   21.3580   13.8700 C.3   228  637228      0.3188
      2  C2        -4.9640   20.7930   15.2380 C.3   228  637228      0.2572
      3  O3        -5.6940   21.8020   15.9520 O.3   228  637228     -0.2130
      4  C4        -3.6080   20.4670   15.8680 C.3   228  637228      0.2201
      5  O5        -2.8750   21.6380   16.2560 O.3   228  637228     -0.2172
      6  C6        -2.9100   19.9120   14.6360 C.3   228  637228      0.1740
      7  C7        -8.7350   21.6300    9.2800 C.3   228  637228      0.0537
      8  N8        -7.0700   20.1570   11.5080 N.2   228  637228     -0.2152
      9  C9        -6.2490   19.9830   12.4920 C.3   228  637228      0.3376
     10  N10       -5.6170   21.1970   12.8620 N.pl3 228  637228     -0.1441
     11  C11       -6.1200   22.1500   11.9970 C.2   228  637228      0.3426
     12  C12       -6.9880   21.4640   11.1670 C.2   228  637228      0.1750
     13  O13       -3.3990   20.6230   13.4490 O.3   228  637228     -0.3116
     14  C14       -3.2600   18.4530   14.5480 C.2   228  637228      0.0028
     15  C15       -2.5710   17.6950   13.7340 C.2   228  637228     -0.0049
     16  C16       -2.8960   16.2620   13.5590 C.3   228  637228      0.1413
     17  N17       -1.5760   15.6450   13.6800 N.am  228  637228     -0.1967
     18  C18       -1.6050   14.3830   14.2030 C.2   228  637228      0.2683
     19  O19       -2.6650   13.8920   14.6020 O.2   228  637228     -0.2682
     20  C20       -0.3160   13.7300   14.4410 C.ar  228  637228      0.0971
     21  C21       -0.3280   12.5350   15.1860 C.ar  228  637228      0.0080
     22  C22        0.8530   11.8320   15.4240 C.ar  228  637228      0.0035
     23  C23        2.0970   12.2920   14.9480 C.ar  228  637228      0.0454
     24  C24        0.7630   10.5780   16.2320 C.ar  228  637228      0.0002
     25  C25       -0.1400   10.5370   17.2750 C.ar  228  637228      0.0023
     26  C26       -0.1850    9.3640   18.0230 C.ar  228  637228      0.0296
     27  C27        1.6050    9.5480   15.8740 C.ar  228  637228      0.0023
     28  C28        1.5960    8.3670   16.6280 C.ar  228  637228      0.0296
     29  C29        0.6690    8.3320   17.6380 C.ar  228  637228      0.1401
     30  F30        0.7100    7.1280   18.3450 F     228  637228     -0.2042
     31  C31        0.8980   14.1650   13.9150 C.ar  228  637228      0.2386
     32  O32        1.0200   15.3210   13.2110 O.3   228  637228     -0.2830
     33  C33        2.0780   13.4830   14.2130 C.ar  228  637228      0.2344
     34  O34        3.3020   13.9580   13.7300 O.3   228  637228     -0.2831
     35  C35       -7.6780   22.2130   10.1960 C.2   228  637228      0.0831
     36  N38       -7.3920   23.5200   10.1170 N.2   228  637228     -0.2213
     37  C39       -6.4840   24.1120   10.9600 C.3   228  637228      0.3916
     38  N40       -5.8100   23.4560   11.9050 N.2   228  637228     -0.0349
@<TRIPOS>BOND
     1     7    35    1
     2    36    35    2
     3    36    37    1
     4    35    12    1
     5    37    38    1
     6    12     8    2
     7    12    11    1
     8     8     9    1
     9    38    11    2
    10    11    10    1
    11     9    10    1
    12    10     1    1
    13    32    31    1
    14    13     1    1
    15    13     6    1
    16    16    17    1
    17    16    15    1
    18    17    18   am
    19    34    33    1
    20    15    14    2
    21     1     2    1
    22    31    33   ar
    23    31    20   ar
    24    18    20    1
    25    18    19    2
    26    33    23   ar
    27    20    21   ar
    28    14     6    1
    29     6     4    1
    30    23    22   ar
    31    21    22   ar
    32     2     4    1
    33     2     3    1
    34    22    24    1
    35     4     5    1
    36    27    24   ar
    37    27    28   ar
    38    24    25   ar
    39    28    29   ar
    40    25    26   ar
    41    29    26   ar
    42    29    30    1
