@<TRIPOS>MOLECULE
3nwl_HEM_A_1.pdb
 43 50 0 0 0
SMALL
GASTEIGER

@<TRIPOS>ATOM
      1  CHA       61.0840   84.1590  146.3460 C.2   527  HEM527      0.0000
      2  CHB       62.3350   87.7440  143.4660 C.2   527  HEM527      0.0000
      3  CHC       61.3720   90.7770  147.0980 C.2   527  HEM527      0.0000
      4  CHD       59.1260   87.2940  149.5260 C.2   527  HEM527      0.0000
      5  C1A       61.5360   84.8310  145.2630 C.ar  527  HEM527      0.0000
      6  C2A       62.0480   84.2700  144.0270 C.ar  527  HEM527      0.0000
      7  C3A       62.4020   85.2890  143.2170 C.ar  527  HEM527      0.0000
      8  C4A       62.1450   86.4960  143.9470 C.ar  527  HEM527      0.0000
      9  CMA       62.9790   85.2450  141.7750 C.3   527  HEM527      0.0000
     10  CAA       62.0950   82.7640  143.6930 C.3   527  HEM527      0.0000
     11  CBA       60.6870   82.3650  143.2420 C.3   527  HEM527      0.0000
     12  CGA       60.6480   80.8850  142.9410 C.2   527  HEM527      0.0000
     13  O1A       59.6130   80.2450  143.2270 O.co2 527  HEM527      0.0000
     14  O2A       61.6290   80.3150  142.3950 O.co2 527  HEM527      0.0000
     15  C1B       62.1410   88.8840  144.1940 C.2   527  HEM527      0.0000
     16  C2B       62.3810   90.2270  143.7040 C.2   527  HEM527      0.0000
     17  C3B       62.1310   91.0600  144.7050 C.2   527  HEM527      0.0000
     18  C4B       61.7120   90.2710  145.8720 C.2   527  HEM527      0.0000
     19  CMB       62.8330   90.6050  142.2810 C.3   527  HEM527      0.0000
     20  CAB       62.2450   92.6110  144.6730 C.2   527  HEM527      0.0000
     21  CBB       61.9550   93.3010  143.5650 C.2   527  HEM527      0.0000
     22  C1C       60.5930   90.1460  148.0230 C.ar  527  HEM527      0.0000
     23  C2C       59.8340   90.7790  149.0950 C.ar  527  HEM527      0.0000
     24  C3C       59.1940   89.8140  149.7810 C.ar  527  HEM527      0.0000
     25  C4C       59.5490   88.5320  149.1640 C.ar  527  HEM527      0.0000
     26  CMC       59.7590   92.2950  149.4040 C.3   527  HEM527      0.0000
     27  CAC       58.2470   90.0540  151.0050 C.2   527  HEM527      0.0000
     28  CBC       57.2000   90.8990  150.9160 C.2   527  HEM527      0.0000
     29  C1D       59.4770   86.1340  148.9070 C.2   527  HEM527      0.0000
     30  C2D       59.0760   84.8250  149.3570 C.2   527  HEM527      0.0000
     31  C3D       59.6840   83.8630  148.3960 C.2   527  HEM527      0.0000
     32  C4D       60.3890   84.6720  147.4130 C.2   527  HEM527      0.0000
     33  CMD       58.2340   84.4140  150.5730 C.3   527  HEM527      0.0000
     34  CAD       59.5050   82.3470  148.4900 C.3   527  HEM527      0.0000
     35  CBD       58.1970   82.0220  147.7610 C.3   527  HEM527      0.0000
     36  CGD       58.0610   80.5170  147.6370 C.2   527  HEM527      0.0000
     37  O1D       57.8640   80.0280  146.4800 O.co2 527  HEM527      0.0000
     38  O2D       58.1880   79.8240  148.6850 O.co2 527  HEM527      0.0000
     39  NA        61.6050   86.1820  145.1730 N.ar  527  HEM527      0.0000
     40  NB        61.7240   88.9470  145.5130 N.2   527  HEM527      0.0000
     41  NC        60.3840   88.7770  148.0970 N.ar  527  HEM527      0.0000
     42  ND        60.2220   86.0080  147.7520 N.2   527  HEM527      0.0000
     43 FE         60.9430   87.4790  146.6270 Fe    527  HEM527      0.0000
@<TRIPOS>BOND
     1     9     7    1
     2    19    16    1
     3    14    12   ar
     4    12    13   ar
     5    12    11    1
     6     7     8   ar
     7     7     6   ar
     8    11    10    1
     9     2     8    2
    10     2    15    1
    11    21    20    2
    12    10     6    1
    13    16    15    1
    14    16    17    2
    15     8    39   ar
    16     6     5   ar
    17    15    40    2
    18    20    17    1
    19    17    18    1
    20    39     5   ar
    21    39    43    1
    22     5     1    2
    23    40    18    1
    24    40    43    1
    25    18     3    2
    26     1    32    1
    27    37    36   ar
    28    43    42    1
    29    43    41    1
    30     3    22    1
    31    32    42    2
    32    32    31    1
    33    36    35    1
    34    36    38   ar
    35    42    29    1
    36    35    34    1
    37    22    41   ar
    38    22    23   ar
    39    41    25   ar
    40    31    34    1
    41    31    30    2
    42    29    30    1
    43    29     4    2
    44    23    26    1
    45    23    24   ar
    46    25     4    1
    47    25    24   ar
    48    30    33    1
    49    24    27    1
    50    28    27    2
