@<TRIPOS>MOLECULE
3nwl_NDP_A_1.pdb
 48 52 0 0 0
SMALL
GASTEIGER

@<TRIPOS>ATOM
      1  PA        53.0560  100.2090  168.0210 P.3   528  NDP528      0.2189
      2  O1A       53.4330   99.9740  169.4760 O.3   528  NDP528     -0.4371
      3  O2A       51.5930  100.3470  167.6560 O.2   528  NDP528     -0.5170
      4  O5B       53.5720   98.9830  167.1530 O.3   528  NDP528     -0.3112
      5  C5B       54.8340   98.3950  167.4630 C.3   528  NDP528      0.1813
      6  C4B       54.9720   97.1120  166.6700 C.3   528  NDP528      0.1820
      7  O4B       56.3120   96.7010  166.7540 O.3   528  NDP528     -0.3136
      8  C3B       54.1310   95.9980  167.2730 C.3   528  NDP528      0.2157
      9  O3B       52.9400   95.7540  166.5080 O.3   528  NDP528     -0.2175
     10  C2B       55.0030   94.7710  167.2590 C.3   528  NDP528      0.2314
     11  O2B       54.5050   93.8230  166.3120 O.3   528  NDP528     -0.2630
     12  C1B       56.3160   95.2740  166.7090 C.3   528  NDP528      0.3158
     13  N9A       57.5050   94.6530  167.3770 N.pl3 528  NDP528     -0.1439
     14  C8A       57.7640   94.4590  168.7060 C.3   528  NDP528      0.3377
     15  N7A       58.9900   93.8640  168.8190 N.2   528  NDP528     -0.2095
     16  C5A       59.4440   93.6990  167.5460 C.2   528  NDP528      0.2526
     17  C6A       60.6570   93.1500  166.9470 C.2   528  NDP528      0.4393
     18  N6A       61.5720   92.6620  167.7950 N.pl3 528  NDP528      0.2180
     19  N1A       60.8160   93.1410  165.5720 N.2   528  NDP528      0.0021
     20  C2A       59.8710   93.6270  164.7450 C.3   528  NDP528      0.5254
     21  N3A       58.7530   94.1390  165.2880 N.2   528  NDP528     -0.0055
     22  C4A       58.5260   94.1870  166.6470 C.2   528  NDP528      0.3518
     23  O3        53.9230  101.4150  167.3710 O.3   528  NDP528     -0.2703
     24  PN        53.7040  101.9320  165.8320 P.3   528  NDP528      0.2189
     25  O1N       53.6060  103.4340  165.8640 O.3   528  NDP528     -0.4371
     26  O2N       52.6420  101.1060  165.1250 O.2   528  NDP528     -0.5170
     27  O5D       55.0990  101.6530  165.0190 O.3   528  NDP528     -0.3112
     28  C5D       56.3670  102.1270  165.4970 C.3   528  NDP528      0.1813
     29  C4D       57.5460  101.2540  165.0120 C.3   528  NDP528      0.1799
     30  O4D       57.3770   99.8320  165.2250 O.3   528  NDP528     -0.3327
     31  C3D       57.7660  101.4170  163.5340 C.3   528  NDP528      0.2158
     32  O3D       58.6490  102.5130  163.2920 O.3   528  NDP528     -0.2175
     33  C2D       58.3830  100.1020  163.1210 C.3   528  NDP528      0.2309
     34  O2D       59.8180  100.1980  163.2230 O.3   528  NDP528     -0.2158
     35  C1D       57.8340   99.0760  164.1040 C.3   528  NDP528      0.2263
     36  N1N       56.7460   98.2480  163.5210 N.pl3 528  NDP528     -0.2787
     37  C2N       55.5960   98.8130  163.1100 C.3   528  NDP528      0.1244
     38  C3N       54.5560   98.0280  162.5610 C.2   528  NDP528      0.0544
     39  C7N       53.3320   98.7400  162.0480 C.2   528  NDP528      0.2818
     40  O7N       52.7720   98.2780  161.0510 O.2   528  NDP528     -0.2670
     41  N7N       52.9540   99.8920  162.6360 N.am  528  NDP528     -0.0839
     42  C4N       54.7010   96.6310  162.4430 C.2   528  NDP528      0.0033
     43  C5N       55.8930   96.0480  162.8830 C.2   528  NDP528      0.0157
     44  C6N       56.8850   96.8910  163.4040 C.2   528  NDP528      0.0633
     45  P2B       53.2440   92.8620  166.6330 P.3   528  NDP528      0.5328
     46  O1X       52.8600   93.1130  168.0990 O.3   528  NDP528     -0.1145
     47  O2X       53.7760   91.4500  166.4520 O.3   528  NDP528     -0.1145
     48  O3X       52.3720   93.4110  165.4980 O.2   528  NDP528     -0.2224
@<TRIPOS>BOND
     1    40    39    2
     2    39    38    1
     3    39    41   am
     4    42    38    2
     5    42    43    1
     6    38    37    1
     7    43    44    2
     8    37    36    1
     9    33    34    1
    10    33    31    1
    11    33    35    1
    12    32    31    1
    13    44    36    1
    14    36    35    1
    15    31    29    1
    16    35    30    1
    17    20    21    1
    18    20    19    1
    19    29    30    1
    20    29    28    1
    21    27    28    1
    22    27    24    1
    23    26    24    2
    24    21    22    2
    25    48    45    2
    26    19    17    2
    27    24    25    1
    28    24    23    1
    29    11    45    1
    30    11    10    1
    31    47    45    1
    32     9     8    1
    33    45    46    1
    34    22    13    1
    35    22    16    1
    36     6     7    1
    37     6     8    1
    38     6     5    1
    39    12     7    1
    40    12    10    1
    41    12    13    1
    42    17    16    1
    43    17    18    1
    44     4     5    1
    45     4     1    1
    46    10     8    1
    47    23     1    1
    48    13    14    1
    49    16    15    2
    50     3     1    2
    51     1     2    1
    52    14    15    1
