@<TRIPOS>MOLECULE
3nwn_ADP_A_1.pdb
 27 29 0 0 0
SMALL
GASTEIGER

@<TRIPOS>ATOM
      1  PB        31.8900   42.8910   18.8690 P.3   401  ADP401      0.5373
      2  O1B       32.7550   43.8860   18.1780 O.3   401  ADP401     -0.1143
      3  O2B       30.5820   43.4960   19.3760 O.3   401  ADP401     -0.1143
      4  O3B       31.6380   41.6180   18.0950 O.2   401  ADP401     -0.2221
      5  PA        32.1920   42.3610   21.7390 P.3   401  ADP401      0.2231
      6  O1A       31.0980   41.3430   21.8630 O.2   401  ADP401     -0.5169
      7  O2A       31.9430   43.7070   22.3010 O.3   401  ADP401     -0.4370
      8  O3A       32.7160   42.4060   20.1880 O.3   401  ADP401     -0.2261
      9  O5'       33.4780   41.8000   22.4890 O.3   401  ADP401     -0.3111
     10  C5'       33.8730   40.4400   22.3040 C.3   401  ADP401      0.1813
     11  C4'       34.2840   39.8800   23.6540 C.3   401  ADP401      0.1821
     12  O4'       35.4190   40.6180   24.1230 O.3   401  ADP401     -0.3135
     13  C3'       33.2150   39.9970   24.7390 C.3   401  ADP401      0.2184
     14  O3'       33.1000   38.7620   25.4880 O.3   401  ADP401     -0.2174
     15  C2'       33.7060   41.0970   25.6440 C.3   401  ADP401      0.2570
     16  O2'       33.5300   40.7480   27.0120 O.3   401  ADP401     -0.2130
     17  C1'       35.1840   41.2070   25.3940 C.3   401  ADP401      0.3186
     18  N9        35.7110   42.5870   25.4170 N.pl3 401  ADP401     -0.1439
     19  C8        35.6960   43.4580   24.3940 C.3   401  ADP401      0.3377
     20  N7        36.2920   44.6150   24.7380 N.2   401  ADP401     -0.2095
     21  C5        36.6890   44.4870   26.0010 C.2   401  ADP401      0.2526
     22  C6        37.3820   45.3430   26.9920 C.2   401  ADP401      0.4393
     23  N6        37.7750   46.5750   26.6930 N.pl3 401  ADP401      0.2180
     24  N1        37.5890   44.8390   28.2110 N.2   401  ADP401      0.0021
     25  C2        37.2260   43.5850   28.5440 C.3   401  ADP401      0.5254
     26  N3        36.5980   42.7650   27.7000 N.2   401  ADP401     -0.0055
     27  C4        36.2980   43.1570   26.4430 C.2   401  ADP401      0.3518
@<TRIPOS>BOND
     1     4     1    2
     2     2     1    1
     3     1     3    1
     4     1     8    1
     5     8     5    1
     6     5     6    2
     7     5     7    1
     8     5     9    1
     9    10     9    1
    10    10    11    1
    11    11    12    1
    12    11    13    1
    13    12    17    1
    14    19    20    1
    15    19    18    1
    16    20    21    2
    17    13    14    1
    18    13    15    1
    19    17    18    1
    20    17    15    1
    21    18    27    1
    22    15    16    1
    23    21    27    1
    24    21    22    1
    25    27    26    2
    26    23    22    1
    27    22    24    2
    28    26    25    1
    29    24    25    1
