@<TRIPOS>MOLECULE
3nwv_HEM_A_1.pdb
 43 50 0 0 0
SMALL
GASTEIGER

@<TRIPOS>ATOM
      1  CHA       -9.9740  -15.8260    1.6090 C.2   105  HEM105      0.0000
      2  CHB      -11.0130  -20.5650    1.5590 C.2   105  HEM105      0.0000
      3  CHC       -6.7570  -21.5450   -0.6690 C.2   105  HEM105      0.0000
      4  CHD       -5.3680  -17.0720    0.5440 C.2   105  HEM105      0.0000
      5  C1A      -10.6810  -17.0110    1.6710 C.2   105  HEM105      0.0000
      6  C2A      -12.0940  -17.1910    1.9680 C.2   105  HEM105      0.0000
      7  C3A      -12.3740  -18.5010    1.9680 C.2   105  HEM105      0.0000
      8  C4A      -11.1550  -19.2020    1.6290 C.2   105  HEM105      0.0000
      9  CMA      -13.7340  -19.2000    2.2610 C.3   105  HEM105      0.0000
     10  CAA      -13.0380  -16.0480    2.3640 C.3   105  HEM105      0.0000
     11  CBA      -12.8010  -15.8440    3.8460 C.3   105  HEM105      0.0000
     12  CGA      -13.8110  -14.8350    4.4230 C.2   105  HEM105      0.0000
     13  O1A      -13.8770  -14.6600    5.6660 O.co2 105  HEM105      0.0000
     14  O2A      -14.5620  -14.1690    3.6480 O.co2 105  HEM105      0.0000
     15  C1B       -9.9280  -21.2350    0.9840 C.ar  105  HEM105      0.0000
     16  C2B       -9.8610  -22.6340    0.7610 C.ar  105  HEM105      0.0000
     17  C3B       -8.7080  -22.9230    0.1370 C.ar  105  HEM105      0.0000
     18  C4B       -7.9910  -21.6950   -0.0800 C.ar  105  HEM105      0.0000
     19  CMB      -10.9140  -23.6590    1.1700 C.3   105  HEM105      0.0000
     20  CAB       -8.3220  -24.3270   -0.3710 C.3   105  HEM105      0.0000
     21  CBB       -9.1170  -24.7470   -1.4290 C.3   105  HEM105      0.0000
     22  C1C       -5.9840  -20.4100   -0.4880 C.2   105  HEM105      0.0000
     23  C2C       -4.5770  -20.3010   -0.7610 C.2   105  HEM105      0.0000
     24  C3C       -4.1840  -19.0410   -0.4050 C.2   105  HEM105      0.0000
     25  C4C       -5.3400  -18.3520    0.0880 C.2   105  HEM105      0.0000
     26  CMC       -3.7760  -21.4970   -1.3250 C.3   105  HEM105      0.0000
     27  CAC       -2.7920  -18.4130   -0.5210 C.3   105  HEM105      0.0000
     28  CBC       -2.0180  -18.7670   -1.6140 C.3   105  HEM105      0.0000
     29  C1D       -6.4780  -16.3670    0.8850 C.ar  105  HEM105      0.0000
     30  C2D       -6.4100  -14.9640    1.0570 C.ar  105  HEM105      0.0000
     31  C3D       -7.8270  -14.5550    1.4130 C.ar  105  HEM105      0.0000
     32  C4D       -8.6100  -15.7590    1.3650 C.ar  105  HEM105      0.0000
     33  CMD       -5.1360  -14.0730    0.9100 C.3   105  HEM105      0.0000
     34  CAD       -8.3440  -13.1070    1.6510 C.3   105  HEM105      0.0000
     35  CBD       -8.8970  -12.6780    0.2710 C.3   105  HEM105      0.0000
     36  CGD       -9.4000  -11.2530    0.1980 C.2   105  HEM105      0.0000
     37  O1D       -9.5070  -10.5720    1.2510 O.co2 105  HEM105      0.0000
     38  O2D       -9.6970  -10.7660   -0.9330 O.co2 105  HEM105      0.0000
     39  NA       -10.1640  -18.2510    1.4190 N.2   105  HEM105      0.0000
     40  NB        -8.7710  -20.6870    0.4500 N.ar  105  HEM105      0.0000
     41  NC        -6.3950  -19.2030    0.0330 N.2   105  HEM105      0.0000
     42  ND        -7.7780  -16.8320    1.0420 N.ar  105  HEM105      0.0000
     43 FE         -8.2660  -18.7070    0.7410 Fe    105  HEM105      0.0000
@<TRIPOS>BOND
     1    28    27    1
     2    21    20    1
     3    26    23    1
     4    38    36   ar
     5    23    22    1
     6    23    24    2
     7     3    22    2
     8     3    18    1
     9    27    24    1
    10    22    41    1
    11    24    25    1
    12    20    17    1
    13    18    17   ar
    14    18    40   ar
    15    41    25    2
    16    41    43    1
    17    25     4    1
    18    17    16   ar
    19    36    35    1
    20    36    37   ar
    21    35    34    1
    22    40    43    1
    23    40    15   ar
    24     4    29    2
    25    43    42    1
    26    43    39    1
    27    16    15   ar
    28    16    19    1
    29    29    42   ar
    30    29    30   ar
    31    33    30    1
    32    15     2    1
    33    42    32   ar
    34    30    31   ar
    35    32    31   ar
    36    32     1    2
    37    31    34    1
    38    39     8    1
    39    39     5    2
    40     2     8    2
    41     1     5    1
    42     8     7    1
    43     5     6    1
    44     7     6    2
    45     7     9    1
    46     6    10    1
    47    10    11    1
    48    14    12   ar
    49    11    12    1
    50    12    13   ar
