@<TRIPOS>MOLECULE
3nww_3NW_A_1.pdb
 34 36 0 0 0
SMALL
GASTEIGER

@<TRIPOS>ATOM
      1  C1        -3.5610    0.9220   20.4690 C.3   361  3NW361      0.1204
      2  C2        -2.9290    1.0440   21.7220 C.2   361  3NW361      0.1372
      3  N3        -2.3930    2.2650   22.1030 N.2   361  3NW361     -0.3305
      4  C4        -2.4350    3.3690   21.3390 C.1   361  3NW361      0.2196
      5  N5        -3.0350    3.2950   20.1230 N.2   361  3NW361     -0.3311
      6  C6        -3.6000    2.0940   19.6720 C.2   361  3NW361      0.1294
      7  C7        -2.8040   -0.0900   22.6800 C.ar  361  3NW361      0.0780
      8  C8        -2.9980   -1.4720   22.4390 C.ar  361  3NW361      0.1096
      9  N9        -2.7800   -2.1540   23.5930 N.ar  361  3NW361     -0.2212
     10  C10       -2.4390   -1.4080   24.6770 C.ar  361  3NW361      0.1792
     11  S11       -2.3740    0.2510   24.2800 S.2   361  3NW361     -0.0478
     12  N12       -2.1680   -1.9840   26.0040 N.pl3 361  3NW361     -0.2165
     13  C13       -1.7040   -1.1800   27.1570 C.3   361  3NW361      0.0946
     14  C14       -0.2040   -0.9250   27.0220 C.3   361  3NW361      0.0234
     15  C15       -1.8580   -1.9620   28.4510 C.3   361  3NW361      0.0234
     16  N16       -1.8650    4.5080   21.8410 N.pl3 361  3NW361     -0.1503
     17  C17       -5.5950    1.6950   15.7160 C.ar  361  3NW361     -0.0003
     18  C18       -4.2660    1.9650   18.3460 C.ar  361  3NW361      0.0245
     19  C19       -3.5930    2.3120   17.0990 C.ar  361  3NW361      0.0017
     20  C20       -4.2380    2.1850   15.7950 C.ar  361  3NW361     -0.0025
     21  C21       -6.2670    1.3480   16.9470 C.ar  361  3NW361      0.0001
     22  C22       -5.6540    1.4650   18.2370 C.ar  361  3NW361      0.0020
     23  C23       -2.1790    2.8320   17.0650 C.3   361  3NW361      0.1432
     24  C24        1.9670    5.9860   22.1270 C.3   361  3NW361      0.0897
     25  N25        0.5030    6.1880   22.0070 N.3   361  3NW361     -0.2688
     26  C26       -0.1610    5.6690   23.2220 C.3   361  3NW361      0.0967
     27  C27       -0.8590    4.3590   22.9080 C.3   361  3NW361      0.1435
     28  C28        0.1930    7.6240   21.9340 C.3   361  3NW361      0.0897
     29  N29       -1.9550    3.6490   15.8730 N.am  361  3NW361     -0.1824
     30  C30       -0.7820    3.5740   15.1960 C.2   361  3NW361      0.3396
     31  N31       -0.6810    4.4670   14.1920 N.am  361  3NW361     -0.1872
     32  O32        0.0990    2.7670   15.4760 O.2   361  3NW361     -0.2492
     33  C33        0.5320    4.4640   13.3650 C.3   361  3NW361      0.1169
     34  C34        0.1160    4.3180   11.8940 C.3   361  3NW361      0.0253
@<TRIPOS>BOND
     1    34    33    1
     2    33    31    1
     3    31    30   am
     4    30    32    2
     5    30    29   am
     6    17    20   ar
     7    17    21   ar
     8    20    19   ar
     9    29    23    1
    10    21    22   ar
    11    23    19    1
    12    19    18   ar
    13    22    18   ar
    14    18     6    1
    15     6     5    2
    16     6     1    1
    17     5     4    2
    18     1     2    1
    19     4    16    1
    20     4     3    2
    21     2     3    2
    22     2     7    1
    23    16    27    1
    24    28    25    1
    25    25    24    1
    26    25    26    1
    27     8     7   ar
    28     8     9   ar
    29     7    11   ar
    30    27    26    1
    31     9    10   ar
    32    11    10   ar
    33    10    12    1
    34    12    13    1
    35    14    13    1
    36    13    15    1
