@<TRIPOS>MOLECULE
3nwy_GTP_A_1.pdb
 32 34 0 0 0
SMALL
GASTEIGER

@<TRIPOS>ATOM
      1  PG        76.0890   34.7720   13.7880 P.3   262  GTP262      0.5373
      2  O1G       77.3920   34.1160   13.3830 O.3   262  GTP262     -0.1143
      3  O2G       76.1170   36.2360   13.4090 O.3   262  GTP262     -0.1143
      4  O3G       74.9090   34.0690   13.1580 O.2   262  GTP262     -0.2221
      5  O3B       75.8940   34.6220   15.3670 O.3   262  GTP262     -0.2258
      6  PB        76.6170   33.3970   16.1030 P.3   262  GTP262      0.2277
      7  O1B       75.6820   32.7450   17.0900 O.3   262  GTP262     -0.4368
      8  O2B       77.2130   32.3720   15.1470 O.2   262  GTP262     -0.5168
      9  O3A       77.7530   34.1980   16.8870 O.3   262  GTP262     -0.2700
     10  PA        78.7990   33.4610   17.8520 P.3   262  GTP262      0.2189
     11  O1A       78.2660   33.5260   19.2630 O.3   262  GTP262     -0.4371
     12  O2A       80.1060   34.2290   17.7310 O.2   262  GTP262     -0.5170
     13  O5'       78.8690   31.9150   17.3860 O.3   262  GTP262     -0.3112
     14  C5'       80.0360   31.3630   16.8210 C.3   262  GTP262      0.1813
     15  C4'       80.4850   30.1280   17.5940 C.3   262  GTP262      0.1799
     16  O4'       80.7970   30.4540   18.9420 O.3   262  GTP262     -0.3326
     17  C3'       79.4050   29.0570   17.6360 C.3   262  GTP262      0.2158
     18  O3'       79.9580   27.8040   17.3240 O.3   262  GTP262     -0.2175
     19  C2'       78.8920   29.1300   19.0660 C.3   262  GTP262      0.2310
     20  O2'       78.3260   27.9250   19.5380 O.3   262  GTP262     -0.2158
     21  C1'       80.1490   29.5560   19.8180 C.3   262  GTP262      0.2293
     22  N9        79.8320   30.1580   21.1160 N.pl3 262  GTP262     -0.2354
     23  C8        79.1630   31.3230   21.3700 C.3   262  GTP262      0.2246
     24  N7        79.0760   31.4830   22.7190 N.2   262  GTP262     -0.2322
     25  C5        79.6810   30.4360   23.3240 C.2   262  GTP262      0.2182
     26  C6        79.8870   30.0900   24.6620 C.1   262  GTP262      0.2372
     27  O6        79.4910   30.8180   25.5790 O.2   262  GTP262     -0.2069
     28  N1        80.5500   28.9120   24.9560 N.2   262  GTP262     -0.2485
     29  C2        81.0110   28.1040   23.9330 C.1   262  GTP262      0.2531
     30  N2        81.6520   26.9740   24.1960 N.pl3 262  GTP262     -0.0226
     31  N3        80.8060   28.4560   22.6200 N.2   262  GTP262     -0.3074
     32  C4        80.1510   29.5980   22.3190 C.2   262  GTP262      0.2300
@<TRIPOS>BOND
     1     4     1    2
     2     2     1    1
     3     3     1    1
     4     1     5    1
     5     8     6    2
     6     5     6    1
     7     6     9    1
     8     6     7    1
     9    14    13    1
    10    14    15    1
    11     9    10    1
    12    18    17    1
    13    13    10    1
    14    15    17    1
    15    15    16    1
    16    17    19    1
    17    12    10    2
    18    10    11    1
    19    16    21    1
    20    19    20    1
    21    19    21    1
    22    21    22    1
    23    22    23    1
    24    22    32    1
    25    23    24    1
    26    32    31    2
    27    32    25    1
    28    31    29    2
    29    24    25    2
    30    25    26    1
    31    29    30    1
    32    29    28    2
    33    26    28    2
    34    26    27    2
