@<TRIPOS>MOLECULE
3nwy_UDP_B_1.pdb
 25 26 0 0 0
SMALL
GASTEIGER

@<TRIPOS>ATOM
      1  N1        59.2100   32.5690   40.3110 N.am  263  UDP263     -0.1996
      2  C2        59.6060   31.8900   39.1700 C.1   263  UDP263      0.2802
      3  N3        60.3200   30.7050   39.2720 N.2   263  UDP263     -0.2497
      4  C4        60.6520   30.1840   40.5020 C.1   263  UDP263      0.1941
      5  C5        60.2490   30.8640   41.6410 C.3   263  UDP263      0.1579
      6  C6        59.3410   31.9100   41.5080 C.3   263  UDP263      0.1249
      7  O2        59.3270   32.3060   38.0490 O.2   263  UDP263     -0.1922
      8  O4        61.2930   29.1410   40.5750 O.2   263  UDP263     -0.2133
      9  C1'       58.4580   33.8600   40.2110 C.3   263  UDP263      0.2361
     10  C2'       57.0230   33.6930   39.7220 C.3   263  UDP263      0.2316
     11  O2'       56.7230   34.6840   38.7710 O.3   263  UDP263     -0.2157
     12  C3'       56.2010   33.9060   40.9660 C.3   263  UDP263      0.2158
     13  C4'       57.0350   34.9510   41.6840 C.3   263  UDP263      0.1799
     14  O4'       58.3740   34.5390   41.4690 O.3   263  UDP263     -0.3322
     15  O3'       54.8980   34.3720   40.7250 O.3   263  UDP263     -0.2175
     16  C5'       56.6970   35.1180   43.1610 C.3   263  UDP263      0.1813
     17  O5'       56.6790   33.8720   43.8290 O.3   263  UDP263     -0.3111
     18  PA        55.2850   33.2250   44.3140 P.3   263  UDP263      0.2231
     19  O1A       54.2130   33.3920   43.2880 O.2   263  UDP263     -0.5169
     20  O2A       55.4830   31.7950   44.6560 O.3   263  UDP263     -0.4370
     21  O3A       55.0140   34.1450   45.6030 O.3   263  UDP263     -0.2261
     22  PB        53.9160   33.7680   46.7230 P.3   263  UDP263      0.5373
     23  O1B       53.6860   35.0060   47.5300 O.3   263  UDP263     -0.1143
     24  O2B       54.4300   32.6430   47.5440 O.3   263  UDP263     -0.1143
     25  O3B       52.6330   33.3160   46.1230 O.2   263  UDP263     -0.2221
@<TRIPOS>BOND
     1     7     2    2
     2    11    10    1
     3     2     3    2
     4     2     1   am
     5     3     4    2
     6    10     9    1
     7    10    12    1
     8     9     1    1
     9     9    14    1
    10     1     6    1
    11     4     8    2
    12     4     5    1
    13    15    12    1
    14    12    13    1
    15    14    13    1
    16     6     5    1
    17    13    16    1
    18    16    17    1
    19    19    18    2
    20    17    18    1
    21    18    20    1
    22    18    21    1
    23    21    22    1
    24    25    22    2
    25    22    23    1
    26    22    24    1
