@<TRIPOS>MOLECULE
3nwz_COA_C_1.pdb
 48 50 0 0 0
SMALL
GASTEIGER

@<TRIPOS>ATOM
      1  N1A       28.5990   10.5410   29.7950 N.2   270  COA270      0.0021
      2  C2A       28.4750   10.9400   31.0490 C.3   270  COA270      0.5254
      3  N3A       27.3180   10.8880   31.6860 N.2   270  COA270     -0.0055
      4  C4A       26.2240   10.4220   31.0690 C.2   270  COA270      0.3518
      5  C5A       26.3130    9.9940   29.7520 C.2   270  COA270      0.2526
      6  C6A       27.5470   10.0630   29.1150 C.2   270  COA270      0.4393
      7  N6A       27.6840    9.6530   27.8580 N.pl3 270  COA270      0.2180
      8  N7A       25.1050    9.5840   29.3820 N.2   270  COA270     -0.2095
      9  C8A       24.2860    9.7420   30.4200 C.3   270  COA270      0.3377
     10  N9A       24.9620   10.2480   31.4490 N.pl3 270  COA270     -0.1439
     11  C1B       24.4070   10.5310   32.7920 C.3   270  COA270      0.3185
     12  C2B       25.2190    9.9040   33.9230 C.3   270  COA270      0.2543
     13  O2B       25.0020    8.4900   33.9450 O.3   270  COA270     -0.2131
     14  C3B       24.5190   10.6020   35.0850 C.3   270  COA270      0.1928
     15  O3B       23.2170   10.0410   35.2800 O.3   270  COA270     -0.2673
     16  P3B       22.5100   10.1540   36.7220 P.3   270  COA270      0.5327
     17  O7A       21.8020   11.4410   36.9030 O.3   270  COA270     -0.1145
     18  O8A       21.5240    8.8880   36.8520 O.2   270  COA270     -0.2224
     19  O9A       23.6910    9.9440   37.7960 O.3   270  COA270     -0.1145
     20  C4B       24.4330   12.0360   34.5580 C.3   270  COA270      0.1795
     21  O4B       24.3980   11.9310   33.1210 O.3   270  COA270     -0.3136
     22  C5B       25.7110   12.7980   34.9200 C.3   270  COA270      0.1812
     23  O5B       25.7920   13.0150   36.3310 O.3   270  COA270     -0.3112
     24  P1A       27.0760   13.7520   36.9660 P.3   270  COA270      0.2189
     25  O1A       28.2990   13.0350   36.5400 O.2   270  COA270     -0.5170
     26  O2A       26.8200   13.9060   38.4160 O.3   270  COA270     -0.4371
     27  O3A       27.0350   15.1980   36.2590 O.3   270  COA270     -0.2703
     28  P2A       27.7430   16.4670   36.9510 P.3   270  COA270      0.2188
     29  O4A       26.8120   17.6110   36.8300 O.2   270  COA270     -0.5170
     30  O5A       28.2080   16.0820   38.3030 O.3   270  COA270     -0.4371
     31  O6A       29.0250   16.7250   36.0090 O.3   270  COA270     -0.3138
     32  CBP       28.5800   17.4950   33.7180 C.3   270  COA270      0.0645
     33  CCP       29.0890   17.8430   35.1190 C.3   270  COA270      0.1519
     34  CDP       29.2950   16.2370   33.2210 C.3   270  COA270      0.0056
     35  CEP       28.8780   18.6590   32.7700 C.3   270  COA270      0.0056
     36  CAP       27.0730   17.2290   33.7420 C.3   270  COA270      0.2312
     37  OAP       26.3900   18.3830   34.2400 O.3   270  COA270     -0.2131
     38  C9P       26.5880   16.9220   32.3230 C.2   270  COA270      0.2719
     39  O9P       26.5490   15.7660   31.9040 O.2   270  COA270     -0.2706
     40  N8P       26.2420   17.9810   31.5960 N.am  270  COA270     -0.2028
     41  C7P       25.7510   17.8510   30.2170 C.3   270  COA270      0.1248
     42  C6P       26.7160   18.5310   29.2420 C.3   270  COA270      0.1102
     43  C5P       26.1900   18.4270   27.8080 C.2   270  COA270      0.2432
     44  O5P       25.1180   17.8710   27.5740 O.2   270  COA270     -0.2733
     45  N4P       26.9600   18.9690   26.8670 N.am  270  COA270     -0.2044
     46  C3P       26.5590   18.9310   25.4530 C.3   270  COA270      0.1276
     47  C2P       27.5920   19.6430   24.5780 C.3   270  COA270      0.0920
     48  S1P       29.2310   18.8300   24.5960 S.3   270  COA270     -0.0802
@<TRIPOS>BOND
     1    47    48    1
     2    47    46    1
     3    46    45    1
     4    45    43   am
     5    44    43    2
     6    43    42    1
     7     7     6    1
     8     6     5    1
     9     6     1    2
    10    42    41    1
    11     8     5    2
    12     8     9    1
    13     5     4    1
    14     1     2    1
    15    41    40    1
    16     9    10    1
    17     2     3    1
    18     4    10    1
    19     4     3    2
    20    10    11    1
    21    40    38   am
    22    39    38    2
    23    38    36    1
    24    35    32    1
    25    11    21    1
    26    11    12    1
    27    21    20    1
    28    34    32    1
    29    32    36    1
    30    32    33    1
    31    36    37    1
    32    12    13    1
    33    12    14    1
    34    20    22    1
    35    20    14    1
    36    22    23    1
    37    14    15    1
    38    33    31    1
    39    15    16    1
    40    31    28    1
    41    27    28    1
    42    27    24    1
    43    23    24    1
    44    25    24    2
    45    16    18    2
    46    16    17    1
    47    16    19    1
    48    29    28    2
    49    28    30    1
    50    24    26    1
