@<TRIPOS>MOLECULE
3nx2_FER_A_1.pdb
 14 14 0 0 0
SMALL
GASTEIGER

@<TRIPOS>ATOM
      1  C4         9.6410   10.1380   14.6030 C.ar  169  FER169      0.2293
      2  C5         8.9120   11.2730   14.2800 C.ar  169  FER169      0.0449
      3  C6         8.1540   11.2940   13.1240 C.ar  169  FER169     -0.0008
      4  C3         9.6320    9.0500   13.7780 C.ar  169  FER169      0.1771
      5  C2         8.8910    9.0610   12.5640 C.ar  169  FER169      0.0360
      6  C1         8.1200   10.2110   12.2610 C.ar  169  FER169     -0.0184
      7  C10       10.4370    7.3990   15.5440 C.3   169  FER169      0.2526
      8  C7         7.3140   10.4720   11.0520 C.3   169  FER169      0.0383
      9  C8         7.8610   11.5940   10.5950 C.3   169  FER169      0.1187
     10  C9         7.7510   12.5750    9.5060 C.2   169  FER169      0.3652
     11  O1         7.0710   12.5050    8.5510 O.co2 169  FER169     -0.2456
     12  O2         8.4480   13.5540    9.6050 O.co2 169  FER169     -0.2456
     13  O4        10.3810   10.0700   15.7580 O.3   169  FER169     -0.2833
     14  O3        10.4100    7.9990   14.2260 O.3   169  FER169     -0.4682
@<TRIPOS>BOND
     1    11    10   ar
     2    10    12   ar
     3    10     9    1
     4     9     8    1
     5     8     6    1
     6     6     5   ar
     7     6     3   ar
     8     5     4   ar
     9     3     2   ar
    10     4    14    1
    11     4     1   ar
    12    14     7    1
    13     2     1   ar
    14     1    13    1
