@<TRIPOS>MOLECULE
3nx4_NAP_A_1.pdb
 48 52 0 0 0
SMALL
GASTEIGER

@<TRIPOS>ATOM
      1  PA        30.6150   35.2860   -2.9830 P.3   330  NAP330      0.2189
      2  O1A       31.7460   36.2280   -2.9470 O.3   330  NAP330     -0.4371
      3  O2A       30.0970   34.8900   -4.3020 O.2   330  NAP330     -0.5170
      4  O5B       30.9460   33.9980   -2.0970 O.3   330  NAP330     -0.3112
      5  C5B       30.1510   32.8540   -2.2400 C.3   330  NAP330      0.1813
      6  C4B       31.1190   31.6820   -2.1680 C.3   330  NAP330      0.1820
      7  O4B       30.3810   30.4940   -2.0860 O.3   330  NAP330     -0.3136
      8  C3B       31.9950   31.5690   -3.4180 C.3   330  NAP330      0.2157
      9  O3B       33.2180   32.2560   -3.2360 O.3   330  NAP330     -0.2175
     10  C2B       32.2310   30.0750   -3.5290 C.3   330  NAP330      0.2314
     11  O2B       33.3560   29.7720   -2.7390 O.3   330  NAP330     -0.2630
     12  C1B       31.0160   29.4730   -2.8440 C.3   330  NAP330      0.3158
     13  N9A       30.0310   28.9710   -3.8130 N.pl3 330  NAP330     -0.1439
     14  C8A       29.5630   29.6080   -4.9360 C.3   330  NAP330      0.3377
     15  N7A       28.6460   28.8000   -5.5230 N.2   330  NAP330     -0.2095
     16  C5A       28.5160   27.6780   -4.7860 C.2   330  NAP330      0.2526
     17  C6A       27.7340   26.5390   -4.9300 C.2   330  NAP330      0.4393
     18  N6A       26.9020   26.4040   -5.9550 N.pl3 330  NAP330      0.2180
     19  N1A       27.8240   25.5420   -3.9910 N.2   330  NAP330      0.0021
     20  C2A       28.6860   25.6660   -2.9220 C.3   330  NAP330      0.5254
     21  N3A       29.4680   26.7940   -2.7850 N.2   330  NAP330     -0.0055
     22  C4A       29.3820   27.7780   -3.7060 C.2   330  NAP330      0.3518
     23  O3        29.3660   35.9220   -2.1770 O.3   330  NAP330     -0.2703
     24  PN        29.3610   36.9000   -0.9080 P.3   330  NAP330      0.2189
     25  O1N       29.1570   38.3020   -1.3390 O.2   330  NAP330     -0.5170
     26  O2N       30.5530   36.5550   -0.1000 O.3   330  NAP330     -0.4371
     27  O5D       28.0240   36.3540   -0.1940 O.3   330  NAP330     -0.3112
     28  C5D       28.0020   35.0240    0.2670 C.3   330  NAP330      0.1813
     29  C4D       26.5680   34.6080    0.5540 C.3   330  NAP330      0.1799
     30  O4D       26.0920   35.3840    1.6270 O.3   330  NAP330     -0.3327
     31  C3D       25.6510   34.8940   -0.6230 C.3   330  NAP330      0.2158
     32  O3D       24.6770   33.8760   -0.7040 O.3   330  NAP330     -0.2175
     33  C2D       24.9870   36.2030   -0.2630 C.3   330  NAP330      0.2309
     34  O2D       23.6980   36.2990   -0.8180 O.3   330  NAP330     -0.2158
     35  C1D       24.9200   36.0720    1.2450 C.3   330  NAP330      0.2263
     36  N1N       24.8640   37.3530    1.9600 N.pl3 330  NAP330     -0.2787
     37  C2N       23.7650   37.6070    2.7290 C.3   330  NAP330      0.1244
     38  C3N       23.6510   38.7890    3.4550 C.2   330  NAP330      0.0544
     39  C7N       22.7250   38.7750    4.6400 C.2   330  NAP330      0.2818
     40  O7N       22.0410   39.9430    5.0130 O.2   330  NAP330     -0.2670
     41  N7N       22.5760   37.6380    5.3100 N.am  330  NAP330     -0.0839
     42  C4N       24.6850   39.7230    3.3890 C.2   330  NAP330      0.0033
     43  C5N       25.8110   39.4500    2.6000 C.2   330  NAP330      0.0157
     44  C6N       25.8920   38.2500    1.8960 C.2   330  NAP330      0.0633
     45  P2B       34.3860   28.5990   -3.1790 P.3   330  NAP330      0.5328
     46  O1X       35.6250   28.7700   -2.3430 O.3   330  NAP330     -0.1145
     47  O2X       33.7640   27.2510   -2.9040 O.3   330  NAP330     -0.1145
     48  O3X       34.6860   28.7680   -4.6440 O.2   330  NAP330     -0.2224
@<TRIPOS>BOND
     1    18    17    1
     2    15    14    1
     3    15    16    2
     4    14    13    1
     5    17    16    1
     6    17    19    2
     7    16    22    1
     8    48    45    2
     9     3     1    2
    10    19    20    1
    11    13    22    1
    12    13    12    1
    13    22    21    2
    14    10     8    1
    15    10    12    1
    16    10    11    1
    17     8     9    1
    18     8     6    1
    19    45    47    1
    20    45    11    1
    21    45    46    1
    22     1     2    1
    23     1    23    1
    24     1     4    1
    25    20    21    1
    26    12     7    1
    27     5     6    1
    28     5     4    1
    29    23    24    1
    30     6     7    1
    31    25    24    2
    32    24    27    1
    33    24    26    1
    34    34    33    1
    35    32    31    1
    36    31    33    1
    37    31    29    1
    38    33    35    1
    39    27    28    1
    40    28    29    1
    41    29    30    1
    42    35    30    1
    43    35    36    1
    44    44    36    1
    45    44    43    2
    46    36    37    1
    47    43    42    1
    48    37    38    1
    49    42    38    2
    50    38    39    1
    51    39    40    2
    52    39    41   am
