@<TRIPOS>MOLECULE
3nx7_NHK_A_1.pdb
 20 20 0 0 0
SMALL
GASTEIGER

@<TRIPOS>ATOM
      1  O4        -0.2430   -5.7120   -5.3860 O.2     0  NHK0       -0.1528
      2  S1        -1.4900   -6.1600   -4.8000 S.O2    0  NHK0        0.0637
      3  O3        -1.4100   -7.5380   -4.3830 O.2     0  NHK0       -0.1528
      4  N2        -1.8370   -5.2410   -3.5980 N.3     0  NHK0       -0.1464
      5  C10       -1.2680   -3.8930   -3.4700 C.3     0  NHK0        0.1467
      6  C9        -2.2030   -2.9050   -4.1410 C.2     0  NHK0        0.1047
      7  O1        -3.3770   -2.8350   -3.8030 O.2     0  NHK0       -0.5381
      8  N1        -1.6850   -2.1590   -5.1280 N.am    0  NHK0       -0.2015
      9  O2        -2.4920   -1.2610   -5.8170 O.3     0  NHK0       -0.4026
     10  C8        -2.8340   -5.7010   -2.6370 C.3     0  NHK0        0.1317
     11  C6        -2.4700   -5.2410   -1.2260 C.3     0  NHK0        0.2012
     12  O6        -1.2690   -5.8930   -0.7980 O.3     0  NHK0       -0.2188
     13  C3        -2.6440   -6.0560   -5.9100 C.ar    0  NHK0        0.1224
     14  C5        -2.4930   -5.1620   -6.9740 C.ar    0  NHK0        0.0230
     15  C7        -3.4650   -5.0800   -7.9640 C.ar    0  NHK0        0.0383
     16  C4        -4.6030   -5.8860   -7.9030 C.ar    0  NHK0        0.1388
     17  C2        -4.7570   -6.7880   -6.8420 C.ar    0  NHK0        0.0383
     18  C1        -3.7760   -6.8890   -5.8520 C.ar    0  NHK0        0.0230
     19  O5        -5.5270   -5.7660   -8.9160 O.3     0  NHK0       -0.4714
     20  C11       -6.5950   -6.6760   -9.1820 C.3     0  NHK0        0.2525
@<TRIPOS>BOND
     1    20    19    1
     2    19    16    1
     3    15    16   ar
     4    15    14   ar
     5    16    17   ar
     6    14    13   ar
     7    17    18   ar
     8    13    18   ar
     9    13     2    1
    10     9     8    1
    11     1     2    2
    12     8     6   am
    13     2     3    2
    14     2     4    1
    15     6     7    2
    16     6     5    1
    17     4     5    1
    18     4    10    1
    19    10    11    1
    20    11    12    1
