@<TRIPOS>MOLECULE
3nx9_MAL_A_1.pdb
 23 24 0 0 0
SMALL
GASTEIGER

@<TRIPOS>ATOM
      1  C1       -15.4400  -17.2340   -7.9940 C.3   249  MAL249      0.2695
      2  C2       -16.6490  -16.8660   -7.1230 C.3   249  MAL249      0.2406
      3  C3       -16.9880  -15.3770   -7.2120 C.3   249  MAL249      0.2198
      4  C4       -17.0790  -14.8380   -8.6410 C.3   249  MAL249      0.2144
      5  C5       -16.3970  -15.7680   -9.6430 C.3   249  MAL249      0.1835
      6  C6       -15.9420  -14.9750  -10.8520 C.3   249  MAL249      0.2142
      7  O1       -15.5300  -18.5620   -8.4530 O.3   249  MAL249     -0.3257
      8  O2       -17.7720  -17.6590   -7.4520 O.3   249  MAL249     -0.2149
      9  O3       -15.9450  -14.7010   -6.5440 O.3   249  MAL249     -0.2174
     10  O4       -18.4250  -14.6280   -9.0320 O.3   249  MAL249     -0.2176
     11  O5       -15.2450  -16.3650   -9.0970 O.3   249  MAL249     -0.3256
     12  O6       -15.7660  -15.8290  -11.9550 O.3   249  MAL249     -0.2176
     13  C1'      -13.6180  -21.9730   -9.2830 C.3   249  MAL249      0.3023
     14  C2'      -13.3250  -21.4980   -7.8610 C.3   249  MAL249      0.2433
     15  C3'      -14.1520  -20.2600   -7.4780 C.3   249  MAL249      0.2168
     16  C4'      -14.2960  -19.2240   -8.5990 C.3   249  MAL249      0.1804
     17  C5'      -14.1770  -19.7090  -10.0460 C.3   249  MAL249      0.1804
     18  C6'      -13.4800  -18.6000  -10.8300 C.3   249  MAL249      0.2141
     19  O1'      -14.9180  -22.5220   -9.3730 O.3   249  MAL249     -0.1869
     20  O2'      -13.6240  -22.5460   -6.9520 O.3   249  MAL249     -0.2148
     21  O3'      -13.5780  -19.6060   -6.3490 O.3   249  MAL249     -0.2175
     22  O5'      -13.4250  -20.9050  -10.2030 O.3   249  MAL249     -0.3237
     23  O6'      -13.6350  -18.7940  -12.2170 O.3   249  MAL249     -0.2176
@<TRIPOS>BOND
     1    23    18    1
     2    12     6    1
     3     6     5    1
     4    18    17    1
     5    22    17    1
     6    22    13    1
     7    17    16    1
     8     5    11    1
     9     5     4    1
    10    19    13    1
    11    13    14    1
    12    11     1    1
    13    10     4    1
    14     4     3    1
    15    16     7    1
    16    16    15    1
    17     7     1    1
    18     1     2    1
    19    14    15    1
    20    14    20    1
    21    15    21    1
    22     8     2    1
    23     3     2    1
    24     3     9    1
