@<TRIPOS>MOLECULE
3nxd_SIA_B_1.pdb
 20 20 0 0 0
SMALL
GASTEIGER

@<TRIPOS>ATOM
      1  C1        19.6150   24.3950    9.6580 C.2     1  SIA1        0.3914
      2  C2        18.7300   25.5530   10.1000 C.3     1  SIA1        0.2203
      3  C3        17.4740   25.0200   10.8120 C.3     1  SIA1        0.0760
      4  C4        17.7650   24.4530   12.2060 C.3     1  SIA1        0.1773
      5  C5        18.5830   25.4300   13.0520 C.3     1  SIA1        0.1552
      6  C6        19.8190   25.8790   12.2630 C.3     1  SIA1        0.1710
      7  C7        20.7170   26.8830   12.9980 C.3     1  SIA1        0.2134
      8  C8        21.8820   27.3730   12.1400 C.3     1  SIA1        0.2173
      9  C9        23.0340   27.8560   13.0120 C.3     1  SIA1        0.2175
     10  C10       19.0100   25.4540   15.4710 C.2     1  SIA1        0.2420
     11  C11       19.4360   24.6330   16.6510 C.3     1  SIA1        0.0964
     12  N5        18.9650   24.8020   14.3060 N.am    1  SIA1       -0.2020
     13  O1A       20.8600   24.5490    9.6260 O.co2   1  SIA1       -0.2430
     14  O1B       19.0730   23.3200    9.3110 O.co2   1  SIA1       -0.2430
     15  O4        16.5370   24.1310   12.8710 O.3     1  SIA1       -0.2211
     16  O6        19.4200   26.4340   10.9990 O.3     1  SIA1       -0.3429
     17  O7        19.9440   28.0100   13.4270 O.3     1  SIA1       -0.2176
     18  O8        22.3430   26.3300   11.2700 O.3     1  SIA1       -0.2175
     19  O9        24.0620   28.3880   12.1710 O.3     1  SIA1       -0.2175
     20  O10       18.7340   26.6380   15.5810 O.2     1  SIA1       -0.2733
@<TRIPOS>BOND
     1    14     1   ar
     2    13     1   ar
     3     1     2    1
     4     2     3    1
     5     2    16    1
     6     3     4    1
     7    16     6    1
     8    18     8    1
     9     8     7    1
    10     8     9    1
    11    19     9    1
    12     4    15    1
    13     4     5    1
    14     6     7    1
    15     6     5    1
    16     7    17    1
    17     5    12    1
    18    12    10   am
    19    10    20    2
    20    10    11    1
