@<TRIPOS>MOLECULE
3nxo_NDP_A_1.pdb
 48 52 0 0 0
SMALL
GASTEIGER

@<TRIPOS>ATOM
      1  PA        22.3810    6.0260  -10.1020 P.3   193  NDP193      0.2189
      2  O1A       23.3560    6.9730   -9.7220 O.2   193  NDP193     -0.5170
      3  O2A       21.1040    6.2760   -9.5250 O.3   193  NDP193     -0.4371
      4  O5B       22.1400    5.9690  -11.6430 O.3   193  NDP193     -0.3112
      5  C5B       23.2440    5.8730  -12.6220 C.3   193  NDP193      0.1813
      6  C4B       22.7010    6.3950  -13.9390 C.3   193  NDP193      0.1820
      7  O4B       22.2760    7.8480  -13.6180 O.3   193  NDP193     -0.3136
      8  C3B       23.9340    6.5410  -14.8520 C.3   193  NDP193      0.2157
      9  O3B       24.0620    5.3630  -15.7200 O.3   193  NDP193     -0.2175
     10  C2B       23.6260    7.8960  -15.5120 C.3   193  NDP193      0.2314
     11  O2B       22.7250    7.7110  -16.4960 O.3   193  NDP193     -0.2630
     12  C1B       22.8360    8.7390  -14.4540 C.3   193  NDP193      0.3158
     13  N9A       23.9230    9.4890  -13.6940 N.pl3 193  NDP193     -0.1439
     14  C8A       24.4250    9.1720  -12.4490 C.3   193  NDP193      0.3377
     15  N7A       25.2940   10.1890  -12.1550 N.2   193  NDP193     -0.2095
     16  C5A       25.2440   11.1940  -13.0700 C.2   193  NDP193      0.2526
     17  C6A       25.8470   12.4610  -13.2870 C.2   193  NDP193      0.4393
     18  N6A       26.7290   13.1110  -12.4620 N.pl3 193  NDP193      0.2180
     19  N1A       25.5130   13.1010  -14.4450 N.2   193  NDP193      0.0021
     20  C2A       24.6480   12.6090  -15.3430 C.3   193  NDP193      0.5254
     21  N3A       24.0880   11.4560  -15.1940 N.2   193  NDP193     -0.0055
     22  C4A       24.3880   10.7110  -14.0790 C.2   193  NDP193      0.3518
     23  O3        22.8200    4.4950   -9.8520 O.3   193  NDP193     -0.2703
     24  PN        23.3660    3.2900   -8.8160 P.3   193  NDP193      0.2189
     25  O1N       23.4040    1.8390   -9.4310 O.2   193  NDP193     -0.5170
     26  O2N       24.5790    3.8850   -8.2180 O.3   193  NDP193     -0.4371
     27  O5D       22.2100    3.2780   -7.8200 O.3   193  NDP193     -0.3112
     28  C5D       20.9790    2.7090   -7.8270 C.3   193  NDP193      0.1813
     29  C4D       21.0160    1.6740   -6.6580 C.3   193  NDP193      0.1799
     30  O4D       21.2910    2.2500   -5.2890 O.3   193  NDP193     -0.3327
     31  C3D       19.7180    0.9180   -6.5240 C.3   193  NDP193      0.2158
     32  O3D       20.0790   -0.3140   -5.8780 O.3   193  NDP193     -0.2175
     33  C2D       18.8850    1.6700   -5.4640 C.3   193  NDP193      0.2309
     34  O2D       18.0470    0.7730   -4.6330 O.3   193  NDP193     -0.2158
     35  C1D       20.0120    2.0730   -4.4880 C.3   193  NDP193      0.2263
     36  N1N       20.0000    3.3230   -3.6880 N.pl3 193  NDP193     -0.2787
     37  C2N       20.0870    3.1080   -2.2770 C.3   193  NDP193      0.1244
     38  C3N       20.0980    4.2090   -1.4600 C.2   193  NDP193      0.0544
     39  C7N       20.2330    3.9020    0.0400 C.2   193  NDP193      0.2818
     40  O7N       20.4770    2.6690    0.5980 O.2   193  NDP193     -0.2670
     41  N7N       20.1710    4.9340    0.7550 N.am  193  NDP193     -0.0839
     42  C4N       20.0210    5.5100   -2.0500 C.2   193  NDP193      0.0033
     43  C5N       19.8950    5.6540   -3.4890 C.2   193  NDP193      0.0157
     44  C6N       19.8800    4.5910   -4.4290 C.2   193  NDP193      0.0633
     45  P2B       22.8760    7.7780  -18.0110 P.3   193  NDP193      0.5328
     46  O1X       23.6460    9.0000  -18.4510 O.3   193  NDP193     -0.1145
     47  O2X       21.4590    7.8290  -18.5090 O.2   193  NDP193     -0.2224
     48  O3X       23.5660    6.5250  -18.4730 O.3   193  NDP193     -0.1145
@<TRIPOS>BOND
     1    47    45    2
     2    48    45    1
     3    46    45    1
     4    45    11    1
     5    11    10    1
     6     9     8    1
     7    10     8    1
     8    10    12    1
     9    20    21    1
    10    20    19    1
    11    21    22    2
    12     8     6    1
    13    12    13    1
    14    12     7    1
    15    19    17    2
    16    22    13    1
    17    22    16    1
    18     6     7    1
    19     6     5    1
    20    13    14    1
    21    17    16    1
    22    17    18    1
    23    16    15    2
    24     5     4    1
    25    14    15    1
    26     4     1    1
    27     1    23    1
    28     1     2    2
    29     1     3    1
    30    23    24    1
    31    25    24    2
    32    24    26    1
    33    24    27    1
    34    28    27    1
    35    28    29    1
    36    29    31    1
    37    29    30    1
    38    31    32    1
    39    31    33    1
    40    33    34    1
    41    33    35    1
    42    30    35    1
    43    35    36    1
    44    44    36    1
    45    44    43    2
    46    36    37    1
    47    43    42    1
    48    37    38    1
    49    42    38    2
    50    38    39    1
    51    39    40    2
    52    39    41   am
