@<TRIPOS>MOLECULE
3nxo_D2B_A_1.pdb
 24 26 0 0 0
SMALL
GASTEIGER

@<TRIPOS>ATOM
      1  N1        18.3990    7.4850    2.7330 N.2   187  D2B187     -0.3110
      2  C2        17.8910    6.8630    3.7910 C.1   187  D2B187      0.2450
      3  N3        16.8680    5.9390    3.7380 N.2   187  D2B187     -0.2915
      4  C4        16.2830    5.7940    2.5590 C.2   187  D2B187      0.2814
      5  C5        16.7780    6.3020    1.3740 C.3   187  D2B187      0.1861
      6  C6        17.8910    7.1780    1.5080 C.2   187  D2B187      0.2239
      7  CAB       14.2450    2.1620   -2.8100 C.3   187  D2B187      0.2525
      8  CAC       15.2780    5.5660   -4.4420 C.3   187  D2B187      0.0047
      9  NAD       18.3820    7.1350    5.0000 N.pl3 187  D2B187     -0.0231
     10  NAE       18.4640    7.8490    0.4940 N.pl3 187  D2B187     -0.0961
     11  CAF       15.9300    6.2520   -0.9910 C.2   187  D2B187     -0.0044
     12  CAG       10.9460    4.7340   -1.6950 C.ar  187  D2B187      0.0031
     13  CAH       11.1680    6.1160   -1.6290 C.ar  187  D2B187      0.0002
     14  CAI       12.0100    3.8410   -1.8470 C.ar  187  D2B187      0.0369
     15  CAJ       12.4810    6.5950   -1.6690 C.ar  187  D2B187      0.0027
     16  CAK       14.9380    5.0850    0.9690 C.2   187  D2B187      0.1788
     17  CAL       15.7100    7.9530   -3.5200 C.3   187  D2B187      0.0047
     18  OAO       14.4180    3.4600   -2.0810 O.3   187  D2B187     -0.4714
     19  OAP       15.2270    4.9440    2.3660 O.2   187  D2B187     -0.4265
     20  CAQ       14.8550    6.2120   -1.9160 C.2   187  D2B187     -0.0198
     21  CAS       15.8310    5.9140    0.3830 C.2   187  D2B187      0.0330
     22  CAU       13.3400    4.3240   -1.9300 C.ar  187  D2B187      0.1383
     23  CAV       13.5610    5.7090   -1.7710 C.ar  187  D2B187      0.0300
     24  CAY       14.9520    6.6890   -3.3980 C.3   187  D2B187      0.0224
@<TRIPOS>BOND
     1     8    24    1
     2    17    24    1
     3    24    20    1
     4     7    18    1
     5    18    22    1
     6    22    14   ar
     7    22    23   ar
     8    20    23    1
     9    20    11    2
    10    14    12   ar
    11    23    15   ar
    12    12    13   ar
    13    15    13   ar
    14    11    21    1
    15    21    16    2
    16    21     5    1
    17    10     6    1
    18    16    19    1
    19     5     6    1
    20     5     4    1
    21     6     1    2
    22    19     4    1
    23     4     3    2
    24     1     2    2
    25     3     2    2
    26     2     9    1
