@<TRIPOS>MOLECULE
3nxq_FUC_B_1.pdb
 10 10 0 0 0
SMALL
GASTEIGER

@<TRIPOS>ATOM
      1  C1        21.9240   14.6500   -1.8970 C.3   631  FUC631      0.1776
      2  C2        21.2830   13.7460   -2.9540 C.3   631  FUC631      0.2141
      3  C3        19.7920   14.0600   -3.0410 C.3   631  FUC631      0.2172
      4  C4        19.5740   15.5420   -3.3590 C.3   631  FUC631      0.2116
      5  C5        20.4070   16.4460   -2.4320 C.3   631  FUC631      0.1483
      6  C6        20.3820   17.9070   -2.8840 C.3   631  FUC631      0.0349
      7  O2        21.4860   12.3790   -2.6610 O.3   631  FUC631     -0.2176
      8  O3        19.1940   13.2400   -4.0220 O.3   631  FUC631     -0.2175
      9  O4        19.8570   15.7910   -4.7240 O.3   631  FUC631     -0.2177
     10  O5        21.7560   16.0030   -2.2950 O.3   631  FUC631     -0.3508
@<TRIPOS>BOND
     1     9     4    1
     2     8     3    1
     3     4     3    1
     4     4     5    1
     5     3     2    1
     6     2     7    1
     7     2     1    1
     8     6     5    1
     9     5    10    1
    10    10     1    1
