@<TRIPOS>MOLECULE
3nxq_RX4_A_1.pdb
 34 34 0 0 0
SMALL
GASTEIGER

@<TRIPOS>ATOM
      1  CAX       -7.5060  -19.3570  -23.2410 C.2   700  RX4700      0.2423
      2  CAA       -7.7620  -18.3480  -22.1590 C.3   700  RX4700      0.0964
      3  OAE       -8.3630  -19.6230  -24.0750 O.2   700  RX4700     -0.2733
      4  CBB       -4.1880  -18.8950  -23.0540 C.2   700  RX4700      0.2622
      5  OAI       -4.0730  -19.0630  -24.2540 O.2   700  RX4700     -0.2715
      6  CBF       -5.2250  -19.6980  -22.3380 C.3   700  RX4700      0.1839
      7  CAR       -4.6910  -21.0680  -21.9530 C.3   700  RX4700      0.1450
      8  CAZ       -5.7510  -21.7530  -21.1230 C.2   700  RX4700      0.3671
      9  OAK       -6.0410  -21.2440  -20.0210 O.co2 700  RX4700     -0.2456
     10  OAG       -6.3050  -22.7880  -21.5640 O.co2 700  RX4700     -0.2456
     11  NAU       -6.3150  -19.9630  -23.2680 N.am  700  RX4700     -0.1972
     12  CAP       -5.1940  -15.4070  -22.0910 C.ar  700  RX4700     -0.0042
     13  CAN       -6.4970  -15.0460  -22.4600 C.ar  700  RX4700     -0.0003
     14  CAM       -6.7680  -14.6290  -23.7650 C.ar  700  RX4700     -0.0000
     15  CAO       -5.7360  -14.5760  -24.7010 C.ar  700  RX4700     -0.0003
     16  CAQ       -4.4340  -14.9330  -24.3340 C.ar  700  RX4700     -0.0042
     17  CBC       -4.1590  -15.3530  -23.0300 C.ar  700  RX4700     -0.0199
     18  CAS       -2.7480  -15.7500  -22.6310 C.3   700  RX4700      0.0581
     19  CBG       -2.4510  -17.2060  -23.0280 C.3   700  RX4700      0.1788
     20  P1        -0.7630  -17.7120  -22.5710 P.3   700  RX4700      0.2733
     21  O4        -0.5340  -19.0460  -23.2270 O.2   700  RX4700     -0.2852
     22  O3        -0.5880  -17.6640  -21.0700 O.3   700  RX4700     -0.1661
     23  NAW       -3.4480  -18.0280  -22.3510 N.am  700  RX4700     -0.1953
     24  CAT        0.3200  -16.4960  -23.3570 C.3   700  RX4700      0.1002
     25  CBD        1.6900  -16.4160  -22.6870 C.3   700  RX4700      0.0880
     26  CAB        2.7360  -16.0930  -23.7530 C.3   700  RX4700      0.0102
     27  CBA        1.7230  -15.2970  -21.6820 C.2   700  RX4700      0.2418
     28  OAH        0.9020  -14.3860  -21.7360 O.2   700  RX4700     -0.2733
     29  N          2.7050  -15.3610  -20.7760 N.am  700  RX4700     -0.1977
     30  CA         2.9270  -14.3460  -19.7560 C.3   700  RX4700      0.1744
     31  CB         4.0510  -14.7870  -18.8150 C.3   700  RX4700      0.0334
     32  C          3.3370  -13.0720  -20.4370 C.2   700  RX4700      0.2806
     33  O          3.9910  -13.1240  -21.4730 O.2   700  RX4700     -0.2698
     34  NAD        2.9640  -11.9270  -19.8890 N.am  700  RX4700     -0.0863
@<TRIPOS>BOND
     1    15    16   ar
     2    15    14   ar
     3    16    17   ar
     4     5     4    2
     5     3     1    2
     6    14    13   ar
     7    26    25    1
     8    24    25    1
     9    24    20    1
    10    11     1   am
    11    11     6    1
    12     1     2    1
    13    21    20    2
    14     4    23   am
    15     4     6    1
    16    17    18    1
    17    17    12   ar
    18    19    18    1
    19    19    20    1
    20    19    23    1
    21    25    27    1
    22    20    22    1
    23    13    12   ar
    24     6     7    1
    25     7     8    1
    26    28    27    2
    27    27    29   am
    28    10     8   ar
    29    33    32    2
    30     8     9   ar
    31    29    30    1
    32    32    34   am
    33    32    30    1
    34    30    31    1
