@<TRIPOS>MOLECULE
3nxr_D2D_A_1.pdb
 24 26 0 0 0
SMALL
GASTEIGER

@<TRIPOS>ATOM
      1  N1        -3.4190  -30.9460   -3.7320 N.2   192  D2D192     -0.3110
      2  C2        -2.9660  -29.6770   -3.8440 C.1   192  D2D192      0.2450
      3  N3        -2.6860  -28.8690   -2.8340 N.2   192  D2D192     -0.2915
      4  C4        -2.8370  -29.3500   -1.6270 C.2   192  D2D192      0.2814
      5  C5        -3.2720  -30.6360   -1.3890 C.3   192  D2D192      0.1861
      6  C6        -3.5860  -31.4820   -2.4800 C.2   192  D2D192      0.2239
      7  CAA       -0.9350  -31.5900    3.0340 C.3   192  D2D192      0.0004
      8  CAB       -4.1290  -36.2770   -1.0790 C.3   192  D2D192      0.2525
      9  NAC       -2.8490  -29.1660   -5.1110 N.pl3 192  D2D192     -0.0231
     10  NAD       -4.0440  -32.7160   -2.4260 N.pl3 192  D2D192     -0.0961
     11  CAE       -3.7980  -31.7250    0.8860 C.2   192  D2D192     -0.0044
     12  CAF       -5.2830  -36.1790    2.9360 C.ar  192  D2D192      0.0031
     13  CAG       -4.8960  -35.1190    3.7480 C.ar  192  D2D192      0.0002
     14  CAH       -4.9740  -36.1520    1.5700 C.ar  192  D2D192      0.0369
     15  CAI       -4.1690  -34.0510    3.2120 C.ar  192  D2D192      0.0027
     16  CAJ       -2.8660  -29.4620    0.5230 C.2   192  D2D192      0.1788
     17  CAK       -0.7980  -32.8890    2.1650 C.3   192  D2D192      0.0047
     18  CAL       -1.6710  -32.9860    0.8380 C.3   192  D2D192      0.0264
     19  OAO       -3.9400  -35.0290   -0.3780 O.3   192  D2D192     -0.4714
     20  OAP       -2.5610  -28.6010   -0.5500 O.2   192  D2D192     -0.4265
     21  CAQ       -3.1390  -32.9160    1.2620 C.2   192  D2D192     -0.0195
     22  CAS       -3.3260  -30.6410    0.0410 C.2   192  D2D192      0.0330
     23  CAU       -4.2680  -35.0510    1.0190 C.ar  192  D2D192      0.1383
     24  CAV       -3.8430  -34.0010    1.8720 C.ar  192  D2D192      0.0300
@<TRIPOS>BOND
     1     9     2    1
     2     2     1    2
     3     2     3    2
     4     1     6    2
     5     3     4    2
     6     6    10    1
     7     6     5    1
     8     4     5    1
     9     4    20    1
    10     5    22    1
    11     8    19    1
    12    20    16    1
    13    19    23    1
    14    22    16    2
    15    22    11    1
    16    18    21    1
    17    18    17    1
    18    11    21    2
    19    23    14   ar
    20    23    24   ar
    21    21    24    1
    22    14    12   ar
    23    24    15   ar
    24    17     7    1
    25    12    13   ar
    26    15    13   ar
