@<TRIPOS>MOLECULE
3nxr_NDP_A_1.pdb
 48 52 0 0 0
SMALL
GASTEIGER

@<TRIPOS>ATOM
      1  PA        -6.0030  -26.3470   10.1250 P.3   187  NDP187      0.2189
      2  O1A       -5.8010  -24.9660    9.7820 O.3   187  NDP187     -0.4371
      3  O2A       -5.1860  -27.3110    9.5130 O.2   187  NDP187     -0.5170
      4  O5B       -5.9120  -26.6620   11.6830 O.3   187  NDP187     -0.3112
      5  C5B       -6.5870  -25.8280   12.6230 C.3   187  NDP187      0.1813
      6  C4B       -5.7440  -25.9850   13.9340 C.3   187  NDP187      0.1820
      7  O4B       -4.3620  -25.4230   13.6470 O.3   187  NDP187     -0.3136
      8  C3B       -6.3210  -24.9220   14.8620 C.3   187  NDP187      0.2157
      9  O3B       -7.4120  -25.3610   15.7420 O.3   187  NDP187     -0.2175
     10  C2B       -5.0660  -24.3980   15.6200 C.3   187  NDP187      0.2314
     11  O2B       -4.6560  -25.3100   16.5730 O.3   187  NDP187     -0.2630
     12  C1B       -3.9040  -24.5390   14.5880 C.3   187  NDP187      0.3158
     13  N9A       -3.8270  -23.2850   13.7820 N.pl3 187  NDP187     -0.1439
     14  C8A       -4.3750  -23.0550   12.5190 C.3   187  NDP187      0.3377
     15  N7A       -3.8960  -21.8150   12.2070 N.2   187  NDP187     -0.2095
     16  C5A       -3.0200  -21.3120   13.1500 C.2   187  NDP187      0.2526
     17  C6A       -2.2420  -20.1580   13.3470 C.2   187  NDP187      0.4393
     18  N6A       -2.1270  -19.0950   12.4660 N.pl3 187  NDP187      0.2180
     19  N1A       -1.5180  -20.1100   14.4940 N.2   187  NDP187      0.0021
     20  C2A       -1.5220  -21.1170   15.3790 C.3   187  NDP187      0.5254
     21  N3A       -2.2740  -22.1660   15.2700 N.2   187  NDP187     -0.0055
     22  C4A       -3.0220  -22.2910   14.1570 C.2   187  NDP187      0.3518
     23  O3        -7.5550  -26.7620    9.8670 O.3   187  NDP187     -0.2703
     24  PN        -8.8630  -26.7960    8.8250 P.3   187  NDP187      0.2189
     25  O1N      -10.1090  -27.5080    9.4840 O.3   187  NDP187     -0.4371
     26  O2N       -8.9520  -25.4670    8.2150 O.2   187  NDP187     -0.5170
     27  O5D       -8.3300  -27.7840    7.7670 O.3   187  NDP187     -0.3112
     28  C5D       -8.1200  -29.1520    7.8980 C.3   187  NDP187      0.1813
     29  C4D       -9.0660  -29.7240    6.7190 C.3   187  NDP187      0.1799
     30  O4D       -8.7810  -29.1630    5.2550 O.3   187  NDP187     -0.3327
     31  C3D       -9.0010  -31.2350    6.5070 C.3   187  NDP187      0.2158
     32  O3D      -10.2920  -31.5730    5.8760 O.3   187  NDP187     -0.2175
     33  C2D       -7.8530  -31.4590    5.4630 C.3   187  NDP187      0.2309
     34  O2D       -8.1480  -32.6540    4.6640 O.3   187  NDP187     -0.2158
     35  C1D       -8.2020  -30.3490    4.4770 C.3   187  NDP187      0.2263
     36  N1N       -7.1600  -29.6510    3.6920 N.pl3 187  NDP187     -0.2787
     37  C2N       -7.3780  -29.7660    2.2700 C.3   187  NDP187      0.1244
     38  C3N       -6.4940  -29.1230    1.4550 C.2   187  NDP187      0.0544
     39  C7N       -6.7270  -29.1560   -0.0310 C.2   187  NDP187      0.2818
     40  O7N       -7.8530  -29.6390   -0.5990 O.2   187  NDP187     -0.2670
     41  N7N       -5.8270  -28.5760   -0.7160 N.am  187  NDP187     -0.0839
     42  C4N       -5.4540  -28.3530    2.0750 C.2   187  NDP187      0.0033
     43  C5N       -5.2560  -28.3460    3.5080 C.2   187  NDP187      0.0157
     44  C6N       -6.0900  -29.0200    4.4230 C.2   187  NDP187      0.0633
     45  P2B       -4.7710  -25.1120   18.0960 P.3   187  NDP187      0.5328
     46  O1X       -4.1340  -23.7900   18.4990 O.2   187  NDP187     -0.2224
     47  O2X       -4.0230  -26.2540   18.6060 O.3   187  NDP187     -0.1145
     48  O3X       -6.1670  -25.1600   18.5180 O.3   187  NDP187     -0.1145
@<TRIPOS>BOND
     1    41    39   am
     2    40    39    2
     3    39    38    1
     4    38    42    2
     5    38    37    1
     6    42    43    1
     7    37    36    1
     8    43    44    2
     9    36    44    1
    10    36    35    1
    11    35    30    1
    12    35    33    1
    13    34    33    1
    14    30    29    1
    15    33    31    1
    16    32    31    1
    17    31    29    1
    18    29    28    1
    19    27    28    1
    20    27    24    1
    21    26    24    2
    22    24    25    1
    23    24    23    1
    24     3     1    2
    25     2     1    1
    26    23     1    1
    27     1     4    1
    28     4     5    1
    29    15    14    1
    30    15    16    2
    31    18    17    1
    32    14    13    1
    33     5     6    1
    34    16    17    1
    35    16    22    1
    36    17    19    2
    37     7     6    1
    38     7    12    1
    39    13    22    1
    40    13    12    1
    41     6     8    1
    42    22    21    2
    43    19    20    1
    44    12    10    1
    45     8    10    1
    46     8     9    1
    47    21    20    1
    48    10    11    1
    49    11    45    1
    50    45    46    2
    51    45    48    1
    52    45    47    1
