@<TRIPOS>MOLECULE
3nxs_GDP_A_1.pdb
 28 30 0 0 0
SMALL
GASTEIGER

@<TRIPOS>ATOM
      1  PB        16.6650    4.8090   11.0110 P.3   327  GDP327      0.5373
      2  O1B       16.1850    5.8980   10.0880 O.2   327  GDP327     -0.2221
      3  O2B       16.2650    3.4420   10.5240 O.3   327  GDP327     -0.1143
      4  O3B       18.1910    4.7950   11.2030 O.3   327  GDP327     -0.1143
      5  O3A       15.9980    5.0610   12.4230 O.3   327  GDP327     -0.2261
      6  PA        14.6670    5.9000   12.6180 P.3   327  GDP327      0.2231
      7  O1A       13.6290    5.6090   11.5610 O.2   327  GDP327     -0.5169
      8  O2A       14.9840    7.3620   12.7880 O.3   327  GDP327     -0.4370
      9  O5'       14.2120    5.3500   14.0510 O.3   327  GDP327     -0.3111
     10  C5'       14.0590    3.9360   14.2540 C.3   327  GDP327      0.1813
     11  C4'       13.3810    3.6750   15.5910 C.3   327  GDP327      0.1799
     12  O4'       14.2450    4.0800   16.6520 O.3   327  GDP327     -0.3326
     13  C3'       12.0760    4.4860   15.7110 C.3   327  GDP327      0.2158
     14  O3'       11.0940    3.6900   16.3770 O.3   327  GDP327     -0.2175
     15  C2'       12.4510    5.6670   16.5670 C.3   327  GDP327      0.2310
     16  O2'       11.3690    6.1850   17.3560 O.3   327  GDP327     -0.2158
     17  C1'       13.5470    5.0680   17.4370 C.3   327  GDP327      0.2293
     18  N9        14.4680    6.1370   17.8980 N.pl3 327  GDP327     -0.2354
     19  C8        15.0580    7.0900   17.1410 C.3   327  GDP327      0.2246
     20  N7        15.8430    7.8960   17.8980 N.2   327  GDP327     -0.2322
     21  C5        15.7480    7.4500   19.1650 C.2   327  GDP327      0.2182
     22  C6        16.3180    7.8340   20.4680 C.1   327  GDP327      0.2372
     23  O6        17.0990    8.8100   20.5360 O.2   327  GDP327     -0.2069
     24  N1        15.9650    7.1090   21.5540 N.2   327  GDP327     -0.2485
     25  C2        15.1210    6.0500   21.5000 C.1   327  GDP327      0.2531
     26  N2        14.8330    5.3690   22.6480 N.pl3 327  GDP327     -0.0226
     27  N3        14.5680    5.6350   20.3240 N.2   327  GDP327     -0.3074
     28  C4        14.8460    6.2880   19.1650 C.2   327  GDP327      0.2300
@<TRIPOS>BOND
     1     2     1    2
     2     3     1    1
     3     1     4    1
     4     1     5    1
     5     7     6    2
     6     5     6    1
     7     6     8    1
     8     6     9    1
     9     9    10    1
    10    10    11    1
    11    11    13    1
    12    11    12    1
    13    13    14    1
    14    13    15    1
    15    15    16    1
    16    15    17    1
    17    12    17    1
    18    19    18    1
    19    19    20    1
    20    17    18    1
    21    18    28    1
    22    20    21    2
    23    21    28    1
    24    21    22    1
    25    28    27    2
    26    27    25    2
    27    22    23    2
    28    22    24    2
    29    25    24    2
    30    25    26    1
