@<TRIPOS>MOLECULE
3nxt_NDP_A_1.pdb
 48 52 0 0 0
SMALL
GASTEIGER

@<TRIPOS>ATOM
      1  PA        22.4570    5.9510  -10.0360 P.3   187  NDP187      0.2189
      2  O1A       23.4310    6.8250   -9.6810 O.2   187  NDP187     -0.5170
      3  O2A       21.2790    6.2770   -9.5610 O.3   187  NDP187     -0.4371
      4  O5B       22.2570    5.8940  -11.5880 O.3   187  NDP187     -0.3112
      5  C5B       23.2390    5.7720  -12.4420 C.3   187  NDP187      0.1813
      6  C4B       22.8750    6.4670  -13.8150 C.3   187  NDP187      0.1820
      7  O4B       22.4520    7.9200  -13.5760 O.3   187  NDP187     -0.3136
      8  C3B       24.0700    6.5260  -14.7720 C.3   187  NDP187      0.2157
      9  O3B       24.1510    5.3960  -15.6110 O.3   187  NDP187     -0.2175
     10  C2B       23.7890    7.8480  -15.4860 C.3   187  NDP187      0.2314
     11  O2B       22.7920    7.7260  -16.3800 O.3   187  NDP187     -0.2630
     12  C1B       23.1740    8.7360  -14.3180 C.3   187  NDP187      0.3158
     13  N9A       24.1950    9.4540  -13.5410 N.pl3 187  NDP187     -0.1439
     14  C8A       24.7240    9.1890  -12.3680 C.3   187  NDP187      0.3377
     15  N7A       25.5680   10.2150  -12.1000 N.2   187  NDP187     -0.2095
     16  C5A       25.5000   11.1250  -13.0410 C.2   187  NDP187      0.2526
     17  C6A       26.0840   12.3350  -13.3610 C.2   187  NDP187      0.4393
     18  N6A       26.9290   12.9800  -12.6010 N.pl3 187  NDP187      0.2180
     19  N1A       25.7390   12.9220  -14.4760 N.2   187  NDP187      0.0021
     20  C2A       24.8600   12.4300  -15.2760 C.3   187  NDP187      0.5254
     21  N3A       24.3330   11.2910  -15.0710 N.2   187  NDP187     -0.0055
     22  C4A       24.6400   10.6140  -13.9730 C.2   187  NDP187      0.3518
     23  O3        22.8630    4.4170   -9.7840 O.3   187  NDP187     -0.2703
     24  PN        23.3310    3.3170   -8.6720 P.3   187  NDP187      0.2189
     25  O1N       23.3190    1.9510   -9.2400 O.2   187  NDP187     -0.5170
     26  O2N       24.5570    3.8780   -8.1820 O.3   187  NDP187     -0.4371
     27  O5D       22.1960    3.2330   -7.6500 O.3   187  NDP187     -0.3112
     28  C5D       21.0240    2.5330   -7.6480 C.3   187  NDP187      0.1813
     29  C4D       21.0150    1.5310   -6.4090 C.3   187  NDP187      0.1799
     30  O4D       21.2980    2.1750   -5.1670 O.3   187  NDP187     -0.3327
     31  C3D       19.7620    0.6660   -6.1380 C.3   187  NDP187      0.2158
     32  O3D       20.1450   -0.4660   -5.5560 O.3   187  NDP187     -0.2175
     33  C2D       18.9460    1.4990   -5.0960 C.3   187  NDP187      0.2309
     34  O2D       18.0920    0.6720   -4.3520 O.3   187  NDP187     -0.2158
     35  C1D       20.1460    2.0100   -4.2670 C.3   187  NDP187      0.2263
     36  N1N       20.0230    3.2810   -3.5040 N.pl3 187  NDP187     -0.2787
     37  C2N       20.1280    3.1520   -2.1380 C.3   187  NDP187      0.1244
     38  C3N       20.0720    4.2590   -1.3100 C.2   187  NDP187      0.0544
     39  C7N       20.1930    4.0050    0.2560 C.2   187  NDP187      0.2818
     40  O7N       20.4180    2.7300    0.6670 O.2   187  NDP187     -0.2670
     41  N7N       20.1670    5.0640    0.9460 N.am  187  NDP187     -0.0839
     42  C4N       19.8840    5.5230   -1.9010 C.2   187  NDP187      0.0033
     43  C5N       19.7770    5.6630   -3.2780 C.2   187  NDP187      0.0157
     44  C6N       19.8580    4.5390   -4.1300 C.2   187  NDP187      0.0633
     45  P2B       22.9750    7.7170  -17.8450 P.3   187  NDP187      0.5328
     46  O1X       23.6680    8.8270  -18.2650 O.3   187  NDP187     -0.1145
     47  O2X       21.6060    7.8060  -18.3050 O.2   187  NDP187     -0.2224
     48  O3X       23.4970    6.5030  -18.2860 O.3   187  NDP187     -0.1145
@<TRIPOS>BOND
     1    47    45    2
     2    48    45    1
     3    46    45    1
     4    45    11    1
     5    11    10    1
     6     9     8    1
     7    10     8    1
     8    10    12    1
     9    20    21    1
    10    20    19    1
    11    21    22    2
    12     8     6    1
    13    19    17    2
    14    12     7    1
    15    12    13    1
    16    22    13    1
    17    22    16    1
    18     6     7    1
    19     6     5    1
    20    13    14    1
    21    17    16    1
    22    17    18    1
    23    16    15    2
    24     5     4    1
    25    14    15    1
    26     4     1    1
    27     1    23    1
    28     1     2    2
    29     1     3    1
    30    23    24    1
    31    25    24    2
    32    24    26    1
    33    24    27    1
    34    27    28    1
    35    28    29    1
    36    29    31    1
    37    29    30    1
    38    31    32    1
    39    31    33    1
    40    30    35    1
    41    33    34    1
    42    33    35    1
    43    35    36    1
    44    44    36    1
    45    44    43    2
    46    36    37    1
    47    43    42    1
    48    37    38    1
    49    42    38    2
    50    38    39    1
    51    39    40    2
    52    39    41   am
