@<TRIPOS>MOLECULE
3nxt_D2E_A_1.pdb
 24 27 0 0 0
SMALL
GASTEIGER

@<TRIPOS>ATOM
      1  N1        16.9650    5.9810    3.8350 N.2   188  D2E188     -0.3110
      2  C2        18.0130    6.8450    3.8990 C.1   188  D2E188      0.2450
      3  N3        18.5190    7.4240    2.8270 N.2   188  D2E188     -0.2915
      4  C4        17.9390    7.2080    1.6500 C.2   188  D2E188      0.2811
      5  C5        16.7740    6.4330    1.5030 C.3   188  D2E188      0.1823
      6  C6        16.2890    5.7730    2.6780 C.2   188  D2E188      0.2236
      7  CAA       13.8190    2.0700   -2.9710 C.3   188  D2E188      0.2525
      8  NAB       18.6160    7.0160    5.0770 N.pl3 188  D2E188     -0.0231
      9  NAC       15.2310    4.9160    2.7020 N.pl3 188  D2E188     -0.0961
     10  CAD       15.2010    5.9220   -0.3780 C.3   188  D2E188      0.0306
     11  CAE       10.7310    4.8560   -2.6590 C.ar  188  D2E188      0.0031
     12  CAF       11.0280    6.1880   -2.3230 C.ar  188  D2E188     -0.0001
     13  CAG       11.7140    3.8650   -2.6820 C.ar  188  D2E188      0.0366
     14  CAH       12.3200    6.5980   -1.9720 C.ar  188  D2E188     -0.0013
     15  CAI       17.3470    7.2890   -0.4780 C.2   188  D2E188      0.1746
     16  CAJ       15.3240    7.5310   -3.7280 C.3   188  D2E188      0.0003
     17  CAK       15.2090    6.0770   -4.2390 C.3   188  D2E188      0.0003
     18  OAN       14.1120    3.3940   -2.3810 O.3   188  D2E188     -0.4717
     19  OAO       18.2950    7.7460    0.5070 O.2   188  D2E188     -0.4269
     20  CAP       14.6680    6.0700   -1.6790 C.3   188  D2E188      0.0294
     21  CAR       16.4280    6.4820    0.1520 C.2   188  D2E188      0.0114
     22  CAT       13.0420    4.2860   -2.3730 C.ar  188  D2E188      0.1347
     23  CAU       13.3230    5.6360   -2.0330 C.ar  188  D2E188      0.0118
     24  CAX       15.6550    6.3710   -2.8060 C.3   188  D2E188      0.0045
@<TRIPOS>BOND
     1    17    16    1
     2    17    24    1
     3    16    24    1
     4     7    18    1
     5    24    20    1
     6    13    11   ar
     7    13    22   ar
     8    11    12   ar
     9    18    22    1
    10    22    23   ar
    11    12    14   ar
    12    23    14   ar
    13    23    20    1
    14    20    10    1
    15    15    21    2
    16    15    19    1
    17    10    21    1
    18    21     5    1
    19    19     4    1
    20     5     4    1
    21     5     6    1
    22     4     3    2
    23     6     9    1
    24     6     1    2
    25     3     2    2
    26     1     2    2
    27     2     8    1
