@<TRIPOS>MOLECULE
3nxu_RIT_A_1.pdb
 50 53 0 0 0
SMALL
GASTEIGER

@<TRIPOS>ATOM
      1  C1        35.4590  -21.3130   25.2050 C.ar  600  RIT600      0.1053
      2  C2        36.1420  -21.1130   26.1970 C.ar  600  RIT600      0.0714
      3  S3        35.0550  -20.7640   27.4330 S.2   600  RIT600     -0.0652
      4  C4        33.7050  -20.9540   26.6040 C.ar  600  RIT600      0.1343
      5  N5        34.1460  -21.2460   25.4000 N.ar  600  RIT600     -0.2350
      6  C6        37.3240  -20.9920   26.5970 C.3   600  RIT600      0.2448
      7  O7        37.9540  -19.8720   25.8940 O.3   600  RIT600     -0.4279
      8  C10       38.5630  -19.0920   26.7600 C.2   600  RIT600      0.4215
      9  O24       38.2630  -19.2700   28.1460 O.2   600  RIT600     -0.2246
     10  N11       39.2740  -17.9540   26.3690 N.am  600  RIT600     -0.1672
     11  C12       39.6280  -16.9330   27.5400 C.3   600  RIT600      0.1375
     12  C13       38.9760  -15.5730   27.4740 C.3   600  RIT600      0.1952
     13  C14       37.5930  -15.9730   26.9140 C.2   600  RIT600      0.0204
     14  C15       36.4710  -15.6090   27.5160 C.2   600  RIT600      0.0537
     15  C26       41.0920  -16.8500   28.1340 C.3   600  RIT600      0.0511
     16  C28       41.4860  -18.1910   28.5690 C.ar  600  RIT600     -0.0204
     17  C31       40.7910  -18.7080   29.8500 C.ar  600  RIT600     -0.0042
     18  C32       41.1020  -20.0690   30.3700 C.ar  600  RIT600     -0.0003
     19  C33       42.0880  -20.8920   29.6360 C.ar  600  RIT600     -0.0000
     20  C34       42.7580  -20.3590   28.3830 C.ar  600  RIT600     -0.0003
     21  C35       42.4530  -19.0150   27.8590 C.ar  600  RIT600     -0.0042
     22  O41       39.7120  -14.8430   26.3070 O.3   600  RIT600     -0.2164
     23  C44       35.1130  -15.7470   26.5650 C.3   600  RIT600      0.0692
     24  C45       33.9730  -15.7500   27.4450 C.ar  600  RIT600     -0.0164
     25  C48       33.2850  -14.5360   27.8570 C.ar  600  RIT600     -0.0039
     26  C49       32.1480  -14.6710   28.8600 C.ar  600  RIT600     -0.0003
     27  C50       31.7620  -16.0070   29.4150 C.ar  600  RIT600     -0.0000
     28  C51       32.4610  -17.2540   28.9850 C.ar  600  RIT600     -0.0003
     29  C52       33.5710  -17.1400   27.9970 C.ar  600  RIT600     -0.0039
     30  N58       36.6790  -14.7080   28.6930 N.am  600  RIT600     -0.1821
     31  N20       35.6150  -13.3900   31.6320 N.am  600  RIT600     -0.1808
     32  C19       36.4750  -13.6980   30.6960 C.3   600  RIT600      0.1746
     33  C18       36.2120  -14.8980   29.9860 C.2   600  RIT600      0.2652
     34  O61       35.4830  -15.7970   30.3250 O.2   600  RIT600     -0.2711
     35  C62       37.9340  -13.6100   31.5300 C.3   600  RIT600      0.0290
     36  C64       38.0390  -13.1510   33.0400 C.3   600  RIT600      0.0023
     37  C68       39.1580  -14.5290   31.0500 C.3   600  RIT600      0.0023
     38  C21       34.6500  -12.3500   31.1130 C.2   600  RIT600      0.3240
     39  N74       33.5590  -11.9010   31.9300 N.am  600  RIT600     -0.2546
     40  C75       33.3150  -12.5050   33.3500 C.3   600  RIT600      0.1504
     41  O76       34.8200  -11.8520   29.8490 O.2   600  RIT600     -0.2507
     42  C77       34.4510  -12.1430   34.2920 C.2   600  RIT600      0.1182
     43  C80       34.9470  -12.9850   35.2120 C.3   600  RIT600      0.1202
     44  S81       36.2150  -11.9220   35.9190 S.3   600  RIT600     -0.0795
     45  C82       35.9180  -10.5120   34.9280 C.2   600  RIT600      0.1335
     46  N83       34.9860  -10.9290   34.2000 N.2   600  RIT600     -0.4061
     47  C85       36.4970   -9.0150   34.8320 C.3   600  RIT600      0.0585
     48  C86       36.5430   -8.3010   36.1470 C.3   600  RIT600      0.0080
     49  C90       37.8340   -8.9230   34.1240 C.3   600  RIT600      0.0080
     50  C95       32.6190  -10.8720   31.3980 C.3   600  RIT600      0.1169
@<TRIPOS>BOND
     1     1     5   ar
     2     1     2   ar
     3     5     4   ar
     4     7     6    1
     5     7     8    1
     6     2     6    1
     7     2     3   ar
     8    22    12    1
     9    10     8   am
    10    10    11    1
    11    23    24    1
    12    23    14    1
    13     4     3   ar
    14     8     9    2
    15    13    12    1
    16    13    14    2
    17    24    25   ar
    18    24    29   ar
    19    12    11    1
    20    14    30    1
    21    11    15    1
    22    25    26   ar
    23    21    20   ar
    24    21    16   ar
    25    29    28   ar
    26    15    16    1
    27    20    19   ar
    28    16    17   ar
    29    30    33   am
    30    26    27   ar
    31    28    27   ar
    32    19    18   ar
    33    41    38    2
    34    17    18   ar
    35    33    34    2
    36    33    32    1
    37    32    35    1
    38    32    31    1
    39    37    35    1
    40    38    31   am
    41    38    39   am
    42    50    39    1
    43    35    36    1
    44    39    40    1
    45    40    42    1
    46    49    47    1
    47    46    42    2
    48    46    45    2
    49    42    43    1
    50    47    45    1
    51    47    48    1
    52    45    44    1
    53    43    44    1
