@<TRIPOS>MOLECULE
3nxu_HEM_A_1.pdb
 43 50 0 0 0
SMALL
GASTEIGER

@<TRIPOS>ATOM
      1  CHA       33.3380  -18.1370   23.1480 C.2   508  HEM508      0.0000
      2  CHB       29.9880  -20.5820   25.7350 C.2   508  HEM508      0.0000
      3  CHC       32.2600  -24.7070   24.6040 C.2   508  HEM508      0.0000
      4  CHD       35.1970  -22.3300   21.5560 C.2   508  HEM508      0.0000
      5  C1A       32.2960  -18.4320   24.0430 C.2   508  HEM508      0.0000
      6  C2A       31.4230  -17.4440   24.6270 C.2   508  HEM508      0.0000
      7  C3A       30.4750  -18.1250   25.3040 C.2   508  HEM508      0.0000
      8  C4A       30.7600  -19.5300   25.1730 C.2   508  HEM508      0.0000
      9  CMA       29.3370  -17.4880   26.1230 C.3   508  HEM508      0.0000
     10  CAA       31.4670  -15.9080   24.5190 C.3   508  HEM508      0.0000
     11  CBA       30.7440  -15.4670   23.2560 C.3   508  HEM508      0.0000
     12  CGA       30.4690  -13.9720   23.2490 C.2   508  HEM508      0.0000
     13  O1A       31.2500  -13.2300   23.8770 O.co2 508  HEM508      0.0000
     14  O2A       29.4810  -13.5420   22.6120 O.co2 508  HEM508      0.0000
     15  C1B       30.2680  -21.9400   25.6460 C.ar  508  HEM508      0.0000
     16  C2B       29.6140  -23.0100   26.4070 C.ar  508  HEM508      0.0000
     17  C3B       30.2800  -24.2130   26.1320 C.ar  508  HEM508      0.0000
     18  C4B       31.3610  -23.8080   25.2260 C.ar  508  HEM508      0.0000
     19  CMB       28.4700  -22.7980   27.3840 C.3   508  HEM508      0.0000
     20  CAB       30.0750  -25.5330   26.6500 C.3   508  HEM508      0.0000
     21  CBB       28.8650  -26.0310   27.0860 C.3   508  HEM508      0.0000
     22  C1C       33.2420  -24.4370   23.6510 C.2   508  HEM508      0.0000
     23  C2C       34.0420  -25.4340   22.9890 C.2   508  HEM508      0.0000
     24  C3C       34.8370  -24.7740   22.0820 C.2   508  HEM508      0.0000
     25  C4C       34.5520  -23.3860   22.2490 C.2   508  HEM508      0.0000
     26  CMC       34.0570  -26.9080   23.3930 C.3   508  HEM508      0.0000
     27  CAC       35.7820  -25.2400   21.1410 C.2   508  HEM508      0.0000
     28  CBC       36.0790  -26.5230   20.8450 C.2   508  HEM508      0.0000
     29  C1D       34.9360  -20.9530   21.7030 C.ar  508  HEM508      0.0000
     30  C2D       35.7340  -19.8840   21.1160 C.ar  508  HEM508      0.0000
     31  C3D       35.2380  -18.7080   21.5900 C.ar  508  HEM508      0.0000
     32  C4D       34.1280  -19.0670   22.4760 C.ar  508  HEM508      0.0000
     33  CMD       36.9790  -20.0680   20.2540 C.3   508  HEM508      0.0000
     34  CAD       35.6900  -17.2870   21.2100 C.3   508  HEM508      0.0000
     35  CBD       35.1030  -16.9830   19.8480 C.3   508  HEM508      0.0000
     36  CGD       35.6820  -15.7150   19.2200 C.2   508  HEM508      0.0000
     37  O1D       35.6380  -15.6020   17.9780 O.co2 508  HEM508      0.0000
     38  O2D       36.1750  -14.8340   19.9530 O.co2 508  HEM508      0.0000
     39  NA        31.8880  -19.7210   24.3980 N.2   508  HEM508      0.0000
     40  NB        31.3420  -22.4420   24.9710 N.ar  508  HEM508      0.0000
     41  NC        33.5410  -23.1820   23.1940 N.2   508  HEM508      0.0000
     42  ND        33.9690  -20.4310   22.5600 N.ar  508  HEM508      0.0000
     43 FE         32.6600  -21.4350   23.7550 Fe    508  HEM508      0.0000
@<TRIPOS>BOND
     1    37    36   ar
     2    36    35    1
     3    36    38   ar
     4    35    34    1
     5    33    30    1
     6    28    27    2
     7    30    31   ar
     8    30    29   ar
     9    27    24    1
    10    34    31    1
    11     4    29    2
    12     4    25    1
    13    31    32   ar
    14    29    42   ar
    15    24    25    1
    16    24    23    2
    17    25    41    2
    18    32    42   ar
    19    32     1    2
    20    42    43    1
    21    14    12   ar
    22    23    26    1
    23    23    22    1
    24     1     5    1
    25    41    22    1
    26    41    43    1
    27    12    11    1
    28    12    13   ar
    29    11    10    1
    30    22     3    2
    31    43    39    1
    32    43    40    1
    33     5    39    2
    34     5     6    1
    35    39     8    1
    36    10     6    1
    37     3    18    1
    38     6     7    2
    39    40    18   ar
    40    40    15   ar
    41     8     7    1
    42     8     2    2
    43    18    17   ar
    44     7     9    1
    45    15     2    1
    46    15    16   ar
    47    17    16   ar
    48    17    20    1
    49    16    19    1
    50    20    21    1
