@<TRIPOS>MOLECULE
3nxv_D2F_A_1.pdb
 25 27 0 0 0
SMALL
GASTEIGER

@<TRIPOS>ATOM
      1  N1        -3.6180   17.6400   -3.7990 N.2   187  D2F187     -0.3110
      2  C2        -3.0420   18.8570   -4.0000 C.1   187  D2F187      0.2450
      3  N3        -2.7460   19.6780   -2.9640 N.2   187  D2F187     -0.2915
      4  C4        -2.9530   19.2910   -1.6980 C.2   187  D2F187      0.2814
      5  C5        -3.5240   18.0460   -1.4350 C.3   187  D2F187      0.1861
      6  C6        -3.8630   17.2220   -2.5440 C.2   187  D2F187      0.2239
      7  CAA       -0.3710   17.2730    3.9360 C.3   187  D2F187      0.0000
      8  CAB       -4.3650   12.1890   -0.9770 C.3   187  D2F187      0.2525
      9  NAC       -2.8070   19.2400   -5.2570 N.pl3 187  D2F187     -0.0231
     10  NAD       -4.4130   16.0010   -2.3870 N.pl3 187  D2F187     -0.0961
     11  CAE       -4.1790   16.8130    0.6880 C.2   187  D2F187     -0.0044
     12  CAF       -5.3490   12.4010    2.9650 C.ar  187  D2F187      0.0031
     13  CAG       -5.0160   13.5200    3.7190 C.ar  187  D2F187      0.0002
     14  CAH       -5.0420   12.3760    1.6110 C.ar  187  D2F187      0.0369
     15  CAI       -4.3950   14.6250    3.1380 C.ar  187  D2F187      0.0027
     16  CAJ       -3.1440   19.0340    0.5250 C.2   187  D2F187      0.1788
     17  CAK       -1.3890   16.9930    2.8630 C.3   187  D2F187      0.0003
     18  CAL       -1.0700   15.7010    2.0990 C.3   187  D2F187      0.0047
     19  CAM       -1.9180   15.6560    0.8240 C.3   187  D2F187      0.0264
     20  OAP       -4.1080   13.4500   -0.2960 O.3   187  D2F187     -0.4714
     21  OAQ       -2.7110   19.8860   -0.5210 O.2   187  D2F187     -0.4265
     22  CAR       -3.4320   15.7220    1.1530 C.2   187  D2F187     -0.0195
     23  CAT       -3.6290   17.9310   -0.0440 C.2   187  D2F187      0.0330
     24  CAV       -4.4190   13.4790    1.0260 C.ar  187  D2F187      0.1383
     25  CAW       -4.0900   14.6260    1.7820 C.ar  187  D2F187      0.0300
@<TRIPOS>BOND
     1     9     2    1
     2     2     1    2
     3     2     3    2
     4     1     6    2
     5     3     4    2
     6     6    10    1
     7     6     5    1
     8     4     5    1
     9     4    21    1
    10     5    23    1
    11     8    20    1
    12    21    16    1
    13    20    24    1
    14    23    16    2
    15    23    11    1
    16    11    22    2
    17    19    22    1
    18    19    18    1
    19    24    14   ar
    20    24    25   ar
    21    22    25    1
    22    14    12   ar
    23    25    15   ar
    24    18    17    1
    25    17     7    1
    26    12    13   ar
    27    15    13   ar
