@<TRIPOS>MOLECULE
3nxv_NDP_A_1.pdb
 48 52 0 0 0
SMALL
GASTEIGER

@<TRIPOS>ATOM
      1  PA        -5.9380   22.4090   10.1110 P.3   188  NDP188      0.2189
      2  O1A       -5.5690   23.8310    9.8060 O.3   188  NDP188     -0.4371
      3  O2A       -5.0160   21.4200    9.5330 O.2   188  NDP188     -0.5170
      4  O5B       -5.8260   22.0900   11.5930 O.3   188  NDP188     -0.3112
      5  C5B       -6.4930   22.8010   12.6100 C.3   188  NDP188      0.1813
      6  C4B       -5.5710   22.6580   13.8670 C.3   188  NDP188      0.1820
      7  O4B       -4.1020   23.1500   13.7770 O.3   188  NDP188     -0.3136
      8  C3B       -6.3000   23.5990   14.8270 C.3   188  NDP188      0.2157
      9  O3B       -7.2080   22.8190   15.6800 O.3   188  NDP188     -0.2175
     10  C2B       -5.1200   24.3160   15.5440 C.3   188  NDP188      0.2314
     11  O2B       -4.5670   23.5270   16.5430 O.3   188  NDP188     -0.2630
     12  C1B       -3.9220   24.2540   14.5250 C.3   188  NDP188      0.3158
     13  N9A       -3.8430   25.4330   13.6030 N.pl3 188  NDP188     -0.1439
     14  C8A       -4.4170   25.6940   12.3880 C.3   188  NDP188      0.3377
     15  N7A       -3.9190   26.9460   12.0770 N.2   188  NDP188     -0.2095
     16  C5A       -3.0740   27.4400   13.0160 C.2   188  NDP188      0.2526
     17  C6A       -2.2880   28.6010   13.3000 C.2   188  NDP188      0.4393
     18  N6A       -2.1130   29.6960   12.5040 N.pl3 188  NDP188      0.2180
     19  N1A       -1.6000   28.6320   14.4750 N.2   188  NDP188      0.0021
     20  C2A       -1.6000   27.6280   15.3540 C.3   188  NDP188      0.5254
     21  N3A       -2.3160   26.5630   15.1370 N.2   188  NDP188     -0.0055
     22  C4A       -3.0680   26.4550   14.0100 C.2   188  NDP188      0.3518
     23  O3        -7.4140   21.9030    9.9340 O.3   188  NDP188     -0.2703
     24  PN        -8.7690   21.8970    8.9350 P.3   188  NDP188      0.2189
     25  O1N       -9.8540   21.1530    9.6510 O.3   188  NDP188     -0.4371
     26  O2N       -9.0160   23.2440    8.3010 O.2   188  NDP188     -0.5170
     27  O5D       -8.3180   20.7780    7.8010 O.3   188  NDP188     -0.3112
     28  C5D       -7.9900   19.4210    7.9420 C.3   188  NDP188      0.1813
     29  C4D       -8.6770   18.6650    6.7850 C.3   188  NDP188      0.1799
     30  O4D       -8.8870   19.3660    5.4550 O.3   188  NDP188     -0.3327
     31  C3D       -7.6480   17.5590    6.5930 C.3   188  NDP188      0.2158
     32  O3D       -8.0140   16.5130    7.4980 O.3   188  NDP188     -0.2175
     33  C2D       -7.7310   17.1120    5.1100 C.3   188  NDP188      0.2309
     34  O2D       -8.6780   16.0480    4.8250 O.3   188  NDP188     -0.2158
     35  C1D       -8.2350   18.4050    4.4200 C.3   188  NDP188      0.2263
     36  N1N       -7.1560   19.0790    3.6380 N.pl3 188  NDP188     -0.2787
     37  C2N       -7.3020   18.9980    2.2380 C.3   188  NDP188      0.1244
     38  C3N       -6.4070   19.6340    1.4050 C.2   188  NDP188      0.0544
     39  C7N       -6.6460   19.5040   -0.1280 C.2   188  NDP188      0.2818
     40  O7N       -7.6860   18.8570   -0.6830 O.2   188  NDP188     -0.2670
     41  N7N       -5.8270   20.1500   -0.8700 N.am  188  NDP188     -0.0839
     42  C4N       -5.3480   20.3470    1.9980 C.2   188  NDP188      0.0033
     43  C5N       -5.1790   20.4070    3.3920 C.2   188  NDP188      0.0157
     44  C6N       -6.0860   19.7930    4.2450 C.2   188  NDP188      0.0633
     45  P2B       -4.7290   23.6330   18.0720 P.3   188  NDP188      0.5328
     46  O1X       -4.1000   25.0250   18.3510 O.2   188  NDP188     -0.2224
     47  O2X       -3.9070   22.4090   18.5310 O.3   188  NDP188     -0.1145
     48  O3X       -6.1840   23.5760   18.4530 O.3   188  NDP188     -0.1145
@<TRIPOS>BOND
     1    41    39   am
     2    40    39    2
     3    39    38    1
     4    38    42    2
     5    38    37    1
     6    42    43    1
     7    37    36    1
     8    43    44    2
     9    36    44    1
    10    36    35    1
    11    35    33    1
    12    35    30    1
    13    34    33    1
    14    33    31    1
    15    30    29    1
    16    31    29    1
    17    31    32    1
    18    29    28    1
    19    27    28    1
    20    27    24    1
    21    26    24    2
    22    24    25    1
    23    24    23    1
    24     3     1    2
    25     2     1    1
    26    23     1    1
    27     1     4    1
    28     4     5    1
    29    15    14    1
    30    15    16    2
    31    14    13    1
    32    18    17    1
    33     5     6    1
    34    16    17    1
    35    16    22    1
    36    17    19    2
    37    13    22    1
    38    13    12    1
    39     7     6    1
    40     7    12    1
    41     6     8    1
    42    22    21    2
    43    19    20    1
    44    12    10    1
    45     8    10    1
    46     8     9    1
    47    21    20    1
    48    10    11    1
    49    11    45    1
    50    45    46    2
    51    45    48    1
    52    45    47    1
