@<TRIPOS>MOLECULE
3nxw_THP_A_1.pdb
 25 26 0 0 0
SMALL
GASTEIGER

@<TRIPOS>ATOM
      1  P2        17.8940   10.8010    4.7780 P.3   150  THP150      0.5327
      2  O4P       16.6860   11.5440    5.3440 O.3   150  THP150     -0.1145
      3  O5P       17.9590    9.2690    5.1500 O.2   150  THP150     -0.2224
      4  O6P       19.1600   11.5740    5.3790 O.3   150  THP150     -0.1145
      5  P1        21.0400   14.2800    0.8280 P.3   150  THP150      0.5326
      6  O1P       21.7180   13.2180    1.6510 O.3   150  THP150     -0.1145
      7  O2P       22.1420   14.9440   -0.1540 O.2   150  THP150     -0.2224
      8  O3P       20.3980   15.2890    1.8490 O.3   150  THP150     -0.1145
      9  O5'       17.8870   10.8280    3.1750 O.3   150  THP150     -0.2675
     10  C5'       18.0590   12.1660    2.6100 C.3   150  THP150      0.1857
     11  C4'       18.8490   11.9930    1.3080 C.3   150  THP150      0.1748
     12  O4'       18.3370   10.9050    0.5540 O.3   150  THP150     -0.3340
     13  C3'       18.7800   13.2710    0.3880 C.3   150  THP150      0.1600
     14  O3'       20.0860   13.5820   -0.2290 O.3   150  THP150     -0.2700
     15  C2'       17.8380   12.7530   -0.7450 C.3   150  THP150      0.0847
     16  C1'       17.9910   11.2250   -0.7940 C.3   150  THP150      0.2089
     17  N1        16.6650   10.6070   -1.1700 N.am  150  THP150     -0.1794
     18  C2        16.3520   10.3740   -2.4640 C.1   150  THP150      0.2844
     19  O2        17.1500   10.7260   -3.3910 O.2   150  THP150     -0.1918
     20  N3        15.1470    9.9240   -2.8420 N.2   150  THP150     -0.2455
     21  C4        14.2000    9.6290   -1.8840 C.1   150  THP150      0.2134
     22  O4        13.1270    9.2130   -2.2780 O.2   150  THP150     -0.2088
     23  C5        14.5160    9.8230   -0.5470 C.2   150  THP150      0.0891
     24  C5M       13.5120    9.4710    0.5220 C.3   150  THP150      0.0462
     25  C6        15.7500   10.2960   -0.1800 C.2   150  THP150      0.0877
@<TRIPOS>BOND
     1    19    18    2
     2    20    18    2
     3    20    21    2
     4    18    17   am
     5    22    21    2
     6    21    23    1
     7    17    16    1
     8    17    25    1
     9    16    15    1
    10    16    12    1
    11    15    13    1
    12    23    25    2
    13    23    24    1
    14    14    13    1
    15    14     5    1
    16     7     5    2
    17    13    11    1
    18    12    11    1
    19     5     6    1
    20     5     8    1
    21    11    10    1
    22    10     9    1
    23     9     1    1
    24     1     3    2
    25     1     2    1
    26     1     4    1
