@<TRIPOS>MOLECULE
3nxx_NDP_A_1.pdb
 48 52 0 0 0
SMALL
GASTEIGER

@<TRIPOS>ATOM
      1  PA        -6.0930  -22.4710  -35.9540 P.3   187  NDP187      0.2189
      2  O1A       -5.9530  -23.8740  -35.5990 O.2   187  NDP187     -0.5170
      3  O2A       -5.2700  -21.5040  -35.3120 O.3   187  NDP187     -0.4371
      4  O5B       -5.9560  -22.2430  -37.5170 O.3   187  NDP187     -0.3112
      5  C5B       -6.5190  -23.2100  -38.4400 C.3   187  NDP187      0.1813
      6  C4B       -5.7990  -23.0170  -39.7420 C.3   187  NDP187      0.1820
      7  O4B       -4.4040  -23.4950  -39.4500 O.3   187  NDP187     -0.3136
      8  C3B       -6.3050  -24.0740  -40.6960 C.3   187  NDP187      0.2157
      9  O3B       -7.4060  -23.6510  -41.5770 O.3   187  NDP187     -0.2175
     10  C2B       -5.0130  -24.4660  -41.4510 C.3   187  NDP187      0.2314
     11  O2B       -4.6200  -23.5610  -42.4130 O.3   187  NDP187     -0.2630
     12  C1B       -3.9350  -24.4070  -40.3600 C.3   187  NDP187      0.3158
     13  N9A       -3.8380  -25.6930  -39.6510 N.pl3 187  NDP187     -0.1439
     14  C8A       -4.3460  -26.0270  -38.4290 C.3   187  NDP187      0.3377
     15  N7A       -3.8080  -27.2440  -38.1300 N.2   187  NDP187     -0.2095
     16  C5A       -2.9610  -27.6330  -39.0940 C.2   187  NDP187      0.2526
     17  C6A       -2.1880  -28.7810  -39.3000 C.2   187  NDP187      0.4393
     18  N6A       -2.0930  -29.8410  -38.4270 N.pl3 187  NDP187      0.2180
     19  N1A       -1.4040  -28.8200  -40.4040 N.2   187  NDP187      0.0021
     20  C2A       -1.3850  -27.8220  -41.2920 C.3   187  NDP187      0.5254
     21  N3A       -2.1550  -26.7650  -41.1820 N.2   187  NDP187     -0.0055
     22  C4A       -2.9610  -26.6620  -40.0710 C.2   187  NDP187      0.3518
     23  O3        -7.6600  -22.0210  -35.7400 O.3   187  NDP187     -0.2703
     24  PN        -8.8360  -21.9600  -34.6320 P.3   187  NDP187      0.2189
     25  O1N      -10.0110  -21.2180  -35.2810 O.2   187  NDP187     -0.5170
     26  O2N       -8.9780  -23.2660  -33.9960 O.3   187  NDP187     -0.4371
     27  O5D       -8.2230  -21.0380  -33.5740 O.3   187  NDP187     -0.3112
     28  C5D       -8.1460  -19.6650  -33.6290 C.3   187  NDP187      0.1813
     29  C4D       -9.1610  -19.1060  -32.5270 C.3   187  NDP187      0.1799
     30  O4D       -8.7900  -19.6280  -31.1890 O.3   187  NDP187     -0.3327
     31  C3D       -9.1030  -17.6080  -32.4200 C.3   187  NDP187      0.2158
     32  O3D      -10.3580  -17.1470  -31.8100 O.3   187  NDP187     -0.2175
     33  C2D       -8.0350  -17.3870  -31.3330 C.3   187  NDP187      0.2309
     34  O2D       -8.2410  -16.1620  -30.6000 O.3   187  NDP187     -0.2158
     35  C1D       -8.3570  -18.5720  -30.3840 C.3   187  NDP187      0.2263
     36  N1N       -7.2430  -19.1260  -29.5600 N.pl3 187  NDP187     -0.2787
     37  C2N       -7.3920  -19.0120  -28.1690 C.3   187  NDP187      0.1244
     38  C3N       -6.4580  -19.6170  -27.3350 C.2   187  NDP187      0.0544
     39  C7N       -6.6150  -19.5460  -25.8850 C.2   187  NDP187      0.2818
     40  O7N       -7.8110  -19.1570  -25.2860 O.2   187  NDP187     -0.2670
     41  N7N       -5.7890  -20.1040  -25.1360 N.am  187  NDP187     -0.0839
     42  C4N       -5.3220  -20.2250  -27.8840 C.2   187  NDP187      0.0033
     43  C5N       -5.1860  -20.1810  -29.3320 C.2   187  NDP187      0.0157
     44  C6N       -6.1260  -19.6530  -30.1840 C.2   187  NDP187      0.0633
     45  P2B       -4.7340  -23.7350  -43.9240 P.3   187  NDP187      0.5328
     46  O1X       -4.1260  -25.0420  -44.2940 O.3   187  NDP187     -0.1145
     47  O2X       -4.0110  -22.5720  -44.4640 O.2   187  NDP187     -0.2224
     48  O3X       -6.1970  -23.6830  -44.2720 O.3   187  NDP187     -0.1145
@<TRIPOS>BOND
     1    47    45    2
     2    46    45    1
     3    48    45    1
     4    45    11    1
     5    11    10    1
     6     9     8    1
     7    10     8    1
     8    10    12    1
     9    20    21    1
    10    20    19    1
    11    21    22    2
    12     8     6    1
    13    19    17    2
    14    12    13    1
    15    12     7    1
    16    22    13    1
    17    22    16    1
    18     6     7    1
    19     6     5    1
    20    13    14    1
    21    17    16    1
    22    17    18    1
    23    16    15    2
    24     5     4    1
    25    14    15    1
    26     4     1    1
    27     1    23    1
    28     1     2    2
    29     1     3    1
    30    23    24    1
    31    25    24    2
    32    24    26    1
    33    24    27    1
    34    28    27    1
    35    28    29    1
    36    29    31    1
    37    29    30    1
    38    31    32    1
    39    31    33    1
    40    33    34    1
    41    33    35    1
    42    30    35    1
    43    35    36    1
    44    44    36    1
    45    44    43    2
    46    36    37    1
    47    43    42    1
    48    37    38    1
    49    42    38    2
    50    38    39    1
    51    39    40    2
    52    39    41   am
