@<TRIPOS>MOLECULE
3nxx_D2D_A_1.pdb
 25 27 0 0 0
SMALL
GASTEIGER

@<TRIPOS>ATOM
      1  N1        -3.5770  -17.8530  -22.1480 N.2   188  D2D188     -0.3071
      2  C2        -3.0360  -19.1030  -21.9870 C.1   188  D2D188      0.2456
      3  N3        -2.6990  -19.8390  -23.0300 N.2   188  D2D188     -0.2883
      4  C4        -2.8590  -19.3300  -24.2460 C.2   188  D2D188      0.2933
      5  C5        -3.3870  -18.0990  -24.5010 C.2   188  D2D188      0.1142
      6  C6        -3.7660  -17.3350  -23.3920 C.2   188  D2D188      0.2382
      7  CAA       -0.0850  -14.8840  -28.5180 C.3   188  D2D188      0.0003
      8  CAB       -4.2030  -12.8120  -24.8290 C.3   188  D2D188      0.2525
      9  NAC       -2.8560  -19.6280  -20.7740 N.pl3 188  D2D188     -0.0231
     10  NAD       -4.3260  -16.1090  -23.5020 N.pl3 188  D2D188     -0.0919
     11  CAE       -3.9680  -16.9410  -26.6550 C.2   188  D2D188     -0.0045
     12  CAF       -6.0220  -12.9250  -28.7130 C.ar  188  D2D188      0.0031
     13  CAG       -5.8470  -13.9710  -29.5870 C.ar  188  D2D188      0.0002
     14  CAH       -5.3910  -12.8160  -27.4830 C.ar  188  D2D188      0.0369
     15  CAI       -4.9970  -15.0200  -29.2260 C.ar  188  D2D188      0.0027
     16  CAJ       -2.8670  -19.1970  -26.4120 C.3   188  D2D188      0.2351
     17  CAK       -1.2250  -14.8470  -27.5400 C.3   188  D2D188      0.0044
     18  CAL       -1.9940  -16.1460  -27.7790 C.3   188  D2D188      0.0264
     19  OAO       -3.9070  -13.8220  -25.8430 O.3   188  D2D188     -0.4714
     20  OAP       -2.4810  -20.0150  -25.3400 O.2   188  D2D188     -0.4461
     21  CAQ       -3.4590  -16.0060  -27.5270 C.2   188  D2D188     -0.0195
     22  CAS       -3.4030  -18.0390  -25.9160 C.2   188  D2D188      0.0305
     23  CAU       -4.5450  -13.8660  -27.1130 C.ar  188  D2D188      0.1383
     24  CAV       -4.3390  -14.9620  -27.9730 C.ar  188  D2D188      0.0300
     25  C19       -2.0820  -13.5950  -27.7300 C.3   188  D2D188      0.0003
@<TRIPOS>BOND
     1    13    15   ar
     2    13    12   ar
     3    15    24   ar
     4    12    14   ar
     5     7    17    1
     6    24    21    1
     7    24    23   ar
     8    18    17    1
     9    18    21    1
    10    25    17    1
    11    21    11    2
    12    14    23   ar
    13    23    19    1
    14    11    22    1
    15    16    22    1
    16    16    20    1
    17    22     5    2
    18    19     8    1
    19    20     4    1
    20     5     4    1
    21     5     6    1
    22     4     3    2
    23    10     6    1
    24     6     1    2
    25     3     2    2
    26     1     2    2
    27     2     9    1
