@<TRIPOS>MOLECULE
3nxy_D2H_A_1.pdb
 25 27 0 0 0
SMALL
GASTEIGER

@<TRIPOS>ATOM
      1  N1        -3.5790   17.7280   22.1300 N.2   188  D2H188     -0.3110
      2  C2        -3.0620   18.9700   21.9340 C.1   188  D2H188      0.2450
      3  N3        -2.7110   19.7740   22.9700 N.2   188  D2H188     -0.2915
      4  C4        -2.8970   19.3600   24.2310 C.2   188  D2H188      0.2814
      5  C5        -3.4440   18.0800   24.4520 C.3   188  D2H188      0.1861
      6  C6        -3.7810   17.2610   23.3510 C.2   188  D2H188      0.2239
      7  CAA       -0.8550   17.4740   29.0600 C.3   188  D2H188      0.0003
      8  CAB       -4.5560   12.0980   24.9900 C.3   188  D2H188      0.2525
      9  CAC       -1.0830   14.4590   27.6530 C.3   188  D2H188      0.0047
     10  NAD       -2.9040   19.3590   20.6910 N.pl3 188  D2H188     -0.0231
     11  NAE       -4.2800   16.0340   23.4550 N.pl3 188  D2H188     -0.0961
     12  CAF       -4.0280   16.7440   26.4830 C.2   188  D2H188     -0.0044
     13  CAG       -6.2900   12.9560   28.7530 C.ar  188  D2H188      0.0031
     14  CAH       -5.9440   14.1170   29.4610 C.ar  188  D2H188      0.0002
     15  CAI       -5.6860   12.6780   27.5280 C.ar  188  D2H188      0.0369
     16  CAJ       -5.0000   14.9970   28.9450 C.ar  188  D2H188      0.0027
     17  CAK       -3.0360   19.0220   26.4340 C.2   188  D2H188      0.1788
     18  CAL       -1.8170   16.3240   29.0090 C.3   188  D2H188      0.0044
     19  OAO       -4.1590   13.2660   25.7870 O.3   188  D2H188     -0.4714
     20  OAP       -2.6460   19.9440   25.4640 O.2   188  D2H188     -0.4265
     21  CAQ       -3.4290   15.6940   27.2170 C.2   188  D2H188     -0.0198
     22  CAS       -3.4840   17.8970   25.8380 C.2   188  D2H188      0.0330
     23  CAU       -4.7470   13.5600   26.9960 C.ar  188  D2H188      0.1383
     24  CAV       -4.3690   14.7380   27.7160 C.ar  188  D2H188      0.0300
     25  CAY       -1.8980   15.7520   27.5980 C.3   188  D2H188      0.0224
@<TRIPOS>BOND
     1    10     2    1
     2     2     1    2
     3     2     3    2
     4     1     6    2
     5     3     4    2
     6     6    11    1
     7     6     5    1
     8     4     5    1
     9     4    20    1
    10     5    22    1
    11     8    19    1
    12    20    17    1
    13    19    23    1
    14    22    17    2
    15    22    12    1
    16    12    21    2
    17    23    15   ar
    18    23    24   ar
    19    21    25    1
    20    21    24    1
    21    15    13   ar
    22    25     9    1
    23    25    18    1
    24    24    16   ar
    25    13    14   ar
    26    16    14   ar
    27    18     7    1
