@<TRIPOS>MOLECULE
3nxy_NDP_A_1.pdb
 48 52 0 0 0
SMALL
GASTEIGER

@<TRIPOS>ATOM
      1  PA        -5.8620   22.3750   35.8780 P.3   187  NDP187      0.2189
      2  O1A       -5.5140   23.8160   35.7420 O.3   187  NDP187     -0.4371
      3  O2A       -5.0990   21.4160   35.0580 O.2   187  NDP187     -0.5170
      4  O5B       -5.7000   22.0570   37.3340 O.3   187  NDP187     -0.3112
      5  C5B       -6.3090   22.9180   38.2920 C.3   187  NDP187      0.1813
      6  C4B       -5.5060   22.9770   39.5910 C.3   187  NDP187      0.1820
      7  O4B       -4.0470   23.3570   39.4620 O.3   187  NDP187     -0.3136
      8  C3B       -6.1920   24.0970   40.4180 C.3   187  NDP187      0.2157
      9  O3B       -7.2970   23.5330   41.1690 O.3   187  NDP187     -0.2175
     10  C2B       -5.0120   24.4900   41.3040 C.3   187  NDP187      0.2314
     11  O2B       -4.6590   23.3990   42.1640 O.3   187  NDP187     -0.2630
     12  C1B       -3.8410   24.5000   40.2930 C.3   187  NDP187      0.3158
     13  N9A       -3.7290   25.6860   39.3970 N.pl3 187  NDP187     -0.1439
     14  C8A       -4.3380   26.0100   38.2360 C.3   187  NDP187      0.3377
     15  N7A       -3.8510   27.2170   37.8440 N.2   187  NDP187     -0.2095
     16  C5A       -2.9200   27.6350   38.7280 C.2   187  NDP187      0.2526
     17  C6A       -2.0590   28.7600   38.8880 C.2   187  NDP187      0.4393
     18  N6A       -1.9510   29.8000   38.0450 N.pl3 187  NDP187      0.2180
     19  N1A       -1.2610   28.7760   39.9670 N.2   187  NDP187      0.0021
     20  C2A       -1.2680   27.7800   40.8640 C.3   187  NDP187      0.5254
     21  N3A       -2.0450   26.7130   40.7850 N.2   187  NDP187     -0.0055
     22  C4A       -2.8690   26.6340   39.7160 C.2   187  NDP187      0.3518
     23  O3        -7.4550   22.1060   35.6800 O.3   187  NDP187     -0.2703
     24  PN        -8.6700   21.9700   34.4430 P.3   187  NDP187      0.2189
     25  O1N       -9.7560   21.2040   35.1090 O.3   187  NDP187     -0.4371
     26  O2N       -8.9930   23.3100   33.8490 O.2   187  NDP187     -0.5170
     27  O5D       -8.0770   20.9990   33.2250 O.3   187  NDP187     -0.3112
     28  C5D       -7.6030   19.6140   33.3340 C.3   187  NDP187      0.1813
     29  C4D       -8.6220   18.7810   32.5720 C.3   187  NDP187      0.1799
     30  O4D       -8.8790   19.2940   31.1990 O.3   187  NDP187     -0.3327
     31  C3D       -8.3800   17.3030   32.3600 C.3   187  NDP187      0.2158
     32  O3D       -9.7210   16.8530   32.1070 O.3   187  NDP187     -0.2175
     33  C2D       -7.5760   17.2030   31.0700 C.3   187  NDP187      0.2309
     34  O2D       -7.9410   16.0620   30.3190 O.3   187  NDP187     -0.2158
     35  C1D       -8.1510   18.3490   30.2520 C.3   187  NDP187      0.2263
     36  N1N       -7.1130   18.9880   29.4280 N.pl3 187  NDP187     -0.2787
     37  C2N       -7.3290   18.9390   28.0660 C.3   187  NDP187      0.1244
     38  C3N       -6.4240   19.5390   27.2060 C.2   187  NDP187      0.0544
     39  C7N       -6.7190   19.4920   25.6930 C.2   187  NDP187      0.2818
     40  O7N       -7.8590   18.8860   25.1430 O.2   187  NDP187     -0.2670
     41  N7N       -5.8850   20.2340   24.9770 N.am  187  NDP187     -0.0839
     42  C4N       -5.3040   20.2070   27.7510 C.2   187  NDP187      0.0033
     43  C5N       -5.0970   20.2630   29.1400 C.2   187  NDP187      0.0157
     44  C6N       -6.0030   19.6600   29.9960 C.2   187  NDP187      0.0633
     45  P2B       -4.6970   23.5950   43.6520 P.3   187  NDP187      0.5328
     46  O1X       -3.9480   24.9300   43.8840 O.2   187  NDP187     -0.2224
     47  O2X       -3.7720   22.2890   44.1310 O.3   187  NDP187     -0.1145
     48  O3X       -6.0900   23.5200   44.1300 O.3   187  NDP187     -0.1145
@<TRIPOS>BOND
     1    41    39   am
     2    40    39    2
     3    39    38    1
     4    38    42    2
     5    38    37    1
     6    42    43    1
     7    37    36    1
     8    43    44    2
     9    36    44    1
    10    36    35    1
    11    35    33    1
    12    35    30    1
    13    34    33    1
    14    33    31    1
    15    30    29    1
    16    32    31    1
    17    31    29    1
    18    29    28    1
    19    27    28    1
    20    27    24    1
    21    26    24    2
    22    24    25    1
    23    24    23    1
    24     3     1    2
    25    23     1    1
    26     2     1    1
    27     1     4    1
    28     4     5    1
    29    15    14    1
    30    15    16    2
    31    18    17    1
    32    14    13    1
    33     5     6    1
    34    16    17    1
    35    16    22    1
    36    17    19    2
    37    13    22    1
    38    13    12    1
    39     7     6    1
    40     7    12    1
    41     6     8    1
    42    22    21    2
    43    19    20    1
    44    12    10    1
    45     8     9    1
    46     8    10    1
    47    21    20    1
    48    10    11    1
    49    11    45    1
    50    45    46    2
    51    45    48    1
    52    45    47    1
