@<TRIPOS>MOLECULE
3ny3_III_B_1.pdb
 36 36 0 0 0
SMALL
GASTEIGER

@<TRIPOS>ATOM
      1  N         13.1660    1.5290   10.2310 N.3     1  ARG1       -0.1231
      2  CA        13.6500    1.5720    8.8240 C.3     1  ARG1        0.1694
      3  C         15.0400    0.9440    8.7430 C.2     1  ARG1        0.2592
      4  O         15.7330    0.8040    9.7520 O.2     1  ARG1       -0.2718
      5  CB        13.7020    3.0220    8.3050 C.3     1  ARG1        0.0321
      6  CG        12.4100    3.8370    8.4930 C.3     1  ARG1        0.0489
      7  CD        11.2850    3.3270    7.5930 C.3     1  ARG1        0.2205
      8  NE        10.1960    4.3020    7.5090 N.pl3   1  ARG1       -0.0865
      9  CZ         9.3080    4.5430    8.4710 C.cat   1  ARG1        0.5346
     10  NH1        9.3320    3.8780    9.6280 N.pl3   1  ARG1        0.1354
     11  NH2        8.3790    5.4790    8.2750 N.pl3   1  ARG1        0.1354
     12  N         15.4530    0.5790    7.5310 N.am    2  ILE2       -0.1966
     13  CA        16.8030    0.0570    7.3130 C.3     2  ILE2        0.1727
     14  C         17.8360    1.0770    7.8080 C.2     2  ILE2        0.2616
     15  O         17.5560    2.2770    7.8240 O.2     2  ILE2       -0.2715
     16  CB        17.0210   -0.3340    5.8310 C.3     2  ILE2        0.0290
     17  CG1       16.0670   -1.4800    5.4480 C.3     2  ILE2        0.0022
     18  CG2       18.4790   -0.7290    5.5770 C.3     2  ILE2        0.0023
     19  CD1       16.2510   -2.0470    4.0230 C.3     2  ILE2        0.0001
     20  N         19.0080    0.5980    8.2420 N.am    3  PHE3       -0.1960
     21  CA        20.0520    1.4820    8.7690 C.3     3  PHE3        0.1771
     22  C         20.3160    2.6730    7.8480 C.2     3  PHE3        0.2620
     23  O         20.5140    2.5060    6.6470 O.2     3  PHE3       -0.2715
     24  CB        21.3530    0.7170    9.0170 C.3     3  PHE3        0.0574
     25  CG        22.4110    1.5340    9.7130 C.ar    3  PHE3       -0.0200
     26  CD1       23.6140    1.8190    9.0750 C.ar    3  PHE3       -0.0042
     27  CD2       22.1940    2.0340   11.0030 C.ar    3  PHE3       -0.0042
     28  CE1       24.5940    2.5820    9.7110 C.ar    3  PHE3       -0.0003
     29  CE2       23.1710    2.8060   11.6510 C.ar    3  PHE3       -0.0003
     30  CZ        24.3780    3.0730   10.9970 C.ar    3  PHE3       -0.0000
     31  N         20.3110    3.8670    8.4290 N.am    4  SER4       -0.1950
     32  CA        20.5030    5.0850    7.6550 C.3     4  SER4        0.1924
     33  C         21.5540    5.9640    8.3170 C.2     4  SER4        0.2314
     34  O         21.9580    6.9790    7.7660 O.2     4  SER4       -0.2863
     35  CB        19.1800    5.8430    7.5220 C.3     4  SER4        0.2116
     36  OG        18.7520    6.3350    8.7820 O.3     4  SER4       -0.2180
@<TRIPOS>BOND
     1    19    17    1
     2    17    16    1
     3    18    16    1
     4    16    13    1
     5    23    22    2
     6    13    12    1
     7    13    14    1
     8     8     7    1
     9     8     9    2
    10    35    32    1
    11    35    36    1
    12    12     3   am
    13     7     6    1
    14    32    33    1
    15    32    31    1
    16    34    33    2
    17    14    15    2
    18    14    20   am
    19    22    31   am
    20    22    21    1
    21    20    21    1
    22    11     9    1
    23     5     6    1
    24     5     2    1
    25     9    10    1
    26     3     2    1
    27     3     4    2
    28    21    24    1
    29     2     1    1
    30    24    25    1
    31    26    28   ar
    32    26    25   ar
    33    28    30   ar
    34    25    27   ar
    35    30    29   ar
    36    27    29   ar
