@<TRIPOS>MOLECULE
3ny4_SMX_A_1.pdb
 31 34 0 0 0
SMALL
GASTEIGER

@<TRIPOS>ATOM
      1  C        -11.0130  -10.2260    4.4700 C.2   308  SMX308      0.2526
      2  N        -10.3130  -12.1860    3.1360 N.am  308  SMX308     -0.1927
      3  O        -12.1760  -10.0840    4.4510 O.2   308  SMX308     -0.2726
      4  CA       -10.1440  -11.4850    4.4150 C.3   308  SMX308      0.2003
      5  CB        -9.0220  -10.4860    4.3680 C.3   308  SMX308      0.1570
      6  NBD      -10.0360   -9.3960    4.3890 N.am  308  SMX308     -0.2421
      7  NBE       -5.7270   -4.4900    2.6640 N.ar  308  SMX308     -0.2064
      8  NAN       -4.6510   -4.5840    1.0230 N.ar  308  SMX308     -0.0221
      9  NAO       -5.5770   -5.2730    0.7490 N.ar  308  SMX308     -0.1015
     10  NAP       -4.7070   -4.1180    2.1540 N.ar  308  SMX308     -0.0425
     11  CAA       -6.0750   -4.0880    3.9740 C.3   308  SMX308      0.1578
     12  OAB      -11.2020   -7.0510    5.6550 O.co2 308  SMX308     -0.2392
     13  OAC       -8.7790  -13.7430    3.5940 O.2   308  SMX308     -0.2702
     14  OAE      -11.3760   -6.2920    3.3430 O.co2 308  SMX308     -0.2392
     15  OAF       -9.6080  -15.3170    1.5790 O.3   308  SMX308     -0.2083
     16  CAG       -8.6670  -11.9700   -2.0140 C.ar  308  SMX308     -0.0000
     17  CAH       -9.5950  -12.9680   -2.0840 C.ar  308  SMX308     -0.0002
     18  CAI       -8.1150  -11.6270   -0.8230 C.ar  308  SMX308     -0.0002
     19  CAJ       -9.9620  -13.6050   -0.9260 C.ar  308  SMX308     -0.0013
     20  CAK       -8.4750  -12.3090    0.3310 C.ar  308  SMX308     -0.0013
     21  CAL       -8.3270   -6.2090    3.6400 C.3   308  SMX308      0.0894
     22  CAM       -7.3570   -8.6030    3.5370 C.3   308  SMX308      0.0835
     23  SAR       -7.8850   -6.0530    1.9670 S.3   308  SMX308     -0.0697
     24  SAS       -7.9360  -10.2570    2.9700 S.3   308  SMX308     -0.1141
     25  CAT      -10.8320   -7.1000    4.3810 C.2   308  SMX308      0.4007
     26  CAU       -9.6020  -13.2870    2.8600 C.2   308  SMX308      0.2767
     27  CAV       -8.5490   -7.6720    3.8210 C.2   308  SMX308     -0.0020
     28  CAX       -9.7460   -8.0910    4.1520 C.2   308  SMX308      0.1287
     29  CAY       -9.3970  -13.2660    0.2830 C.ar  308  SMX308      0.0166
     30  CAZ       -6.3050   -5.2750    1.8070 C.ar  308  SMX308      0.2110
     31  CBA       -9.6700  -13.9360    1.5380 C.3   308  SMX308      0.2513
@<TRIPOS>BOND
     1    17    16   ar
     2    17    19   ar
     3    16    18   ar
     4    19    29   ar
     5    18    20   ar
     6    29    20   ar
     7    29    31    1
     8     9     8   ar
     9     9    30   ar
    10     8    10   ar
    11    31    15    1
    12    31    26    1
    13    30    23    1
    14    30     7   ar
    15    23    21    1
    16    10     7   ar
    17     7    11    1
    18    26     2   am
    19    26    13    2
    20    24    22    1
    21    24     5    1
    22     2     4    1
    23    14    25   ar
    24    22    27    1
    25    21    27    1
    26    27    28    2
    27    28    25    1
    28    28     6    1
    29     5     6    1
    30     5     4    1
    31    25    12   ar
    32     6     1   am
    33     4     1    1
    34     3     1    2
