@<TRIPOS>MOLECULE
3ny7_SXM_B_1.pdb
 28 27 0 0 0
SMALL
GASTEIGER

@<TRIPOS>ATOM
      1  P24       22.3180   21.1770   47.8270 P.3    79  SXM79       0.3028
      2  P24       21.8950   21.1220   47.9890 P.3    79  SXM79       0.2886
      3  O23       21.5190   20.3090   48.9110 O.3    79  SXM79      -0.1688
      4  O27       21.8030   20.7440   46.3710 O.3    79  SXM79      -0.3120
      5  C28       20.4250   20.5370   46.1520 C.3    79  SXM79       0.1518
      6  C29       20.2470   20.1460   44.6710 C.3    79  SXM79       0.0645
      7  C30       21.2780   19.0680   44.3700 C.3    79  SXM79       0.0056
      8  C31       20.4820   21.3710   43.7870 C.3    79  SXM79       0.0056
      9  C32       18.8080   19.5860   44.4670 C.3    79  SXM79       0.2312
     10  O33       17.8880   20.5900   44.8800 O.3    79  SXM79      -0.2131
     11  C34       18.5420   19.2600   42.9820 C.2    79  SXM79       0.2719
     12  O35       19.3860   18.6380   42.3100 O.2    79  SXM79      -0.2706
     13  N36       17.3360   19.5860   42.4040 N.am   79  SXM79      -0.2028
     14  C37       17.0970   19.4250   40.9860 C.3    79  SXM79       0.1248
     15  C38       16.8650   20.8100   40.3530 C.3    79  SXM79       0.1102
     16  C39       18.1450   21.6190   40.2100 C.2    79  SXM79       0.2432
     17  O40       19.2380   21.0340   40.0370 O.2    79  SXM79      -0.2733
     18  N41       18.0710   22.9790   39.9640 N.am   79  SXM79      -0.2044
     19  C42       19.2470   23.8230   39.8710 C.3    79  SXM79       0.1268
     20  C43       19.4030   24.7490   41.0850 C.3    79  SXM79       0.0833
     21  S1        19.0040   26.4340   40.6210 S.3    79  SXM79      -0.1067
     22  C1        17.3560   26.4830   39.8080 C.3    79  SXM79       0.2074
     23  O1        17.0420   27.7330   39.2450 O.3    79  SXM79      -0.2108
     24  C2        16.1880   26.1360   40.7270 C.3    79  SXM79       0.1439
     25  C3        15.1120   25.4520   39.8700 C.3    79  SXM79       0.4294
     26  O3A       13.8100   25.6110   40.4110 O.2    79  SXM79      -0.2669
     27  O3B       15.3210   24.0590   39.8880 O.2    79  SXM79      -0.2669
     28  O10       23.7580   21.2180   47.9970 O.2    79  SXM79      -0.2946
@<TRIPOS>BOND
     1    23    22    1
     2    22    21    1
     3    22    24    1
     4    25    27    1
     5    25    26    1
     6    25    24    1
     7    19    18    1
     8    19    20    1
     9    18    16   am
    10    17    16    2
    11    16    15    1
    12    15    14    1
    13    21    20    1
    14    14    13    1
    15    12    11    2
    16    13    11   am
    17    11     9    1
    18     8     6    1
    19     7     6    1
    20     9     6    1
    21     9    10    1
    22     6     5    1
    23     5     4    1
    24     4     2    1
    25     1     2    1
    26     1    28    2
    27     2     3    1
