@<TRIPOS>MOLECULE
3ny8_JRZ_A_1.pdb
 20 21 0 0 0
SMALL
GASTEIGER

@<TRIPOS>ATOM
      1  C1         1.2850    0.3310   51.5360 C.3   1203  JRZ1203     0.0262
      2  N1         3.4010    8.2360   53.1020 N.3   1203  JRZ1203    -0.2182
      3  O1         3.1040    4.7170   50.4780 O.3   1203  JRZ1203    -0.4730
      4  C2         1.8300    1.0520   52.7400 C.3   1203  JRZ1203     0.0094
      5  O2         3.5170    8.3590   50.4050 O.3   1203  JRZ1203    -0.2176
      6  C3         2.7620    2.1350   52.2400 C.3   1203  JRZ1203     0.0294
      7  C4         2.1230    2.4980   50.8760 C.ar  1203  JRZ1203     0.0075
      8  C5         1.2740    1.4540   50.4820 C.ar  1203  JRZ1203    -0.0272
      9  C6         0.5450    1.5650   49.3050 C.ar  1203  JRZ1203    -0.0259
     10  C7        -0.4000    0.4450   48.8930 C.3   1203  JRZ1203     0.0307
     11  C8         0.6590    2.6950   48.5030 C.ar  1203  JRZ1203    -0.0015
     12  C9         1.4930    3.7430   48.8900 C.ar  1203  JRZ1203     0.0362
     13  C10        2.2150    3.6580   50.0900 C.ar  1203  JRZ1203     0.1343
     14  C11        2.9490    6.0530   49.9860 C.3   1203  JRZ1203     0.2394
     15  C12        3.6180    7.0650   50.9570 C.3   1203  JRZ1203     0.2111
     16  C13        2.9860    7.0360   52.3810 C.3   1203  JRZ1203     0.1068
     17  C14        1.4650    7.0340   52.3050 C.3   1203  JRZ1203     0.0216
     18  C15        3.4000    8.0860   54.5460 C.3   1203  JRZ1203     0.0729
     19  C16        4.6070    8.8140   55.1190 C.3   1203  JRZ1203     0.0188
     20  C17        2.1430    8.7230   55.1300 C.3   1203  JRZ1203     0.0188
@<TRIPOS>BOND
     1    11    12   ar
     2    11     9   ar
     3    12    13   ar
     4    10     9    1
     5     9     8   ar
     6    14     3    1
     7    14    15    1
     8    13     3    1
     9    13     7   ar
    10     5    15    1
    11     8     7   ar
    12     8     1    1
    13     7     6    1
    14    15    16    1
    15     1     4    1
    16     6     4    1
    17    17    16    1
    18    16     2    1
    19     2    18    1
    20    18    19    1
    21    18    20    1
