@<TRIPOS>MOLECULE
3ny8_CLR_A_1.pdb
 28 31 0 0 0
SMALL
GASTEIGER

@<TRIPOS>ATOM
      1  C1       -11.8460   10.1310   31.5350 C.3   1201  CLR1201     0.0026
      2  C2       -11.8920    9.7470   30.0370 C.3   1201  CLR1201     0.0329
      3  C3       -10.6480   10.2440   29.3420 C.3   1201  CLR1201     0.1520
      4  C4        -9.3890    9.6320   30.0250 C.3   1201  CLR1201     0.0329
      5  C5        -9.4680    9.1390   31.5150 C.3   1201  CLR1201     0.0025
      6  C6        -8.1330    9.3840   32.1860 C.3   1201  CLR1201     0.0001
      7  C7        -8.0640    9.5080   33.7750 C.3   1201  CLR1201     0.0000
      8  C8        -9.3050   10.2930   34.3810 C.3   1201  CLR1201     0.0000
      9  C9       -10.7140   10.0050   33.7510 C.3   1201  CLR1201     0.0000
     10  C10      -10.7790    9.3330   32.3110 C.3   1201  CLR1201     0.0002
     11  C11      -11.7730    9.4790   34.7680 C.3   1201  CLR1201     0.0000
     12  C12      -11.7270   10.2740   36.1530 C.3   1201  CLR1201     0.0000
     13  C13      -10.3670    9.9340   36.8480 C.3   1201  CLR1201     0.0000
     14  C14       -9.2140   10.3880   35.9420 C.3   1201  CLR1201     0.0000
     15  C15       -8.0020    9.9660   36.7400 C.3   1201  CLR1201     0.0000
     16  C16       -8.3970   10.3930   38.2030 C.3   1201  CLR1201     0.0000
     17  C17       -9.9400   10.7300   38.1530 C.3   1201  CLR1201     0.0000
     18  C18      -10.3290    8.4380   37.1790 C.3   1201  CLR1201     0.0000
     19  C19      -11.3700    7.9200   32.4500 C.3   1201  CLR1201     0.0000
     20  C20      -10.8470   10.5720   39.4390 C.3   1201  CLR1201     0.0000
     21  C21      -11.9170   11.6690   39.5000 C.3   1201  CLR1201     0.0000
     22  C22      -10.1300   10.3090   40.8280 C.3   1201  CLR1201     0.0000
     23  C23       -9.6010   11.5080   41.6820 C.3   1201  CLR1201     0.0000
     24  C24      -10.1670   11.6820   43.1160 C.3   1201  CLR1201     0.0000
     25  C25       -9.1850   11.9190   44.3040 C.3   1201  CLR1201     0.0000
     26  C26       -9.8680   12.0230   45.6680 C.3   1201  CLR1201     0.0000
     27  C27       -8.2020   13.0550   44.0470 C.3   1201  CLR1201     0.0000
     28  O1       -10.7000   10.1670   27.9290 O.3   1201  CLR1201    -0.2232
@<TRIPOS>BOND
     1    28     3    1
     2     3     4    1
     3     3     2    1
     4     4     5    1
     5     2     1    1
     6     5     6    1
     7     5    10    1
     8     1    10    1
     9     6     7    1
    10    10    19    1
    11    10     9    1
    12     9     8    1
    13     9    11    1
    14     7     8    1
    15     8    14    1
    16    11    12    1
    17    14    15    1
    18    14    13    1
    19    12    13    1
    20    15    16    1
    21    13    18    1
    22    13    17    1
    23    17    16    1
    24    17    20    1
    25    20    21    1
    26    20    22    1
    27    22    23    1
    28    23    24    1
    29    24    25    1
    30    27    25    1
    31    25    26    1
