@<TRIPOS>MOLECULE
3ny9_CLR_A_1.pdb
 28 31 0 0 0
SMALL
GASTEIGER

@<TRIPOS>ATOM
      1  C1       -11.6050   10.7020   31.4160 C.3   1201  CLR1201     0.0026
      2  C2       -11.6060   10.5330   29.8920 C.3   1201  CLR1201     0.0329
      3  C3       -10.1880   10.4680   29.3390 C.3   1201  CLR1201     0.1520
      4  C4        -9.4540    9.2880   29.9760 C.3   1201  CLR1201     0.0329
      5  C5        -9.4780    9.2640   31.5180 C.3   1201  CLR1201     0.0025
      6  C6        -8.2890   10.0790   32.0420 C.3   1201  CLR1201     0.0001
      7  C7        -8.0430    9.8400   33.5310 C.3   1201  CLR1201     0.0000
      8  C8        -9.3300    9.7010   34.3550 C.3   1201  CLR1201     0.0000
      9  C9       -10.5870   10.2230   33.6190 C.3   1201  CLR1201     0.0000
     10  C10      -10.8270    9.6310   32.1960 C.3   1201  CLR1201     0.0002
     11  C11      -11.8320   10.1960   34.5420 C.3   1201  CLR1201     0.0000
     12  C12      -11.6210   10.8330   35.9330 C.3   1201  CLR1201     0.0000
     13  C13      -10.3930   10.2910   36.6700 C.3   1201  CLR1201     0.0000
     14  C14       -9.2030   10.4000   35.7160 C.3   1201  CLR1201     0.0000
     15  C15       -7.9680   10.1290   36.5700 C.3   1201  CLR1201     0.0000
     16  C16       -8.3400   10.7840   37.9010 C.3   1201  CLR1201     0.0000
     17  C17       -9.8310   11.1500   37.8200 C.3   1201  CLR1201     0.0000
     18  C18      -10.6700    8.8510   37.1430 C.3   1201  CLR1201     0.0000
     19  C19      -11.6940    8.3740   32.2970 C.3   1201  CLR1201     0.0000
     20  C20      -10.5280   11.1600   39.2000 C.3   1201  CLR1201     0.0000
     21  C21      -11.8650   11.9140   39.1610 C.3   1201  CLR1201     0.0000
     22  C22       -9.6280   11.7230   40.3180 C.3   1201  CLR1201     0.0000
     23  C23       -9.9410   11.1530   41.7050 C.3   1201  CLR1201     0.0000
     24  C24       -8.9780   11.6510   42.7860 C.3   1201  CLR1201     0.0000
     25  C25       -9.6440   11.9190   44.1430 C.3   1201  CLR1201     0.0000
     26  C26       -8.6740   12.5780   45.1210 C.3   1201  CLR1201     0.0000
     27  C27      -10.2330   10.6710   44.7910 C.3   1201  CLR1201     0.0000
     28  O1       -10.2480   10.2990   27.9170 O.3   1201  CLR1201    -0.2232
@<TRIPOS>BOND
     1    28     3    1
     2     3     2    1
     3     3     4    1
     4     2     1    1
     5     4     5    1
     6     1    10    1
     7     5     6    1
     8     5    10    1
     9     6     7    1
    10    10    19    1
    11    10     9    1
    12     7     8    1
    13     9     8    1
    14     9    11    1
    15     8    14    1
    16    11    12    1
    17    14    15    1
    18    14    13    1
    19    12    13    1
    20    15    16    1
    21    13    18    1
    22    13    17    1
    23    17    16    1
    24    17    20    1
    25    21    20    1
    26    20    22    1
    27    22    23    1
    28    23    24    1
    29    24    25    1
    30    25    27    1
    31    25    26    1
