@<TRIPOS>MOLECULE
3ny9_JSZ_A_1.pdb
 24 25 0 0 0
SMALL
GASTEIGER

@<TRIPOS>ATOM
      1  C1         2.0170    0.4330   53.6230 C.2   1203  JSZ1203     0.3760
      2  N1         2.5850    8.4060   52.1110 N.3   1203  JSZ1203    -0.2167
      3  O1         1.2340   -0.4270   53.9870 O.2   1203  JSZ1203    -0.2414
      4  C2         3.3000    0.3450   55.8030 C.3   1203  JSZ1203     0.2090
      5  O2         3.1650    0.7940   54.4480 O.3   1203  JSZ1203    -0.4433
      6  C3         3.7210    1.5050   56.6810 C.3   1203  JSZ1203     0.0513
      7  O3         1.2950    0.4860   51.2400 O.2   1203  JSZ1203    -0.4472
      8  C4         1.7900    1.1250   52.3330 C.ar  1203  JSZ1203     0.2166
      9  O4         1.9680    5.0080   49.9790 O.3   1203  JSZ1203    -0.4726
     10  C5         2.0130    2.5450   51.9700 C.ar  1203  JSZ1203     0.0251
     11  O5         3.3950    8.0510   49.4120 O.3   1203  JSZ1203    -0.2176
     12  C6         2.5340    3.7260   52.7440 C.3   1203  JSZ1203     0.0347
     13  C7         1.6300    2.6950   50.6270 C.ar  1203  JSZ1203     0.0677
     14  C8         1.2150    1.4050   50.2760 C.ar  1203  JSZ1203     0.1482
     15  C9         0.7520    1.1310   48.9940 C.ar  1203  JSZ1203     0.0377
     16  C10        0.7060    2.1580   48.0500 C.ar  1203  JSZ1203     0.0062
     17  C11        1.1170    3.4450   48.3900 C.ar  1203  JSZ1203     0.0371
     18  C12        1.5860    3.7230   49.6750 C.ar  1203  JSZ1203     0.1413
     19  C13        3.1720    5.6400   49.5280 C.3   1203  JSZ1203     0.2395
     20  C14        3.3980    6.9370   50.3090 C.3   1203  JSZ1203     0.2126
     21  C15        2.3140    7.1680   51.3580 C.3   1203  JSZ1203     0.1253
     22  C16        2.6280    8.1420   53.5720 C.3   1203  JSZ1203     0.0730
     23  C17        2.9570    9.4320   54.3170 C.3   1203  JSZ1203     0.0188
     24  C18        1.3080    7.5640   54.0740 C.3   1203  JSZ1203     0.0188
@<TRIPOS>BOND
     1    16    17   ar
     2    16    15   ar
     3    17    18   ar
     4    15    14   ar
     5    11    20    1
     6    19     9    1
     7    19    20    1
     8    18     9    1
     9    18    13   ar
    10    14    13   ar
    11    14     7   ar
    12    20    21    1
    13    13    10   ar
    14     7     8   ar
    15    21     2    1
    16    10     8   ar
    17    10    12    1
    18     2    22    1
    19     8     1    1
    20    22    24    1
    21    22    23    1
    22     1     3    2
    23     1     5    1
    24     5     4    1
    25     4     6    1
