@<TRIPOS>MOLECULE
3nya_CLR_A_1.pdb
 28 31 0 0 0
SMALL
GASTEIGER

@<TRIPOS>ATOM
      1  C1        11.7120   10.1530  -31.0790 C.3   1201  CLR1201     0.0026
      2  C2        11.6280   10.0180  -29.5490 C.3   1201  CLR1201     0.0329
      3  C3        10.2200   10.1810  -28.9710 C.3   1201  CLR1201     0.1520
      4  C4         9.2550    9.2630  -29.7200 C.3   1201  CLR1201     0.0329
      5  C5         9.2840    9.6390  -31.2010 C.3   1201  CLR1201     0.0025
      6  C6         8.1400    8.9720  -31.9500 C.3   1201  CLR1201     0.0001
      7  C7         8.0620    9.5390  -33.3610 C.3   1201  CLR1201     0.0000
      8  C8         9.3740    9.3330  -34.1010 C.3   1201  CLR1201     0.0000
      9  C9        10.5670    9.9100  -33.3180 C.3   1201  CLR1201     0.0000
     10  C10       10.6460    9.3760  -31.8600 C.3   1201  CLR1201     0.0002
     11  C11       11.8660    9.7480  -34.1440 C.3   1201  CLR1201     0.0000
     12  C12       11.7740   10.3040  -35.5830 C.3   1201  CLR1201     0.0000
     13  C13       10.5480    9.7840  -36.3320 C.3   1201  CLR1201     0.0000
     14  C14        9.3180   10.0150  -35.4650 C.3   1201  CLR1201     0.0000
     15  C15        8.1520    9.6860  -36.3880 C.3   1201  CLR1201     0.0000
     16  C16        8.6340   10.1380  -37.7650 C.3   1201  CLR1201     0.0000
     17  C17       10.1120   10.5330  -37.5960 C.3   1201  CLR1201     0.0000
     18  C18       10.7390    8.3030  -36.6470 C.3   1201  CLR1201     0.0000
     19  C19       10.9970    7.8890  -31.8510 C.3   1201  CLR1201     0.0000
     20  C20       11.0230   10.3620  -38.8200 C.3   1201  CLR1201     0.0000
     21  C21       11.9040   11.6050  -38.9170 C.3   1201  CLR1201     0.0000
     22  C22       10.3280   10.0520  -40.1640 C.3   1201  CLR1201     0.0000
     23  C23        9.8810   11.2510  -41.0210 C.3   1201  CLR1201     0.0000
     24  C24       10.5700   11.2740  -42.3900 C.3   1201  CLR1201     0.0000
     25  C25        9.5960   11.3370  -43.5630 C.3   1201  CLR1201     0.0000
     26  C26       10.2570   10.8980  -44.8630 C.3   1201  CLR1201     0.0000
     27  C27        9.0460   12.7410  -43.7450 C.3   1201  CLR1201     0.0000
     28  O1        10.2250    9.9010  -27.5610 O.3   1201  CLR1201    -0.2232
@<TRIPOS>BOND
     1    26    25    1
     2    27    25    1
     3    25    24    1
     4    24    23    1
     5    23    22    1
     6    22    20    1
     7    21    20    1
     8    20    17    1
     9    16    17    1
    10    16    15    1
    11    17    13    1
    12    18    13    1
    13    15    14    1
    14    13    12    1
    15    13    14    1
    16    12    11    1
    17    14     8    1
    18    11     9    1
    19     8     7    1
    20     8     9    1
    21     7     6    1
    22     9    10    1
    23     6     5    1
    24    10    19    1
    25    10     5    1
    26    10     1    1
    27     5     4    1
    28     1     2    1
    29     4     3    1
    30     2     3    1
    31     3    28    1
