@<TRIPOS>MOLECULE
3nya_JTZ_A_1.pdb
 18 18 0 0 0
SMALL
GASTEIGER

@<TRIPOS>ATOM
      1  C1        -0.9370    7.9820  -53.7090 C.3   1203  JTZ1203     0.0188
      2  N1        -3.0240    7.8390  -52.3830 N.3   1203  JTZ1203    -0.2167
      3  O1        -3.3150    7.8020  -49.6760 O.3   1203  JTZ1203    -0.2176
      4  C2        -2.4620    7.8820  -53.7500 C.3   1203  JTZ1203     0.0730
      5  O2        -2.6700    4.2320  -50.0970 O.3   1203  JTZ1203    -0.4730
      6  C3        -3.0700    9.0670  -54.4940 C.3   1203  JTZ1203     0.0188
      7  C4        -2.5600    6.6430  -51.6660 C.3   1203  JTZ1203     0.1253
      8  C5        -3.2820    6.5310  -50.3340 C.3   1203  JTZ1203     0.2126
      9  C6        -2.5360    5.5160  -49.4910 C.3   1203  JTZ1203     0.2395
     10  C7        -1.9260    3.1510  -49.6910 C.ar  1203  JTZ1203     0.1350
     11  C8        -1.0790    3.2550  -48.5890 C.ar  1203  JTZ1203     0.0366
     12  C9        -0.3260    2.1630  -48.1800 C.ar  1203  JTZ1203     0.0031
     13  C10       -0.4150    0.9590  -48.8650 C.ar  1203  JTZ1203    -0.0001
     14  C11       -1.2580    0.8460  -49.9570 C.ar  1203  JTZ1203    -0.0009
     15  C12       -2.0150    1.9400  -50.3720 C.ar  1203  JTZ1203     0.0162
     16  C13       -2.9280    1.7850  -51.5660 C.3   1203  JTZ1203     0.0554
     17  C14       -2.1410    1.2030  -52.7100 C.2   1203  JTZ1203    -0.0213
     18  C15       -2.2270   -0.0820  -52.9960 C.2   1203  JTZ1203    -0.0046
@<TRIPOS>BOND
     1     6     4    1
     2     4     1    1
     3     4     2    1
     4    18    17    2
     5    17    16    1
     6     2     7    1
     7     7     8    1
     8    16    15    1
     9    15    14   ar
    10    15    10   ar
    11     8     3    1
    12     8     9    1
    13     5    10    1
    14     5     9    1
    15    14    13   ar
    16    10    11   ar
    17    13    12   ar
    18    11    12   ar
