@<TRIPOS>MOLECULE
3nyc_IAR_A_1.pdb
 12 11 0 0 0
SMALL
GASTEIGER

@<TRIPOS>ATOM
      1  C          6.6500   12.7520   19.1620 C.2   1600  IAR1600     0.3819
      2  N          5.4960   11.1020   20.4680 N.3   1600  IAR1600    -0.1208
      3  O          7.6050   12.9980   18.4050 O.co2 1600  IAR1600    -0.2441
      4  CA         6.7020   11.4840   20.0270 C.3   1600  IAR1600     0.1944
      5  CB         8.0340   10.8560   20.3660 C.3   1600  IAR1600     0.0343
      6  CD         9.7220   10.7030   22.2670 C.3   1600  IAR1600     0.2205
      7  NE         9.6230   10.7860   23.7370 N.pl3 1600  IAR1600    -0.0865
      8  CG         8.6320   11.5360   21.6010 C.3   1600  IAR1600     0.0490
      9  CZ         9.3630    9.6870   24.4390 C.cat 1600  IAR1600     0.5346
     10  NH1        8.5990    8.7650   23.8560 N.pl3 1600  IAR1600     0.1354
     11  NH2        9.8050    9.4540   25.6750 N.pl3 1600  IAR1600     0.1354
     12  OXT        5.6150   13.4400   19.3520 O.co2 1600  IAR1600    -0.2441
@<TRIPOS>BOND
     1     3     1   ar
     2     1    12   ar
     3     1     4    1
     4     4     5    1
     5     4     2    1
     6     5     8    1
     7     8     6    1
     8     6     7    1
     9     7     9    2
    10    10     9    1
    11     9    11    1
