@<TRIPOS>MOLECULE
3nyd_3NY_A_1.pdb
 12 13 0 0 0
SMALL
GASTEIGER

@<TRIPOS>ATOM
      1  N1        22.1600   -1.3570  -24.1310 N.ar  317  3NY317     -0.1271
      2  N2        20.8260   -1.8360  -24.0050 N.ar  317  3NY317     -0.0421
      3  N3        20.6990   -2.3180  -22.7250 N.ar  317  3NY317     -0.1270
      4  C4        22.2870   -2.6210  -20.9120 C.ar  317  3NY317      0.0466
      5  C5        23.6020   -2.4230  -20.4580 C.ar  317  3NY317      0.1445
      6  C6        24.5230   -1.7750  -21.2870 C.ar  317  3NY317      0.0258
      7  C7        24.1340   -1.3690  -22.5550 C.ar  317  3NY317      0.0243
      8  O11       25.0880   -2.4190  -18.7300 O.2   317  3NY317     -0.1261
      9  O21       23.2360   -3.3950  -18.3970 O.2   317  3NY317     -0.1261
     10  C3A       21.8820   -2.2070  -22.1640 C.ar  317  3NY317      0.1255
     11  C7A       22.8380   -1.6360  -23.0270 C.ar  317  3NY317      0.1240
     12  NO1       24.0060   -2.7790  -19.1510 N.pl3 317  3NY317      0.0577
@<TRIPOS>BOND
     1     1     2   ar
     2     1    11   ar
     3     2     3   ar
     4    11     7   ar
     5    11    10   ar
     6     3    10   ar
     7     7     6   ar
     8    10     4   ar
     9     6     5   ar
    10     4     5   ar
    11     5    12    1
    12    12     8    2
    13    12     9    2
