@<TRIPOS>MOLECULE
3nye_IAR_A_1.pdb
 12 11 0 0 0
SMALL
GASTEIGER

@<TRIPOS>ATOM
      1  C         -6.6350  -12.9640  -25.6870 C.2   1600  IAR1600     0.4028
      2  N         -5.9760  -10.8010  -24.6880 N.2   1600  IAR1600    -0.1458
      3  O         -7.3880  -13.0040  -26.6770 O.co2 1600  IAR1600    -0.2392
      4  CA        -6.8430  -11.7000  -24.8660 C.2   1600  IAR1600     0.1599
      5  CB        -8.3490  -11.5050  -24.5650 C.3   1600  IAR1600     0.0583
      6  CD        -9.9310  -11.2550  -22.5810 C.3   1600  IAR1600     0.2208
      7  NE       -10.0680  -10.8130  -21.1970 N.pl3 1600  IAR1600    -0.0865
      8  CG        -8.5740  -10.9130  -23.1780 C.3   1600  IAR1600     0.0535
      9  CZ        -9.7480   -9.6650  -20.6360 C.cat 1600  IAR1600     0.5346
     10  NH1      -10.0650   -9.4740  -19.3380 N.pl3 1600  IAR1600     0.1354
     11  NH2       -9.1140   -8.6880  -21.2800 N.pl3 1600  IAR1600     0.1354
     12  OXT       -5.5890  -13.6050  -25.2460 O.co2 1600  IAR1600    -0.2392
@<TRIPOS>BOND
     1     3     1   ar
     2     1    12   ar
     3     1     4    1
     4     4     2    2
     5     4     5    1
     6     5     8    1
     7     8     6    1
     8     6     7    1
     9    11     9    1
    10     7     9    2
    11     9    10    1
