@<TRIPOS>MOLECULE
3nyf_HHI_A_1.pdb
 11 11 0 0 0
SMALL
GASTEIGER

@<TRIPOS>ATOM
      1  C         -6.5650  -12.8190  -25.6450 C.2   1600  HHI1600     0.4032
      2  N         -5.2140  -11.1200  -24.3760 N.2   1600  HHI1600    -0.1454
      3  O         -7.6050  -13.0020  -26.3430 O.co2 1600  HHI1600    -0.2391
      4  CA        -6.3120  -11.3950  -25.0220 C.2   1600  HHI1600     0.1654
      5  CB        -7.2710  -10.2720  -25.2300 C.3   1600  HHI1600     0.0979
      6  CG        -7.0470   -9.0860  -24.2710 C.2   1600  HHI1600     0.0693
      7  ND1       -5.8960   -8.6220  -23.9660 N.2   1600  HHI1600    -0.2306
      8  CD2       -8.0070   -8.4790  -23.5760 C.3   1600  HHI1600     0.1686
      9  CE1       -6.1130   -7.5750  -23.1880 C.2   1600  HHI1600     0.1939
     10  NE2       -7.4170   -7.4750  -22.9350 N.2   1600  HHI1600    -0.2440
     11  OXT       -5.6310  -13.6340  -25.3500 O.co2 1600  HHI1600    -0.2391
@<TRIPOS>BOND
     1     3     1   ar
     2     1    11   ar
     3     1     4    1
     4     5     4    1
     5     5     6    1
     6     4     2    2
     7     6     7    2
     8     6     8    1
     9     7     9    1
    10     8    10    1
    11     9    10    2
