@<TRIPOS>MOLECULE
3nyh_HEM_A_1.pdb
 43 50 0 0 0
SMALL
GASTEIGER

@<TRIPOS>ATOM
      1  CHA        8.5510    0.0400   29.2480 C.2   605  HEM605      0.0000
      2  CHB        8.8440    4.8300   28.9210 C.2   605  HEM605      0.0000
      3  CHC       10.8720    4.3760   24.5290 C.2   605  HEM605      0.0000
      4  CHD       10.5140   -0.4190   24.7860 C.2   605  HEM605      0.0000
      5  C1A        8.5500    1.3850   29.5670 C.2   605  HEM605      0.0000
      6  C2A        8.0370    1.8770   30.8420 C.2   605  HEM605      0.0000
      7  C3A        8.0890    3.1950   30.7840 C.2   605  HEM605      0.0000
      8  C4A        8.6780    3.5440   29.4600 C.2   605  HEM605      0.0000
      9  CMA        7.7210    4.1860   31.8940 C.3   605  HEM605      0.0000
     10  CAA        7.5230    0.9720   31.9660 C.3   605  HEM605      0.0000
     11  CBA        8.6580    0.5560   32.9360 C.3   605  HEM605      0.0000
     12  CGA        8.2340   -0.5090   33.9320 C.2   605  HEM605      0.0000
     13  O1A        8.8210   -1.6070   33.9960 O.co2 605  HEM605      0.0000
     14  O2A        7.2720   -0.2200   34.7500 O.co2 605  HEM605      0.0000
     15  C1B        9.3740    5.1270   27.6770 C.ar  605  HEM605      0.0000
     16  C2B        9.5450    6.4610   27.0920 C.ar  605  HEM605      0.0000
     17  C3B       10.0850    6.3190   25.8720 C.ar  605  HEM605      0.0000
     18  C4B       10.3140    4.9190   25.6750 C.ar  605  HEM605      0.0000
     19  CMB        9.1280    7.7270   27.9090 C.3   605  HEM605      0.0000
     20  CAB       10.5040    7.4220   24.8790 C.3   605  HEM605      0.0000
     21  CBB       10.6120    8.7440   25.2780 C.3   605  HEM605      0.0000
     22  C1C       10.8970    3.0200   24.2240 C.2   605  HEM605      0.0000
     23  C2C       11.5430    2.4910   23.0430 C.2   605  HEM605      0.0000
     24  C3C       11.4600    1.1620   23.0820 C.2   605  HEM605      0.0000
     25  C4C       10.8180    0.8480   24.3260 C.2   605  HEM605      0.0000
     26  CMC       12.1600    3.4260   21.9260 C.3   605  HEM605      0.0000
     27  CAC       11.9160    0.1320   22.0300 C.2   605  HEM605      0.0000
     28  CBC       12.6970    0.3520   20.9570 C.2   605  HEM605      0.0000
     29  C1D        9.8650   -0.6690   25.9920 C.ar  605  HEM605      0.0000
     30  C2D        9.4710   -1.9780   26.3940 C.ar  605  HEM605      0.0000
     31  C3D        8.8040   -1.8730   27.7080 C.ar  605  HEM605      0.0000
     32  C4D        8.9780   -0.4920   28.0440 C.ar  605  HEM605      0.0000
     33  CMD        9.5860   -3.3020   25.5820 C.3   605  HEM605      0.0000
     34  CAD        8.1840   -3.0970   28.4440 C.3   605  HEM605      0.0000
     35  CBD        6.6430   -3.1190   27.9760 C.3   605  HEM605      0.0000
     36  CGD        5.8410   -4.2300   28.7470 C.2   605  HEM605      0.0000
     37  O1D        5.2460   -3.8410   29.8220 O.co2 605  HEM605      0.0000
     38  O2D        5.9000   -5.4750   28.3700 O.co2 605  HEM605      0.0000
     39  NA         8.8740    2.4010   28.7380 N.2   605  HEM605      0.0000
     40  NB         9.8350    4.2170   26.8090 N.ar  605  HEM605      0.0000
     41  NC        10.4820    1.9810   25.0280 N.2   605  HEM605      0.0000
     42  ND         9.5940    0.1840   27.0190 N.ar  605  HEM605      0.0000
     43 FE          9.8640    2.2140   26.9500 Fe    605  HEM605      0.0000
@<TRIPOS>BOND
     1    28    27    2
     2    26    23    1
     3    27    24    1
     4    23    24    2
     5    23    22    1
     6    24    25    1
     7    22     3    2
     8    22    41    1
     9    25     4    1
    10    25    41    2
    11     3    18    1
    12     4    29    2
    13    20    21    1
    14    20    17    1
    15    41    43    1
    16    33    30    1
    17    18    17   ar
    18    18    40   ar
    19    17    16   ar
    20    29    30   ar
    21    29    42   ar
    22    30    31   ar
    23    40    43    1
    24    40    15   ar
    25    43    42    1
    26    43    39    1
    27    42    32   ar
    28    16    15   ar
    29    16    19    1
    30    15     2    1
    31    31    32   ar
    32    31    34    1
    33    35    34    1
    34    35    36    1
    35    32     1    2
    36    38    36   ar
    37    39     8    1
    38    39     5    2
    39    36    37   ar
    40     2     8    2
    41     1     5    1
    42     8     7    1
    43     5     6    1
    44     7     6    2
    45     7     9    1
    46     6    10    1
    47    10    11    1
    48    11    12    1
    49    12    13   ar
    50    12    14   ar
