@<TRIPOS>MOLECULE
3nyi_STE_A_1.pdb
 20 19 0 0 0
SMALL
GASTEIGER

@<TRIPOS>ATOM
      1  C1        34.3630   46.2280   23.9430 C.2   301  STE301      0.3649
      2  O1        34.0860   47.1490   23.2370 O.co2 301  STE301     -0.2457
      3  O2        33.5140   45.4380   24.2360 O.co2 301  STE301     -0.2457
      4  C2        35.8450   45.9410   24.2770 C.3   301  STE301      0.1141
      5  C3        36.4080   44.8330   23.3510 C.3   301  STE301      0.0118
      6  C4        37.8560   44.4770   23.7700 C.3   301  STE301      0.0006
      7  C5        38.5310   43.5620   22.7230 C.3   301  STE301      0.0000
      8  C6        39.9520   43.1790   23.1970 C.3   301  STE301      0.0000
      9  C7        40.6180   42.1790   22.2180 C.3   301  STE301      0.0000
     10  C8        42.0870   41.9630   22.6650 C.3   301  STE301      0.0000
     11  C9        42.8090   40.9530   21.7440 C.3   301  STE301      0.0000
     12  C10       44.2410   40.7110   22.2950 C.3   301  STE301      0.0000
     13  C11       45.1140   41.9120   21.9260 C.3   301  STE301      0.0000
     14  C12       45.9170   42.5320   23.0940 C.3   301  STE301      0.0000
     15  C13       46.2050   41.5790   24.2650 C.3   301  STE301      0.0000
     16  C14       47.7060   41.7580   24.6210 C.3   301  STE301      0.0000
     17  C15       48.0240   41.1670   26.0140 C.3   301  STE301      0.0000
     18  C16       49.5610   41.0340   26.1530 C.3   301  STE301      0.0000
     19  C17       50.1530   42.3570   26.6850 C.3   301  STE301      0.0000
     20  C18       51.6590   42.2000   26.9980 C.3   301  STE301      0.0000
@<TRIPOS>BOND
     1    11    12    1
     2    11    10    1
     3    13    12    1
     4    13    14    1
     5     9    10    1
     6     9     8    1
     7     7     8    1
     8     7     6    1
     9    14    15    1
    10     2     1   ar
    11     5     6    1
    12     5     4    1
    13     1     3   ar
    14     1     4    1
    15    15    16    1
    16    16    17    1
    17    17    18    1
    18    18    19    1
    19    19    20    1
