@<TRIPOS>MOLECULE
3nyn_SGV_A_1.pdb
 22 24 0 0 0
SMALL
GASTEIGER

@<TRIPOS>ATOM
      1  N1       -71.0400   17.4850   19.2790 N.2   577  SGV577     -0.0027
      2  C2       -70.8730   16.1870   19.6080 C.3   577  SGV577      0.5248
      3  N3       -71.7270   15.5070   20.4030 N.2   577  SGV577     -0.0106
      4  C4       -72.8280   16.1000   20.9250 C.2   577  SGV577      0.3217
      5  C5       -73.0750   17.5150   20.6080 C.3   577  SGV577      0.2491
      6  C6       -72.0930   18.1970   19.7300 C.2   577  SGV577      0.4066
      7  N6       -72.2190   19.4890   19.3770 N.pl3 577  SGV577      0.2117
      8  C7       -74.3250   17.7920   21.3380 C.2   577  SGV577      0.0980
      9  C8       -74.7050   16.6360   21.9800 C.2   577  SGV577      0.1789
     10  N9       -73.8140   15.6580   21.7210 N.pl3 577  SGV577     -0.1467
     11  C1'      -73.8830   14.2680   22.2410 C.3   577  SGV577      0.3212
     12  C10      -74.9420   19.1440   21.2910 C.2   577  SGV577      0.2847
     13  N11      -76.2630   19.2410   21.3460 N.am  577  SGV577     -0.0839
     14  O12      -74.2430   20.1360   21.2110 O.2   577  SGV577     -0.2669
     15  C2'      -72.9320   14.1990   23.4170 C.3   577  SGV577      0.2573
     16  O2'      -72.3830   12.8800   23.5330 O.3   577  SGV577     -0.2130
     17  C3'      -73.8230   14.5680   24.5760 C.3   577  SGV577      0.2186
     18  O3'      -73.3520   13.9840   25.7870 O.3   577  SGV577     -0.2174
     19  C4'      -75.1980   14.0400   24.1790 C.3   577  SGV577      0.1851
     20  O4'      -75.1820   13.9410   22.7520 O.3   577  SGV577     -0.3132
     21  C5'      -76.3780   14.8950   24.6580 C.3   577  SGV577      0.2143
     22  O5'      -75.9990   15.7710   25.7400 O.3   577  SGV577     -0.2176
@<TRIPOS>BOND
     1     1     2    1
     2     1     6    2
     3     7     6    1
     4     2     3    1
     5     6     5    1
     6     3     4    2
     7     5     4    1
     8     5     8    1
     9     4    10    1
    10    14    12    2
    11    12     8    1
    12    12    13   am
    13     8     9    2
    14    10     9    1
    15    10    11    1
    16    11    20    1
    17    11    15    1
    18    20    19    1
    19    15    16    1
    20    15    17    1
    21    19    17    1
    22    19    21    1
    23    17    18    1
    24    21    22    1
