@<TRIPOS>MOLECULE
3nyo_AMP_A_1.pdb
 23 25 0 0 0
SMALL
GASTEIGER

@<TRIPOS>ATOM
      1  P        -77.9250   17.2410   24.4110 P.3   577  AMP577      0.5327
      2  O1P      -79.2800   16.7530   24.8680 O.3   577  AMP577     -0.1145
      3  O2P      -77.9840   18.4470   23.5040 O.2   577  AMP577     -0.2224
      4  O3P      -76.8710   17.3280   25.4960 O.3   577  AMP577     -0.1145
      5  O5'      -77.4250   16.0570   23.4470 O.3   577  AMP577     -0.2675
      6  C5'      -77.4300   14.7190   23.9250 C.3   577  AMP577      0.1860
      7  C4'      -76.0280   14.1240   23.8850 C.3   577  AMP577      0.1823
      8  O4'      -75.5610   14.0400   22.5390 O.3   577  AMP577     -0.3135
      9  C3'      -74.9840   14.9310   24.6400 C.3   577  AMP577      0.2184
     10  O3'      -74.8900   14.5270   26.0070 O.3   577  AMP577     -0.2174
     11  C2'      -73.7110   14.6530   23.8690 C.3   577  AMP577      0.2570
     12  O2'      -73.0670   13.4610   24.3240 O.3   577  AMP577     -0.2130
     13  C1'      -74.1860   14.4080   22.4530 C.3   577  AMP577      0.3186
     14  N9       -74.0170   15.6870   21.7180 N.pl3 577  AMP577     -0.1439
     15  C8       -74.8430   16.7540   21.7350 C.3   577  AMP577      0.3377
     16  N7       -74.3680   17.7590   20.9600 N.2   577  AMP577     -0.2095
     17  C5       -73.2090   17.3360   20.4280 C.2   577  AMP577      0.2526
     18  C6       -72.1770   17.8900   19.5160 C.2   577  AMP577      0.4393
     19  N6       -72.3020   19.1330   19.0010 N.pl3 577  AMP577      0.2180
     20  N1       -71.1040   17.1230   19.2110 N.2   577  AMP577      0.0021
     21  C2       -70.9690   15.8810   19.7130 C.3   577  AMP577      0.5254
     22  N3       -71.8630   15.3120   20.5490 N.2   577  AMP577     -0.0055
     23  C4       -72.9810   15.9760   20.9360 C.2   577  AMP577      0.3518
@<TRIPOS>BOND
     1    19    18    1
     2    20    18    2
     3    20    21    1
     4    18    17    1
     5    21    22    1
     6    17    23    1
     7    17    16    2
     8    22    23    2
     9    23    14    1
    10    16    15    1
    11    14    15    1
    12    14    13    1
    13    13     8    1
    14    13    11    1
    15     8     7    1
    16     5     6    1
    17     5     1    1
    18     3     1    2
    19    11    12    1
    20    11     9    1
    21     7     6    1
    22     7     9    1
    23     1     2    1
    24     1     4    1
    25     9    10    1
