@<TRIPOS>MOLECULE
3nyq_AMP_A_1.pdb
 23 25 0 0 0
SMALL
GASTEIGER

@<TRIPOS>ATOM
      1  P         24.4500    1.9590   59.4220 P.3   487  AMP487      0.5327
      2  O1P       23.2090    2.8020   59.1660 O.3   487  AMP487     -0.1145
      3  O2P       24.8890    1.1540   58.2940 O.2   487  AMP487     -0.2224
      4  O3P       25.6440    2.7570   59.9310 O.3   487  AMP487     -0.1145
      5  O5'       23.9350    1.0740   60.6800 O.3   487  AMP487     -0.2675
      6  C5'       24.8260    0.0840   61.2270 C.3   487  AMP487      0.1860
      7  C4'       24.7160    0.1650   62.7460 C.3   487  AMP487      0.1823
      8  O4'       23.3680   -0.0970   63.1360 O.3   487  AMP487     -0.3135
      9  C3'       25.5240   -0.8670   63.5100 C.3   487  AMP487      0.2184
     10  O3'       26.8830   -0.4320   63.6700 O.3   487  AMP487     -0.2174
     11  C2'       24.7890   -0.9770   64.8440 C.3   487  AMP487      0.2570
     12  O2'       25.1730    0.0680   65.7710 O.3   487  AMP487     -0.2130
     13  C1'       23.3470   -0.7280   64.4280 C.3   487  AMP487      0.3186
     14  N9        22.5360   -1.9580   64.2800 N.pl3 487  AMP487     -0.1439
     15  C8        22.1740   -2.5610   63.1400 C.3   487  AMP487      0.3377
     16  N7        21.3150   -3.5910   63.3860 N.2   487  AMP487     -0.2095
     17  C5        21.2120   -3.6810   64.7390 C.2   487  AMP487      0.2526
     18  C6        20.4590   -4.5040   65.6950 C.2   487  AMP487      0.4393
     19  N6        19.6270   -5.4720   65.2360 N.pl3 487  AMP487      0.2180
     20  N1        20.6690   -4.2430   67.0160 N.2   487  AMP487      0.0021
     21  C2        21.4550   -3.2360   67.4490 C.3   487  AMP487      0.5254
     22  N3        22.1200   -2.3890   66.6380 N.2   487  AMP487     -0.0055
     23  C4        22.0270   -2.6000   65.3030 C.2   487  AMP487      0.3518
@<TRIPOS>BOND
     1     3     1    2
     2     2     1    1
     3     1     4    1
     4     1     5    1
     5     5     6    1
     6     6     7    1
     7     7     8    1
     8     7     9    1
     9     8    13    1
    10    15    16    1
    11    15    14    1
    12    16    17    2
    13     9    10    1
    14     9    11    1
    15    14    13    1
    16    14    23    1
    17    13    11    1
    18    17    23    1
    19    17    18    1
    20    11    12    1
    21    19    18    1
    22    23    22    2
    23    18    20    2
    24    22    21    1
    25    20    21    1
