@<TRIPOS>MOLECULE
3nyq_MCA_A_1.pdb
 29 28 0 0 0
SMALL
GASTEIGER

@<TRIPOS>ATOM
      1  O6        10.7200   10.4200   61.7420 O.3   486  MCA486     -0.1145
      2  P2         9.4280    9.7280   61.0760 P.3   486  MCA486      0.5326
      3  O21        8.9090   10.6420   59.9920 O.2   486  MCA486     -0.2224
      4  O22        8.5090    9.2770   62.1860 O.3   486  MCA486     -0.1145
      5  O7        10.0510    8.4190   60.3760 O.3   486  MCA486     -0.2702
      6  CPB        9.9330    7.1400   60.9960 C.3   486  MCA486      0.1565
      7  CPA       10.4450    6.0650   60.0450 C.3   486  MCA486      0.0647
      8  CP7       11.7690    6.5120   59.4370 C.3   486  MCA486      0.2312
      9  CP9       10.6520    4.7650   60.8130 C.3   486  MCA486      0.0056
     10  CP8        9.4260    5.8420   58.9340 C.3   486  MCA486      0.0056
     11  OP3       12.7040    6.7930   60.4850 O.3   486  MCA486     -0.2131
     12  CP6       12.3110    5.4210   58.5620 C.2   486  MCA486      0.2719
     13  OP2       11.8350    5.2200   57.4570 O.2   486  MCA486     -0.2706
     14  NP2       13.3180    4.7080   59.0580 N.am  486  MCA486     -0.2028
     15  CP5       14.0760    3.7900   58.2300 C.3   486  MCA486      0.1248
     16  CP4       15.5740    4.0610   58.3020 C.3   486  MCA486      0.1102
     17  CP3       16.3190    2.9660   57.5780 C.2   486  MCA486      0.2432
     18  OP1       15.8520    2.4600   56.5710 O.2   486  MCA486     -0.2733
     19  NP1       17.4880    2.5990   58.0970 N.am  486  MCA486     -0.2044
     20  CP2       18.4790    1.8920   57.3100 C.3   486  MCA486      0.1272
     21  CP1       19.8950    2.3600   57.6210 C.3   486  MCA486      0.0883
     22  S         20.7130    1.1460   58.6020 S.3   486  MCA486     -0.0748
     23  CS1       21.2980   -0.0620   57.6170 C.2   486  MCA486      0.2092
     24  OS1       21.1150   -0.0050   56.4120 O.2   486  MCA486     -0.2839
     25  CS2       22.0470   -1.2160   58.2160 C.3   486  MCA486      0.1710
     26  CS3       22.9890   -1.8060   57.1730 C.3   486  MCA486      0.0207
     27  CS4       21.1030   -2.2790   58.6950 C.2   486  MCA486      0.3722
     28  OS4       19.9050   -2.2160   58.3420 O.co2 486  MCA486     -0.2452
     29  OS5       21.5500   -3.1870   59.4280 O.co2 486  MCA486     -0.2452
@<TRIPOS>BOND
     1    24    23    2
     2    18    17    2
     3    26    25    1
     4    20    21    1
     5    20    19    1
     6    13    12    2
     7    17    19   am
     8    17    16    1
     9    23    25    1
    10    23    22    1
    11    21    22    1
    12    25    27    1
    13    15    16    1
    14    15    14    1
    15    28    27   ar
    16    12    14   am
    17    12     8    1
    18    27    29   ar
    19    10     7    1
    20     8     7    1
    21     8    11    1
    22     3     2    2
    23     7     9    1
    24     7     6    1
    25     5     6    1
    26     5     2    1
    27     2     1    1
    28     2     4    1
