@<TRIPOS>MOLECULE
3nyr_AMP_A_1.pdb
 23 25 0 0 0
SMALL
GASTEIGER

@<TRIPOS>ATOM
      1  P         24.3940    2.0240   59.3800 P.3   487  AMP487      0.5327
      2  O1P       23.1480    2.8250   59.0400 O.3   487  AMP487     -0.1145
      3  O2P       24.8940    1.2720   58.2390 O.2   487  AMP487     -0.2224
      4  O3P       25.5610    2.8680   59.8710 O.3   487  AMP487     -0.1145
      5  O5'       23.9010    1.1470   60.6580 O.3   487  AMP487     -0.2675
      6  C5'       24.7970    0.1510   61.1910 C.3   487  AMP487      0.1860
      7  C4'       24.7280    0.2240   62.7130 C.3   487  AMP487      0.1823
      8  O4'       23.3690   -0.0520   63.0560 O.3   487  AMP487     -0.3135
      9  C3'       25.5280   -0.8440   63.4350 C.3   487  AMP487      0.2184
     10  O3'       26.8940   -0.4220   63.5880 O.3   487  AMP487     -0.2174
     11  C2'       24.7690   -0.9530   64.7550 C.3   487  AMP487      0.2570
     12  O2'       25.1710    0.0890   65.6680 O.3   487  AMP487     -0.2130
     13  C1'       23.3230   -0.6890   64.3340 C.3   487  AMP487      0.3186
     14  N9        22.5140   -1.9230   64.1860 N.pl3 487  AMP487     -0.1439
     15  C8        22.1440   -2.5240   63.0450 C.3   487  AMP487      0.3377
     16  N7        21.3400   -3.5940   63.2790 N.2   487  AMP487     -0.2095
     17  C5        21.2180   -3.6800   64.6350 C.2   487  AMP487      0.2526
     18  C6        20.4640   -4.4980   65.6170 C.2   487  AMP487      0.4393
     19  N6        19.5750   -5.4390   65.1900 N.pl3 487  AMP487      0.2180
     20  N1        20.6810   -4.2280   66.9330 N.2   487  AMP487      0.0021
     21  C2        21.4250   -3.1980   67.3570 C.3   487  AMP487      0.5254
     22  N3        22.0850   -2.3490   66.5500 N.2   487  AMP487     -0.0055
     23  C4        21.9980   -2.5690   65.2130 C.2   487  AMP487      0.3518
@<TRIPOS>BOND
     1     3     1    2
     2     2     1    1
     3     1     4    1
     4     1     5    1
     5     5     6    1
     6     6     7    1
     7     7     8    1
     8     7     9    1
     9    15    16    1
    10    15    14    1
    11     8    13    1
    12    16    17    2
    13     9    10    1
    14     9    11    1
    15    14    13    1
    16    14    23    1
    17    13    11    1
    18    17    23    1
    19    17    18    1
    20    11    12    1
    21    19    18    1
    22    23    22    2
    23    18    20    2
    24    22    21    1
    25    20    21    1
