@<TRIPOS>MOLECULE
3nyr_MLC_A_1.pdb
 28 27 0 0 0
SMALL
GASTEIGER

@<TRIPOS>ATOM
      1  O6         8.6930   10.5820   59.8120 O.2   486  MLC486     -0.2224
      2  P2         9.3920    9.7370   60.9910 P.3   486  MLC486      0.5326
      3  O21       10.6010   10.5040   61.4700 O.3   486  MLC486     -0.1145
      4  O22        8.3230    9.3250   61.9750 O.3   486  MLC486     -0.1145
      5  O7         9.9040    8.4180   60.2220 O.3   486  MLC486     -0.2702
      6  CPB        9.8770    7.1470   60.8680 C.3   486  MLC486      0.1565
      7  CPA       10.3850    6.0780   59.9090 C.3   486  MLC486      0.0647
      8  CP7       11.7110    6.5260   59.3060 C.3   486  MLC486      0.2312
      9  CP9        9.3660    5.8680   58.7950 C.3   486  MLC486      0.0056
     10  CP8       10.5870    4.7700   60.6650 C.3   486  MLC486      0.0056
     11  OP3       12.6410    6.8120   60.3570 O.3   486  MLC486     -0.2131
     12  CP6       12.2600    5.4330   58.4370 C.2   486  MLC486      0.2719
     13  OP2       11.7950    5.2320   57.3270 O.2   486  MLC486     -0.2706
     14  NP2       13.2600    4.7170   58.9440 N.am  486  MLC486     -0.2028
     15  CP5       14.0210    3.7940   58.1250 C.3   486  MLC486      0.1248
     16  CP4       15.5130    4.1070   58.1470 C.3   486  MLC486      0.1102
     17  CP3       16.2720    2.9910   57.4700 C.2   486  MLC486      0.2432
     18  OP1       15.8230    2.4550   56.4700 O.2   486  MLC486     -0.2733
     19  NP1       17.4300    2.6420   58.0210 N.am  486  MLC486     -0.2044
     20  CP2       18.4240    1.8870   57.2830 C.3   486  MLC486      0.1272
     21  CP1       19.8290    2.4420   57.4850 C.3   486  MLC486      0.0883
     22  S         20.7350    1.3740   58.5530 S.3   486  MLC486     -0.0748
     23  CM1       21.3320    0.0900   57.6780 C.2   486  MLC486      0.2102
     24  CM2       22.0750   -1.0190   58.3830 C.3   486  MLC486      0.1895
     25  CM3       21.1590   -2.2070   58.5590 C.2   486  MLC486      0.3732
     26  OM2       21.1660    0.0490   56.4700 O.2   486  MLC486     -0.2839
     27  OM3       19.9850   -2.1210   58.1400 O.co2 486  MLC486     -0.2451
     28  OM4       21.6100   -3.2300   59.1180 O.co2 486  MLC486     -0.2451
@<TRIPOS>BOND
     1    18    17    2
     2    26    23    2
     3    20    21    1
     4    20    19    1
     5    13    12    2
     6    17    19   am
     7    17    16    1
     8    21    22    1
     9    23    24    1
    10    23    22    1
    11    15    16    1
    12    15    14    1
    13    27    25   ar
    14    24    25    1
    15    12    14   am
    16    12     8    1
    17    25    28   ar
    18     9     7    1
    19     8     7    1
    20     8    11    1
    21     1     2    2
    22     7    10    1
    23     7     6    1
    24     5     6    1
    25     5     2    1
    26     2     3    1
    27     2     4    1
