@<TRIPOS>MOLECULE
3nyv_DTQ_A_1.pdb
 22 24 0 0 0
SMALL
GASTEIGER

@<TRIPOS>ATOM
      1  N1        14.2990   12.6910   63.3070 N.2   701  DTQ701     -0.0327
      2  C2        15.1200   11.6630   63.0630 C.3   701  DTQ701      0.3917
      3  N3        16.4120   11.8100   62.7550 N.2   701  DTQ701     -0.2223
      4  C4        16.9110   13.0690   62.6640 C.2   701  DTQ701      0.0732
      5  C5        16.0730   14.1890   62.9020 C.2   701  DTQ701      0.1027
      6  C6        14.7360   13.9660   63.2300 C.2   701  DTQ701      0.3643
      7  C7        18.2630   13.2630   62.3360 C.3   701  DTQ701      0.1127
      8  C8        18.7620   14.5740   62.2380 C.2   701  DTQ701      0.1558
      9  C9        17.9470   15.6680   62.4690 C.2   701  DTQ701      0.1689
     10  C10       16.6000   15.5010   62.8110 C.2   701  DTQ701      0.0484
     11  N12       13.9060   14.9700   63.4700 N.pl3 701  DTQ701     -0.0059
     12  C14       12.7930   14.8290   64.2110 C.ar  701  DTQ701      0.1866
     13  C15       11.6000   15.4150   63.8120 C.ar  701  DTQ701      0.0864
     14  C16       10.4300   15.2630   64.5620 C.ar  701  DTQ701      0.1993
     15  C17       10.4440   14.5000   65.7380 C.ar  701  DTQ701      0.0423
     16  C18       11.6460   13.9090   66.1650 C.ar  701  DTQ701      0.0069
     17  C19       12.8020   14.0870   65.3960 C.ar  701  DTQ701      0.0446
     18  O21        9.2530   15.8590   64.1410 O.3   701  DTQ701     -0.2864
     19  O26       20.0690   14.8530   61.9410 O.2   701  DTQ701     -0.4723
     20  C27       20.9720   13.7310   62.0680 C.3   701  DTQ701      0.2521
     21  O31       18.5450   16.9090   62.3630 O.2   701  DTQ701     -0.4687
     22  C32       17.6930   18.0360   62.4530 C.3   701  DTQ701      0.2526
@<TRIPOS>BOND
     1    19    20    1
     2    19     8    1
     3     8     7    1
     4     8     9    2
     5     7     4    1
     6    21    22    1
     7    21     9    1
     8     9    10    1
     9     4     3    2
    10     4     5    1
    11     3     2    1
    12    10     5    2
    13     5     6    1
    14     2     1    1
    15     6     1    2
    16     6    11    1
    17    11    12    1
    18    13    12   ar
    19    13    14   ar
    20    18    14    1
    21    12    17   ar
    22    14    15   ar
    23    17    16   ar
    24    15    16   ar
