@<TRIPOS>MOLECULE
3nyx_TZ1_A_1.pdb
 25 28 0 0 0
SMALL
GASTEIGER

@<TRIPOS>ATOM
      1  C1         6.7130   15.5810   22.2950 C.ar    1  TZ11        0.0305
      2  N1         8.4000   14.1770   21.4400 N.ar    1  TZ11       -0.2438
      3  O1         7.2520    4.8380   22.4700 O.2     1  TZ11       -0.2674
      4  S1         5.8220   10.5790   21.9590 S.3     1  TZ11       -0.0596
      5 CL1         4.8480   17.3300   23.2130 Cl      1  TZ11       -0.0822
      6  C2         7.1620   14.3140   21.9550 C.ar    1  TZ11        0.0826
      7  N2         7.4660    7.8470   19.5990 N.ar    1  TZ11       -0.1230
      8  S2         6.7320    7.6540   22.0800 S.2     1  TZ11       -0.0222
      9  C3         6.3300   13.2010   22.1230 C.ar    1  TZ11        0.0238
     10  N3         6.9340    9.1140   19.9450 N.ar    1  TZ11       -0.1328
     11  S3         8.1610    2.1420   21.9830 S.2     1  TZ11       -0.0818
     12  C4         5.0410   13.3360   22.6410 C.ar    1  TZ11        0.0029
     13  N4         7.8840    5.7220   20.5000 N.am    1  TZ11       -0.1486
     14  C5         4.5820   14.6020   22.9850 C.ar    1  TZ11        0.0115
     15  C6         5.4230   15.7060   22.7930 C.ar    1  TZ11        0.0592
     16  C7         8.8840   12.9750   21.0920 C.ar    1  TZ11        0.0993
     17  C8         8.0970   11.8330   21.2380 C.ar    1  TZ11        0.0272
     18  C9         6.8070   11.9430   21.7620 C.ar    1  TZ11        0.0344
     19  C10        6.5210    9.1490   21.2410 C.ar    1  TZ11        0.1647
     20  C11        7.4070    6.9840   20.6430 C.ar    1  TZ11        0.2087
     21  C12        7.7950    4.7380   21.3870 C.2     1  TZ11        0.2768
     22  C13        8.3910    3.4650   21.0150 C.ar    1  TZ11        0.0849
     23  C14        9.0990    3.2510   19.9720 C.ar    1  TZ11        0.0116
     24  C15        9.4230    2.0040   19.9040 C.ar    1  TZ11        0.0076
     25  C16        9.0810    1.2200   20.9480 C.ar    1  TZ11        0.0356
@<TRIPOS>BOND
     1     7    10   ar
     2     7    20   ar
     3    24    23   ar
     4    24    25   ar
     5    10    19   ar
     6    23    22   ar
     7    13    20    1
     8    13    21   am
     9    20     8   ar
    10    25    11   ar
    11    22    21    1
    12    22    11   ar
    13    16    17   ar
    14    16     2   ar
    15    17    18   ar
    16    19     4    1
    17    19     8   ar
    18    21     3    2
    19     2     6   ar
    20    18     4    1
    21    18     9   ar
    22     6     9   ar
    23     6     1   ar
    24     9    12   ar
    25     1    15   ar
    26    12    14   ar
    27    15    14   ar
    28    15     5    1
