@<TRIPOS>MOLECULE
3nz0_IZA_A_1.pdb
 23 26 0 0 0
SMALL
GASTEIGER

@<TRIPOS>ATOM
      1  O0        -0.7280    1.2320   -9.2240 O.2     1  IZA1       -0.2219
      2  C11       -0.3030    1.1940   -8.0420 C.1     1  IZA1        0.1545
      3  N2         0.3210    2.2680   -7.5090 N.2     1  IZA1       -0.1747
      4  C12        0.7820    2.2750   -6.2470 C.2     1  IZA1        0.1112
      5  C13        0.6390    1.1530   -5.4200 C.2     1  IZA1        0.0249
      6  C9         0.0060   -0.0010   -5.8930 C.ar    1  IZA1        0.0456
      7  C1        -0.1540   -1.1340   -5.0950 C.ar    1  IZA1        0.1744
      8  C10       -0.4770   -0.0250   -7.2030 C.ar    1  IZA1        0.0859
      9  C8        -1.1500   -1.2590   -7.7130 C.ar    1  IZA1        0.0158
     10  C7        -1.7070   -1.4210   -9.0690 C.ar    1  IZA1        0.0304
     11  C6        -2.2870   -2.5960   -9.3790 C.ar    1  IZA1        0.1402
     12  F1        -2.7730   -2.7400  -10.5870 F       1  IZA1       -0.2042
     13  C5        -2.3680   -3.5540   -8.5450 C.ar    1  IZA1        0.0297
     14  C4        -1.8760   -3.4960   -7.2390 C.ar    1  IZA1        0.0050
     15  C3        -1.2910   -2.4280   -6.8020 C.ar    1  IZA1        0.0339
     16  C0        -0.7830   -2.2870   -5.5180 C.ar    1  IZA1        0.1737
     17  N1        -0.7320   -3.2260   -4.4770 N.2     1  IZA1       -0.3411
     18  C2        -0.0890   -2.5980   -3.4830 C.1     1  IZA1        0.1113
     19  N0         0.2380   -1.3510   -3.8190 N.2     1  IZA1       -0.3411
     20  C14        0.2610   -3.2250   -2.1440 C.3     1  IZA1        0.0954
     21  C17       -0.2520   -4.6620   -2.1150 C.3     1  IZA1        0.0170
     22  C16       -0.3190   -2.4150   -0.9880 C.3     1  IZA1        0.0170
     23  C15        1.7810   -3.2330   -2.0330 C.3     1  IZA1        0.0170
@<TRIPOS>BOND
     1    12    11    1
     2    11    10   ar
     3    11    13   ar
     4     1     2    2
     5    10     9   ar
     6    13    14   ar
     7     2     3    2
     8     2     8    1
     9     9     8   ar
    10     9    15   ar
    11     3     4    1
    12    14    15   ar
    13     8     6   ar
    14    15    16   ar
    15     4     5    2
    16     6     5    1
    17     6     7   ar
    18    16     7   ar
    19    16    17    2
    20     7    19    2
    21    17    18    2
    22    19    18    2
    23    18    20    1
    24    20    21    1
    25    20    23    1
    26    20    22    1
