@<TRIPOS>MOLECULE
3nz1_3NY_A_1.pdb
 12 13 0 0 0
SMALL
GASTEIGER

@<TRIPOS>ATOM
      1  N1        26.6900   -8.3290    6.1680 N.ar  262  3NY262     -0.1271
      2  N2        27.5920   -7.9430    5.2470 N.ar  262  3NY262     -0.0421
      3  N3        28.7410   -7.4790    5.9800 N.ar  262  3NY262     -0.1270
      4  C4        29.2360   -7.3640    8.4680 C.ar  262  3NY262      0.0466
      5  C5        28.6600   -7.6760    9.7140 C.ar  262  3NY262      0.1445
      6  C6        27.3640   -8.1890    9.8110 C.ar  262  3NY262      0.0258
      7  C7        26.6400   -8.4710    8.6400 C.ar  262  3NY262      0.0243
      8  O11       29.1140   -7.8600   11.9810 O.2   262  3NY262     -0.1261
      9  O21       30.3910   -6.6460   10.7650 O.2   262  3NY262     -0.1261
     10  C3A       28.4800   -7.6240    7.2930 C.ar  262  3NY262      0.1255
     11  C7A       27.1910   -8.1570    7.3980 C.ar  262  3NY262      0.1240
     12  NO1       29.4150   -7.3860   10.8650 N.pl3 262  3NY262      0.0577
@<TRIPOS>BOND
     1     2     3   ar
     2     2     1   ar
     3     3    10   ar
     4     1    11   ar
     5    10    11   ar
     6    10     4   ar
     7    11     7   ar
     8     4     5   ar
     9     7     6   ar
    10     5     6   ar
    11     5    12    1
    12     9    12    2
    13    12     8    2
