@<TRIPOS>MOLECULE
3nz4_TCA_A_1.pdb
 11 11 0 0 0
SMALL
GASTEIGER

@<TRIPOS>ATOM
      1  C1       -58.9380   32.0290   59.2140 C.2   699  TCA699      0.3652
      2  O        -58.8350   30.9100   59.7570 O.co2 699  TCA699     -0.2456
      3  OXT      -59.5930   32.2490   58.1580 O.co2 699  TCA699     -0.2456
      4  C2       -58.2230   33.0980   59.9090 C.3   699  TCA699      0.1187
      5  C3       -57.9440   34.2910   59.4010 C.3   699  TCA699      0.0382
      6  C31      -57.2050   35.1600   60.3400 C.ar  699  TCA699     -0.0216
      7  C32      -57.4280   36.5220   60.3730 C.ar  699  TCA699     -0.0043
      8  C33      -56.7190   37.2920   61.2810 C.ar  699  TCA699     -0.0003
      9  C34      -55.8050   36.7180   62.1510 C.ar  699  TCA699     -0.0000
     10  C35      -55.5870   35.3470   62.1260 C.ar  699  TCA699     -0.0003
     11  C36      -56.2930   34.5650   61.2170 C.ar  699  TCA699     -0.0043
@<TRIPOS>BOND
     1     3     1   ar
     2     1     2   ar
     3     1     4    1
     4     5     4    1
     5     5     6    1
     6     6     7   ar
     7     6    11   ar
     8     7     8   ar
     9    11    10   ar
    10     8     9   ar
    11    10     9   ar
