@<TRIPOS>MOLECULE
3nz6_D2J_X_1.pdb
 31 33 0 0 0
SMALL
GASTEIGER

@<TRIPOS>ATOM
      1  N1        10.3300   -1.7720   13.2680 N.2   207  D2J207     -0.3061
      2  C2        10.6760   -2.6070   12.2590 C.1   207  D2J207      0.2517
      3  N3        11.6930   -2.3110   11.4510 N.2   207  D2J207     -0.2706
      4  C4        12.3630   -1.1780   11.5950 C.1   207  D2J207      0.1046
      5  C5        11.9910   -0.2640   12.6090 C.2   207  D2J207      0.1185
      6  C6        10.9230   -0.6160   13.4790 C.2   207  D2J207      0.2427
      7  CAA       17.6170    1.4880   14.4940 C.3   207  D2J207      0.2525
      8  CAB       12.4570    2.0240   13.7410 C.3   207  D2J207      0.0316
      9  NAC       10.0270   -3.7640   12.0790 N.pl3 207  D2J207     -0.0226
     10  NAD       10.4860    0.1350   14.4910 N.pl3 207  D2J207     -0.0914
     11  OAE       11.0720    4.6960    6.9630 O.co2 207  D2J207     -0.2457
     12  OAF       11.7880    6.2390    5.5520 O.co2 207  D2J207     -0.2457
     13  CAG       18.4760    2.1330   10.4810 C.ar  207  D2J207      0.0400
     14  CAH       18.2170    1.9890   11.8340 C.ar  207  D2J207      0.0397
     15  CAI       14.0490    0.2100   10.8420 C.2   207  D2J207      0.1063
     16  CAJ       16.1390    2.5520   10.0300 C.ar  207  D2J207      0.0360
     17  CAK       14.9760    4.5960    6.7980 C.3   207  D2J207      0.0044
     18  CAL       15.8130    3.3210    6.9090 C.3   207  D2J207      0.0474
     19  CAM       14.2880    4.6040    5.4520 C.3   207  D2J207      0.0119
     20  CAN       17.1060    3.6680    7.6350 C.3   207  D2J207      0.2054
     21  CAO       12.8750    4.0470    5.6240 C.3   207  D2J207      0.1141
     22  CAP       14.5120    2.5360   11.9170 C.3   207  D2J207      0.0571
     23  NAQ       13.3830   -0.9390   10.7570 N.2   207  D2J207     -0.1818
     24  OAT       16.5440    1.9940   13.6230 O.3   207  D2J207     -0.4717
     25  OAU       17.7910    2.5380    8.2640 O.3   207  D2J207     -0.4755
     26  CAV       11.8370    5.1060    6.1090 C.2   207  D2J207      0.3649
     27  CAY       12.7140    0.9410   12.7050 C.2   207  D2J207     -0.0097
     28  CAZ       17.4630    2.4180    9.5840 C.ar  207  D2J207      0.1384
     29  CBA       13.7460    1.1900   11.8170 C.2   207  D2J207     -0.0009
     30  CBB       15.9000    2.4080   11.3940 C.ar  207  D2J207      0.0192
     31  CBC       16.9100    2.1300   12.2830 C.ar  207  D2J207      0.1352
@<TRIPOS>BOND
     1    19    21    1
     2    19    17    1
     3    12    26   ar
     4    21    26    1
     5    26    11   ar
     6    17    18    1
     7    18    20    1
     8    20    25    1
     9    25    28    1
    10    28    16   ar
    11    28    13   ar
    12    16    30   ar
    13    13    14   ar
    14    23    15    1
    15    23     4    2
    16    15    29    2
    17    30    22    1
    18    30    31   ar
    19     3     4    2
    20     3     2    2
    21     4     5    1
    22    29    22    1
    23    29    27    1
    24    14    31   ar
    25     9     2    1
    26     2     1    2
    27    31    24    1
    28     5    27    2
    29     5     6    1
    30    27     8    1
    31     1     6    2
    32     6    10    1
    33    24     7    1
