@<TRIPOS>MOLECULE
3nz6_NDP_X_1.pdb
 48 52 0 0 0
SMALL
GASTEIGER

@<TRIPOS>ATOM
      1  PA        15.7430    4.4370   22.9760 P.3   208  NDP208      0.2189
      2  O1A       15.6900    4.5470   21.4830 O.2   208  NDP208     -0.5170
      3  O2A       14.4930    4.1120   23.7700 O.3   208  NDP208     -0.4371
      4  O5B       16.2780    5.8530   23.4790 O.3   208  NDP208     -0.3112
      5  C5B       16.6000    5.9050   24.9070 C.3   208  NDP208      0.1813
      6  C4B       16.4530    7.3160   25.2900 C.3   208  NDP208      0.1820
      7  O4B       15.1630    7.8200   24.7350 O.3   208  NDP208     -0.3136
      8  C3B       16.4290    7.6970   26.7910 C.3   208  NDP208      0.2157
      9  O3B       17.7670    7.6320   27.3000 O.3   208  NDP208     -0.2175
     10  C2B       16.0640    9.0690   26.2840 C.3   208  NDP208      0.2314
     11  O2B       16.0760   10.1420   27.1530 O.3   208  NDP208     -0.2630
     12  C1B       14.6710    8.7440   25.6990 C.3   208  NDP208      0.3158
     13  N9A       13.5280    7.9870   26.3970 N.pl3 208  NDP208     -0.1439
     14  C8A       13.1260    6.7320   26.0760 C.3   208  NDP208      0.3377
     15  N7A       12.0720    6.3900   26.8200 N.2   208  NDP208     -0.2095
     16  C5A       11.7570    7.4120   27.6000 C.2   208  NDP208      0.2526
     17  C6A       10.7610    7.6240   28.5670 C.2   208  NDP208      0.4393
     18  N6A        9.8350    6.6810   28.9060 N.pl3 208  NDP208      0.2180
     19  N1A       10.7330    8.8180   29.1750 N.2   208  NDP208      0.0021
     20  C2A       11.6150    9.7760   28.9000 C.3   208  NDP208      0.5254
     21  N3A       12.5630    9.6110   27.9850 N.2   208  NDP208     -0.0055
     22  C4A       12.6820    8.4290   27.3320 C.2   208  NDP208      0.3518
     23  O3        17.0360    3.6290   23.4660 O.3   208  NDP208     -0.2703
     24  PN        17.3550    2.0980   23.7960 P.3   208  NDP208      0.2189
     25  O1N       16.5490    1.7110   24.9920 O.3   208  NDP208     -0.4371
     26  O2N       18.8350    2.1520   23.9320 O.2   208  NDP208     -0.5170
     27  O5D       17.0430    1.3030   22.4750 O.3   208  NDP208     -0.3112
     28  C5D       17.8050    1.6990   21.3090 C.3   208  NDP208      0.1813
     29  C4D       18.2200    0.4150   20.5600 C.3   208  NDP208      0.1799
     30  O4D       16.9550   -0.2380   20.0370 O.3   208  NDP208     -0.3327
     31  C3D       19.1620    0.7120   19.3450 C.3   208  NDP208      0.2158
     32  O3D       20.0680   -0.3880   19.1320 O.3   208  NDP208     -0.2175
     33  C2D       18.2100    0.7090   18.1680 C.3   208  NDP208      0.2309
     34  O2D       18.9300    0.3500   16.9520 O.3   208  NDP208     -0.2158
     35  C1D       17.1770   -0.3790   18.6120 C.3   208  NDP208      0.2263
     36  N1N       15.9120   -0.2900   17.8230 N.pl3 208  NDP208     -0.2787
     37  C2N       15.4340   -1.5080   17.2930 C.3   208  NDP208      0.1244
     38  C3N       14.2940   -1.5330   16.5110 C.2   208  NDP208      0.0544
     39  C7N       13.7890   -2.8380   15.9200 C.2   208  NDP208      0.2818
     40  O7N       12.6250   -2.8980   15.5240 O.2   208  NDP208     -0.2670
     41  N7N       14.7040   -3.8360   15.8450 N.am  208  NDP208     -0.0839
     42  C4N       13.6190   -0.3410   16.3020 C.2   208  NDP208      0.0033
     43  C5N       14.0950    0.8410   16.8490 C.2   208  NDP208      0.0157
     44  C6N       15.2380    0.8970   17.6400 C.2   208  NDP208      0.0633
     45  P2B       17.3960   11.0990   27.2800 P.3   208  NDP208      0.5328
     46  O1X       17.3800   12.3000   26.2720 O.2   208  NDP208     -0.2224
     47  O2X       18.6350   10.1810   26.8080 O.3   208  NDP208     -0.1145
     48  O3X       17.4320   11.4510   28.7290 O.3   208  NDP208     -0.1145
@<TRIPOS>BOND
     1    40    39    2
     2    41    39   am
     3    39    38    1
     4    42    38    2
     5    42    43    1
     6    38    37    1
     7    43    44    2
     8    34    33    1
     9    37    36    1
    10    44    36    1
    11    36    35    1
    12    33    35    1
    13    33    31    1
    14    35    30    1
    15    32    31    1
    16    31    29    1
    17    30    29    1
    18    29    28    1
    19    28    27    1
    20     2     1    2
    21    27    24    1
    22     1    23    1
    23     1     4    1
    24     1     3    1
    25    23    24    1
    26     4     5    1
    27    24    26    2
    28    24    25    1
    29     7     6    1
    30     7    12    1
    31     5     6    1
    32     6     8    1
    33    12    10    1
    34    12    13    1
    35    14    13    1
    36    14    15    1
    37    46    45    2
    38    10     8    1
    39    10    11    1
    40    13    22    1
    41     8     9    1
    42    47    45    1
    43    15    16    2
    44    11    45    1
    45    45    48    1
    46    22    16    1
    47    22    21    2
    48    16    17    1
    49    21    20    1
    50    17    18    1
    51    17    19    2
    52    20    19    1
