@<TRIPOS>MOLECULE
3nz9_D2K_X_1.pdb
 31 33 0 0 0
SMALL
GASTEIGER

@<TRIPOS>ATOM
      1  N1        10.2770   -1.8020   13.0160 N.2   207  D2K207     -0.3061
      2  C2        10.5410   -2.6430   12.0120 C.1   207  D2K207      0.2517
      3  N3        11.6100   -2.4210   11.2430 N.2   207  D2K207     -0.2706
      4  C4        12.3870   -1.3360   11.4520 C.1   207  D2K207      0.1046
      5  C5        12.0870   -0.3980   12.4690 C.2   207  D2K207      0.1185
      6  C6        10.9670   -0.6910   13.3090 C.2   207  D2K207      0.2427
      7  CAA       15.0120    4.7540    2.1250 C.3   207  D2K207      0.0513
      8  CAB       16.3290    2.2690   14.3350 C.3   207  D2K207      0.2525
      9  CAC       12.7840    1.8480   13.6050 C.3   207  D2K207      0.0316
     10  NAD        9.7580   -3.7540   11.7900 N.pl3 207  D2K207     -0.0226
     11  NAE       10.5670    0.0420   14.3620 N.pl3 207  D2K207     -0.0914
     12  OAF       14.1180    5.3800    6.0610 O.2   207  D2K207     -0.2501
     13  CAG       18.7910    1.7290   10.3190 C.ar  207  D2K207      0.0400
     14  CAH       18.5790    1.4800   11.6800 C.ar  207  D2K207      0.0397
     15  CAI       14.2270   -0.1080   10.7270 C.2   207  D2K207      0.1063
     16  CAJ       16.4450    2.1860   10.0200 C.ar  207  D2K207      0.0360
     17  CAK       15.1230    3.7090    3.2560 C.3   207  D2K207      0.2086
     18  CAL       16.6500    3.6770    6.5760 C.3   207  D2K207      0.0590
     19  CAM       17.1690    3.5440    7.9890 C.3   207  D2K207      0.2060
     20  CAN       15.1790    3.3130    6.5170 C.3   207  D2K207      0.1134
     21  CAO       14.8510    2.1010   11.8530 C.3   207  D2K207      0.0571
     22  NAP       13.4400   -1.1920   10.6220 N.2   207  D2K207     -0.1818
     23  OAS       17.1030    1.3520   13.5890 O.3   207  D2K207     -0.4717
     24  OAT       14.0870    3.9440    4.2890 O.3   207  D2K207     -0.4485
     25  OAU       17.9460    2.3190    8.1760 O.3   207  D2K207     -0.4755
     26  CAV       14.4540    4.2920    5.5860 C.2   207  D2K207      0.3171
     27  CAX       17.7380    2.0750    9.4980 C.ar  207  D2K207      0.1384
     28  CAZ       12.9070    0.7320   12.5710 C.2   207  D2K207     -0.0097
     29  CBA       13.9790    0.8540   11.7000 C.2   207  D2K207     -0.0009
     30  CBB       16.2460    1.9330   11.3680 C.ar  207  D2K207      0.0192
     31  CBC       17.2980    1.6070   12.2280 C.ar  207  D2K207      0.1352
@<TRIPOS>BOND
     1     7    17    1
     2    17    24    1
     3    24    26    1
     4    26    12    2
     5    26    20    1
     6    20    18    1
     7    18    19    1
     8    19    25    1
     9    25    27    1
    10    27    16   ar
    11    27    13   ar
    12    16    30   ar
    13    13    14   ar
    14    22    15    1
    15    22     4    2
    16    15    29    2
    17     3     4    2
    18     3     2    2
    19    30    21    1
    20    30    31   ar
    21     4     5    1
    22    14    31   ar
    23    29    21    1
    24    29    28    1
    25    10     2    1
    26     2     1    2
    27    31    23    1
    28     5    28    2
    29     5     6    1
    30    28     9    1
    31     1     6    2
    32     6    11    1
    33    23     8    1
