@<TRIPOS>MOLECULE
3nz9_NDP_X_1.pdb
 48 52 0 0 0
SMALL
GASTEIGER

@<TRIPOS>ATOM
      1  PA        15.7180    4.1340   22.9630 P.3   208  NDP208      0.2189
      2  O1A       15.6810    4.5840   21.5530 O.2   208  NDP208     -0.5170
      3  O2A       14.4420    3.7640   23.6990 O.3   208  NDP208     -0.4371
      4  O5B       16.2120    5.5380   23.7100 O.3   208  NDP208     -0.3112
      5  C5B       16.4560    5.3890   25.0780 C.3   208  NDP208      0.1813
      6  C4B       16.5180    6.7840   25.4800 C.3   208  NDP208      0.1820
      7  O4B       15.3450    7.5130   24.7950 O.3   208  NDP208     -0.3136
      8  C3B       16.5030    7.2130   26.9430 C.3   208  NDP208      0.2157
      9  O3B       17.8140    7.0870   27.4980 O.3   208  NDP208     -0.2175
     10  C2B       16.2930    8.5750   26.3220 C.3   208  NDP208      0.2314
     11  O2B       16.2630    9.6410   27.0590 O.3   208  NDP208     -0.2630
     12  C1B       14.8400    8.3580   25.7880 C.3   208  NDP208      0.3158
     13  N9A       13.5560    7.6330   26.4620 N.pl3 208  NDP208     -0.1439
     14  C8A       13.0940    6.3830   26.1740 C.3   208  NDP208      0.3377
     15  N7A       11.9800    6.0730   26.8650 N.2   208  NDP208     -0.2095
     16  C5A       11.6710    7.1740   27.5800 C.2   208  NDP208      0.2526
     17  C6A       10.6370    7.5030   28.4800 C.2   208  NDP208      0.4393
     18  N6A        9.6510    6.6350   28.8190 N.pl3 208  NDP208      0.2180
     19  N1A       10.6410    8.7430   29.0380 N.2   208  NDP208      0.0021
     20  C2A       11.5940    9.6350   28.7570 C.3   208  NDP208      0.5254
     21  N3A       12.5890    9.3670   27.9170 N.2   208  NDP208     -0.0055
     22  C4A       12.6650    8.1520   27.3250 C.2   208  NDP208      0.3518
     23  O3        17.0270    3.2400   23.2780 O.3   208  NDP208     -0.2703
     24  PN        17.2470    1.6820   23.6780 P.3   208  NDP208      0.2189
     25  O1N       16.3590    1.1650   24.7440 O.3   208  NDP208     -0.4371
     26  O2N       18.7540    1.7150   23.9600 O.2   208  NDP208     -0.5170
     27  O5D       17.0250    0.9030   22.2900 O.3   208  NDP208     -0.3112
     28  C5D       17.8130    1.2850   21.1550 C.3   208  NDP208      0.1813
     29  C4D       18.3710    0.0490   20.4330 C.3   208  NDP208      0.1799
     30  O4D       17.1250   -0.3970   19.8060 O.3   208  NDP208     -0.3327
     31  C3D       19.3410    0.3370   19.2760 C.3   208  NDP208      0.2158
     32  O3D       20.1480   -0.8510   19.0200 O.3   208  NDP208     -0.2175
     33  C2D       18.4020    0.4890   18.0980 C.3   208  NDP208      0.2309
     34  O2D       19.0930    0.1310   16.8920 O.3   208  NDP208     -0.2158
     35  C1D       17.3960   -0.6250   18.4450 C.3   208  NDP208      0.2263
     36  N1N       16.0980   -0.5620   17.7260 N.pl3 208  NDP208     -0.2787
     37  C2N       15.5920   -1.7560   17.1850 C.3   208  NDP208      0.1244
     38  C3N       14.3760   -1.6870   16.5160 C.2   208  NDP208      0.0544
     39  C7N       13.7900   -2.9530   15.8510 C.2   208  NDP208      0.2818
     40  O7N       12.6680   -2.8480   15.3400 O.2   208  NDP208     -0.2670
     41  N7N       14.6690   -4.0050   15.7510 N.am  208  NDP208     -0.0839
     42  C4N       13.6490   -0.4720   16.4280 C.2   208  NDP208      0.0033
     43  C5N       14.1450    0.7200   16.9650 C.2   208  NDP208      0.0157
     44  C6N       15.3630    0.6700   17.6360 C.2   208  NDP208      0.0633
     45  P2B       17.4870   10.4480   27.7530 P.3   208  NDP208      0.5328
     46  O1X       17.7480   11.4820   26.5510 O.2   208  NDP208     -0.2224
     47  O2X       18.7530    9.4300   27.8980 O.3   208  NDP208     -0.1145
     48  O3X       16.7520   10.8270   29.0220 O.3   208  NDP208     -0.1145
@<TRIPOS>BOND
     1    40    39    2
     2    41    39   am
     3    39    38    1
     4    42    38    2
     5    42    43    1
     6    38    37    1
     7    34    33    1
     8    43    44    2
     9    37    36    1
    10    44    36    1
    11    36    35    1
    12    33    35    1
    13    33    31    1
    14    35    30    1
    15    32    31    1
    16    31    29    1
    17    30    29    1
    18    29    28    1
    19    28    27    1
    20     2     1    2
    21    27    24    1
    22     1    23    1
    23     1     3    1
    24     1     4    1
    25    23    24    1
    26    24    26    2
    27    24    25    1
    28     4     5    1
    29     7     6    1
    30     7    12    1
    31     5     6    1
    32     6     8    1
    33    12    10    1
    34    12    13    1
    35    14    13    1
    36    14    15    1
    37    10     8    1
    38    10    11    1
    39    13    22    1
    40    46    45    2
    41    15    16    2
    42     8     9    1
    43    11    45    1
    44    22    16    1
    45    22    21    2
    46    16    17    1
    47    45    47    1
    48    45    48    1
    49    21    20    1
    50    17    18    1
    51    17    19    2
    52    20    19    1
