@<TRIPOS>MOLECULE
3nza_D2K_X_1.pdb
 31 33 0 0 0
SMALL
GASTEIGER

@<TRIPOS>ATOM
      1  N1        10.2560   -1.7910   13.1500 N.2   207  D2K207     -0.3061
      2  C2        10.5620   -2.5840   12.1370 C.1   207  D2K207      0.2517
      3  N3        11.5690   -2.3190   11.3490 N.2   207  D2K207     -0.2706
      4  C4        12.2920   -1.2450   11.5230 C.1   207  D2K207      0.1046
      5  C5        11.9850   -0.3490   12.5380 C.2   207  D2K207      0.1185
      6  C6        10.8920   -0.6710   13.3720 C.2   207  D2K207      0.2427
      7  CAA       13.7660    5.8590    1.5940 C.3   207  D2K207      0.0513
      8  CAB       16.6000    1.8170   13.7140 C.3   207  D2K207      0.2525
      9  CAC       12.5420    1.8490   13.7250 C.3   207  D2K207      0.0316
     10  NAD        9.8800   -3.6830   11.9470 N.pl3 207  D2K207     -0.0226
     11  NAE       10.5180    0.0610   14.3780 N.pl3 207  D2K207     -0.0914
     12  OAF       14.6070    2.8220    2.8680 O.2   207  D2K207     -0.2501
     13  CAG       18.1350    2.3220    9.3170 C.ar  207  D2K207      0.0400
     14  CAH       18.2830    1.9070   10.6040 C.ar  207  D2K207      0.0397
     15  CAI       14.0080    0.0680   10.8000 C.2   207  D2K207      0.1063
     16  CAJ       15.8210    2.6630    9.7210 C.ar  207  D2K207      0.0360
     17  CAK       14.5680    4.5790    1.3820 C.3   207  D2K207      0.2086
     18  CAL       15.7180    4.2150    5.7800 C.3   207  D2K207      0.0590
     19  CAM       15.5150    3.4510    7.1050 C.3   207  D2K207      0.2060
     20  CAN       14.5100    4.2170    4.8660 C.3   207  D2K207      0.1134
     21  CAO       14.6960    2.2690   11.8770 C.3   207  D2K207      0.0571
     22  NAP       13.2770   -1.0180   10.7010 N.2   207  D2K207     -0.1818
     23  OAS       17.5110    1.4820   12.7090 O.3   207  D2K207     -0.4717
     24  OAT       15.2830    4.8100    2.5440 O.3   207  D2K207     -0.4485
     25  OAU       16.7910    3.0870    7.6050 O.3   207  D2K207     -0.4755
     26  CAV       14.8250    3.9040    3.3930 C.2   207  D2K207      0.3171
     27  CAX       16.9030    2.7090    8.8830 C.ar  207  D2K207      0.1384
     28  CAZ       12.7570    0.8110   12.6470 C.2   207  D2K207     -0.0097
     29  CBA       13.8040    1.0250   11.7820 C.2   207  D2K207     -0.0009
     30  CBB       15.9580    2.2510   11.0290 C.ar  207  D2K207      0.0192
     31  CBC       17.2190    1.8820   11.4610 C.ar  207  D2K207      0.1352
@<TRIPOS>BOND
     1    17     7    1
     2    17    24    1
     3    24    26    1
     4    12    26    2
     5    26    20    1
     6    20    18    1
     7    18    19    1
     8    19    25    1
     9    25    27    1
    10    27    13   ar
    11    27    16   ar
    12    13    14   ar
    13    16    30   ar
    14    14    31   ar
    15    22    15    1
    16    22     4    2
    17    15    29    2
    18    30    31   ar
    19    30    21    1
    20     3     4    2
    21     3     2    2
    22    31    23    1
    23     4     5    1
    24    29    21    1
    25    29    28    1
    26    10     2    1
    27     2     1    2
    28     5    28    2
    29     5     6    1
    30    28     9    1
    31    23     8    1
    32     1     6    2
    33     6    11    1
