@<TRIPOS>MOLECULE
3nza_NDP_X_1.pdb
 48 52 0 0 0
SMALL
GASTEIGER

@<TRIPOS>ATOM
      1  PA        15.7170    4.2290   23.0680 P.3   208  NDP208      0.2189
      2  O1A       15.6560    4.5810   21.6280 O.2   208  NDP208     -0.5170
      3  O2A       14.4740    3.7900   23.7820 O.3   208  NDP208     -0.4371
      4  O5B       16.3950    5.2740   24.1440 O.3   208  NDP208     -0.3112
      5  C5B       16.8080    6.4900   23.7710 C.3   208  NDP208      0.1813
      6  C4B       16.4840    7.5330   24.8480 C.3   208  NDP208      0.1820
      7  O4B       15.1120    8.0220   24.5690 O.3   208  NDP208     -0.3136
      8  C3B       16.5070    7.3820   26.3930 C.3   208  NDP208      0.2157
      9  O3B       17.8160    7.3410   26.9630 O.3   208  NDP208     -0.2175
     10  C2B       16.0590    8.8330   26.3610 C.3   208  NDP208      0.2314
     11  O2B       16.1350    9.5620   27.5290 O.3   208  NDP208     -0.2630
     12  C1B       14.6630    8.6820   25.7530 C.3   208  NDP208      0.3158
     13  N9A       13.5370    7.9050   26.4190 N.pl3 208  NDP208     -0.1439
     14  C8A       13.1300    6.6470   26.1370 C.3   208  NDP208      0.3377
     15  N7A       12.0820    6.3210   26.9140 N.2   208  NDP208     -0.2095
     16  C5A       11.8100    7.3820   27.6920 C.2   208  NDP208      0.2526
     17  C6A       10.8430    7.6520   28.6810 C.2   208  NDP208      0.4393
     18  N6A        9.9280    6.7200   29.0370 N.pl3 208  NDP208      0.2180
     19  N1A       10.8450    8.8760   29.2680 N.2   208  NDP208      0.0021
     20  C2A       11.7330    9.8050   28.9210 C.3   208  NDP208      0.5254
     21  N3A       12.6630    9.5980   27.9930 N.2   208  NDP208     -0.0055
     22  C4A       12.7240    8.3940   27.3640 C.2   208  NDP208      0.3518
     23  O3        17.0350    3.2910   23.1700 O.3   208  NDP208     -0.2703
     24  PN        17.2830    1.8010   23.7330 P.3   208  NDP208      0.2189
     25  O1N       16.2720    1.3980   24.7350 O.3   208  NDP208     -0.4371
     26  O2N       18.7110    1.8080   24.1790 O.2   208  NDP208     -0.5170
     27  O5D       17.1930    0.9910   22.3380 O.3   208  NDP208     -0.3112
     28  C5D       17.8580    1.4990   21.1650 C.3   208  NDP208      0.1813
     29  C4D       18.3660    0.2890   20.3660 C.3   208  NDP208      0.1799
     30  O4D       17.0710   -0.2390   19.8730 O.3   208  NDP208     -0.3327
     31  C3D       19.2600    0.6070   19.1430 C.3   208  NDP208      0.2158
     32  O3D       20.1270   -0.5290   18.9010 O.3   208  NDP208     -0.2175
     33  C2D       18.2850    0.6860   17.9790 C.3   208  NDP208      0.2309
     34  O2D       18.9850    0.3380   16.7230 O.3   208  NDP208     -0.2158
     35  C1D       17.2550   -0.4100   18.4120 C.3   208  NDP208      0.2263
     36  N1N       15.9290   -0.4260   17.7210 N.pl3 208  NDP208     -0.2787
     37  C2N       15.4820   -1.6430   17.1550 C.3   208  NDP208      0.1244
     38  C3N       14.2350   -1.6340   16.5250 C.2   208  NDP208      0.0544
     39  C7N       13.6990   -2.9060   15.8570 C.2   208  NDP208      0.2818
     40  O7N       12.5980   -2.8290   15.2960 O.2   208  NDP208     -0.2670
     41  N7N       14.5660   -3.9200   15.7710 N.am  208  NDP208     -0.0839
     42  C4N       13.4700   -0.4740   16.4250 C.2   208  NDP208      0.0033
     43  C5N       13.8960    0.7240   16.9730 C.2   208  NDP208      0.0157
     44  C6N       15.1200    0.7490   17.6300 C.2   208  NDP208      0.0633
     45  P2B       17.5250   10.5470   27.7190 P.3   208  NDP208      0.5328
     46  O1X       17.0780   11.0930   29.2080 O.3   208  NDP208     -0.1145
     47  O2X       17.6030   11.6680   26.5060 O.2   208  NDP208     -0.2224
     48  O3X       18.7380    9.6960   27.7380 O.3   208  NDP208     -0.1145
@<TRIPOS>BOND
     1    40    39    2
     2    41    39   am
     3    39    38    1
     4    42    38    2
     5    42    43    1
     6    38    37    1
     7    34    33    1
     8    43    44    2
     9    37    36    1
    10    44    36    1
    11    36    35    1
    12    33    35    1
    13    33    31    1
    14    35    30    1
    15    32    31    1
    16    31    29    1
    17    30    29    1
    18    29    28    1
    19    28    27    1
    20     2     1    2
    21    27    24    1
    22     1    23    1
    23     1     3    1
    24     1     4    1
    25    23    24    1
    26    24    26    2
    27    24    25    1
    28     5     4    1
    29     5     6    1
    30     7     6    1
    31     7    12    1
    32     6     8    1
    33    12    10    1
    34    12    13    1
    35    14    13    1
    36    14    15    1
    37    10     8    1
    38    10    11    1
    39     8     9    1
    40    13    22    1
    41    47    45    2
    42    15    16    2
    43    22    16    1
    44    22    21    2
    45    11    45    1
    46    16    17    1
    47    45    48    1
    48    45    46    1
    49    21    20    1
    50    17    18    1
    51    17    19    2
    52    20    19    1
