@<TRIPOS>MOLECULE
3nzb_D2N_X_1.pdb
 33 35 0 0 0
SMALL
GASTEIGER

@<TRIPOS>ATOM
      1  N1        10.2240   -1.7510   13.1230 N.2   207  D2N207     -0.3061
      2  C2        10.5470   -2.5870   12.1240 C.1   207  D2N207      0.2517
      3  N3        11.6220   -2.3540   11.3570 N.2   207  D2N207     -0.2706
      4  C4        12.4130   -1.2950   11.6010 C.1   207  D2N207      0.1046
      5  C5        12.1210   -0.3810   12.6060 C.2   207  D2N207      0.1185
      6  C6        10.9860   -0.6820   13.4040 C.2   207  D2N207      0.2427
      7  CAA       27.1570   -0.3120   11.6010 C.3   207  D2N207      0.0513
      8  CAB       14.1020    3.3380   10.7440 C.3   207  D2N207      0.2525
      9  CAC       12.8300    1.7990   13.8600 C.3   207  D2N207      0.0316
     10  NAD        9.7790   -3.6510   11.8170 N.pl3 207  D2N207     -0.0226
     11  NAE       10.5520    0.0500   14.4450 N.pl3 207  D2N207     -0.0914
     12  OAF       25.9160   -0.9480    9.7420 O.2   207  D2N207     -0.2501
     13  CAG       18.1390    2.2140    8.9280 C.ar  207  D2N207      0.0400
     14  CAH       16.8950    2.7830    8.7040 C.ar  207  D2N207      0.0397
     15  CAI       14.2910   -0.1180   10.9220 C.2   207  D2N207      0.1063
     16  CAJ       17.4380    1.5250   11.1430 C.ar  207  D2N207      0.0360
     17  CAK       25.7080   -0.1870   12.1010 C.3   207  D2N207      0.2086
     18  CAL       21.3660   -0.9550   10.0460 C.3   207  D2N207      0.0044
     19  CAM       20.6590   -0.4620    8.7820 C.3   207  D2N207      0.0474
     20  CAN       22.7010   -1.5870    9.6360 C.3   207  D2N207      0.0118
     21  CAO       20.1970    0.9750    8.9360 C.3   207  D2N207      0.2054
     22  CAP       23.6550   -0.5370    9.0750 C.3   207  D2N207      0.1096
     23  CAQ       15.0960    2.0250   12.0410 C.3   207  D2N207      0.0571
     24  NAR       13.4810   -1.1700   10.7850 N.2   207  D2N207     -0.1818
     25  OAU       14.7280    3.2860    9.4580 O.3   207  D2N207     -0.4717
     26  OAV       24.8070    0.4000   11.1270 O.3   207  D2N207     -0.4485
     27  OAW       19.6690    1.0650   10.2700 O.3   207  D2N207     -0.4755
     28  CAX       24.8680   -0.3600    9.9940 C.2   207  D2N207      0.3170
     29  CAZ       18.4150    1.5900   10.1300 C.ar  207  D2N207      0.1384
     30  CBB       12.9920    0.7100   12.7750 C.2   207  D2N207     -0.0097
     31  CBC       14.0900    0.8360   11.9170 C.2   207  D2N207     -0.0009
     32  CBD       16.1760    2.0930   10.9240 C.ar  207  D2N207      0.0192
     33  CBE       15.9320    2.7230    9.7000 C.ar  207  D2N207      0.1352
@<TRIPOS>BOND
     1    14    13   ar
     2    14    33   ar
     3    19    21    1
     4    19    18    1
     5    13    29   ar
     6    21    27    1
     7    22    20    1
     8    22    28    1
     9    25    33    1
    10    25     8    1
    11    20    18    1
    12    33    32   ar
    13    12    28    2
    14    28    26    1
    15    29    27    1
    16    29    16   ar
    17    24    15    1
    18    24     4    2
    19    15    31    2
    20    32    16   ar
    21    32    23    1
    22    26    17    1
    23     3     4    2
    24     3     2    2
    25     4     5    1
    26     7    17    1
    27    10     2    1
    28    31    23    1
    29    31    30    1
    30     2     1    2
    31     5    30    2
    32     5     6    1
    33    30     9    1
    34     1     6    2
    35     6    11    1
