@<TRIPOS>MOLECULE
3nzb_NAP_X_1.pdb
 48 52 0 0 0
SMALL
GASTEIGER

@<TRIPOS>ATOM
      1  PA        15.7990    4.1750   23.1630 P.3   208  NAP208      0.2189
      2  O1A       15.6880    4.5660   21.8320 O.2   208  NAP208     -0.5170
      3  O2A       14.5400    3.7480   23.8890 O.3   208  NAP208     -0.4371
      4  O5B       16.3120    5.6080   23.8180 O.3   208  NAP208     -0.3112
      5  C5B       16.5490    5.6720   25.1730 C.3   208  NAP208      0.1813
      6  C4B       16.6250    7.1090   25.4580 C.3   208  NAP208      0.1820
      7  O4B       15.3940    7.7650   24.9980 O.3   208  NAP208     -0.3136
      8  C3B       16.6320    7.1480   26.9910 C.3   208  NAP208      0.2157
      9  O3B       17.9740    7.1560   27.5370 O.3   208  NAP208     -0.2175
     10  C2B       15.8910    8.4570   27.2250 C.3   208  NAP208      0.2314
     11  O2B       16.6240    9.5420   26.7780 O.3   208  NAP208     -0.2630
     12  C1B       14.7930    8.4110   26.1650 C.3   208  NAP208      0.3158
     13  N9A       13.5810    7.7340   26.7060 N.pl3 208  NAP208     -0.1439
     14  C8A       13.1430    6.4920   26.3700 C.3   208  NAP208      0.3377
     15  N7A       12.0270    6.2120   27.0320 N.2   208  NAP208     -0.2095
     16  C5A       11.7220    7.3010   27.7750 C.2   208  NAP208      0.2526
     17  C6A       10.6830    7.6210   28.6300 C.2   208  NAP208      0.4393
     18  N6A        9.7240    6.7140   28.8820 N.pl3 208  NAP208      0.2180
     19  N1A       10.6640    8.8220   29.2180 N.2   208  NAP208      0.0021
     20  C2A       11.6140    9.7080   28.9690 C.3   208  NAP208      0.5254
     21  N3A       12.6240    9.4700   28.1650 N.2   208  NAP208     -0.0055
     22  C4A       12.6960    8.2630   27.5670 C.2   208  NAP208      0.3518
     23  O3        17.1000    3.2310   23.2480 O.3   208  NAP208     -0.2703
     24  PN        17.3330    1.7860   23.7430 P.3   208  NAP208      0.2189
     25  O1N       16.3370    1.4840   24.7440 O.3   208  NAP208     -0.4371
     26  O2N       18.8030    1.6640   24.1760 O.2   208  NAP208     -0.5170
     27  O5D       17.2070    0.9720   22.3760 O.3   208  NAP208     -0.3112
     28  C5D       17.9000    1.4380   21.1830 C.3   208  NAP208      0.1813
     29  C4D       18.4530    0.2510   20.4060 C.3   208  NAP208      0.1799
     30  O4D       17.1950   -0.2900   19.8820 O.3   208  NAP208     -0.3327
     31  C3D       19.3380    0.4320   19.1570 C.3   208  NAP208      0.2158
     32  O3D       20.1040   -0.7820   19.0870 O.3   208  NAP208     -0.2175
     33  C2D       18.3750    0.5260   18.0060 C.3   208  NAP208      0.2309
     34  O2D       19.0280    0.1100   16.7530 O.3   208  NAP208     -0.2158
     35  C1D       17.4160   -0.5710   18.5080 C.3   208  NAP208      0.2263
     36  N1N       16.1180   -0.4910   17.7960 N.pl3 208  NAP208     -0.2787
     37  C2N       15.6100   -1.7070   17.2030 C.3   208  NAP208      0.1244
     38  C3N       14.3590   -1.6200   16.5870 C.2   208  NAP208      0.0544
     39  C7N       13.8090   -2.8940   15.8960 C.2   208  NAP208      0.2818
     40  O7N       12.6690   -2.8090   15.3940 O.2   208  NAP208     -0.2670
     41  N7N       14.5960   -3.9810   15.9230 N.am  208  NAP208     -0.0839
     42  C4N       13.5580   -0.3250   16.4770 C.2   208  NAP208      0.0033
     43  C5N       14.1290    0.7890   17.1420 C.2   208  NAP208      0.0157
     44  C6N       15.3610    0.7100   17.7670 C.2   208  NAP208      0.0633
     45  P2B       17.6490   10.4520   27.7600 P.3   208  NAP208      0.5328
     46  O1X       17.6540   11.4930   26.6150 O.2   208  NAP208     -0.2224
     47  O2X       18.9040    9.4590   28.1690 O.3   208  NAP208     -0.1145
     48  O3X       16.9050   10.8470   28.9880 O.3   208  NAP208     -0.1145
@<TRIPOS>BOND
     1    40    39    2
     2    39    41   am
     3    39    38    1
     4    42    38    2
     5    42    43    1
     6    38    37    1
     7    34    33    1
     8    43    44    2
     9    37    36    1
    10    44    36    1
    11    36    35    1
    12    33    35    1
    13    33    31    1
    14    35    30    1
    15    32    31    1
    16    31    29    1
    17    30    29    1
    18    29    28    1
    19    28    27    1
    20     2     1    2
    21    27    24    1
    22     1    23    1
    23     1     4    1
    24     1     3    1
    25    23    24    1
    26    24    26    2
    27    24    25    1
    28     4     5    1
    29     7     6    1
    30     7    12    1
    31     5     6    1
    32     6     8    1
    33    12    13    1
    34    12    10    1
    35    14    13    1
    36    14    15    1
    37    46    45    2
    38    13    22    1
    39    11    10    1
    40    11    45    1
    41     8    10    1
    42     8     9    1
    43    15    16    2
    44    22    16    1
    45    22    21    2
    46    45    47    1
    47    45    48    1
    48    16    17    1
    49    21    20    1
    50    17    18    1
    51    17    19    2
    52    20    19    1
