@<TRIPOS>MOLECULE
3nzc_D2O_X_1.pdb
 31 34 0 0 0
SMALL
GASTEIGER

@<TRIPOS>ATOM
      1  N1        10.3390   -1.8500   13.0660 N.2   207  D2O207     -0.3061
      2  C2        10.6040   -2.6740   12.0590 C.1   207  D2O207      0.2517
      3  N3        11.5410   -2.3620   11.1990 N.2   207  D2O207     -0.2706
      4  C4        12.2380   -1.2480   11.3160 C.1   207  D2O207      0.1046
      5  C5        11.9870   -0.3660   12.3500 C.2   207  D2O207      0.1185
      6  C6        10.9840   -0.7140   13.2480 C.2   207  D2O207      0.2427
      7  CAA       18.4830    1.4460   12.0370 C.3   207  D2O207      0.2525
      8  CAB       12.6480    1.8960   13.4090 C.3   207  D2O207      0.0316
      9  NAC        9.9350   -3.8000   11.8910 N.pl3 207  D2O207     -0.0226
     10  NAD       10.6440    0.0190   14.2690 N.pl3 207  D2O207     -0.0914
     11  CAE       15.9380    1.7570    2.1840 C.ar  207  D2O207     -0.0000
     12  CAF       16.8320    1.7960    3.2410 C.ar  207  D2O207     -0.0003
     13  CAG       14.8670    2.6410    2.1070 C.ar  207  D2O207     -0.0003
     14  CAH       16.6220    2.7480    4.2300 C.ar  207  D2O207     -0.0041
     15  CAI       14.6720    3.5790    3.0970 C.ar  207  D2O207     -0.0041
     16  CAJ       17.6430    2.6430    8.5760 C.ar  207  D2O207      0.0400
     17  CAK       17.9140    2.1950    9.8500 C.ar  207  D2O207      0.0397
     18  CAL       13.8960    0.1100   10.4360 C.2   207  D2O207      0.1063
     19  CAM       15.3340    2.9190    9.1340 C.ar  207  D2O207      0.0360
     20  CAN       14.9620    4.0470    6.6390 C.3   207  D2O207      0.2101
     21  CAO       15.3250    4.6790    5.2900 C.3   207  D2O207      0.0736
     22  CAP       14.5290    2.3370   11.4900 C.3   207  D2O207      0.0571
     23  NAQ       13.1730   -0.9940   10.4080 N.2   207  D2O207     -0.1818
     24  OAT       17.1070    1.6740   12.0150 O.3   207  D2O207     -0.4717
     25  OAU       16.1730    3.4440    6.9720 O.3   207  D2O207     -0.4751
     26  CAV       15.5480    3.6360    4.1670 C.ar  207  D2O207     -0.0184
     27  CAW       16.3650    3.0170    8.2200 C.ar  207  D2O207      0.1385
     28  CAY       13.7120    1.0570   11.4310 C.2   207  D2O207     -0.0009
     29  CAZ       15.6110    2.4430   10.4230 C.ar  207  D2O207      0.0192
     30  CBB       12.7560    0.8100   12.3840 C.2   207  D2O207     -0.0097
     31  CBC       16.8910    2.0980   10.7610 C.ar  207  D2O207      0.1352
@<TRIPOS>BOND
     1    13    11   ar
     2    13    15   ar
     3    11    12   ar
     4    15    26   ar
     5    12    14   ar
     6    26    14   ar
     7    26    21    1
     8    21    20    1
     9    20    25    1
    10    25    27    1
    11    27    16   ar
    12    27    19   ar
    13    16    17   ar
    14    19    29   ar
    15    17    31   ar
    16    23    18    1
    17    23     4    2
    18    29    31   ar
    19    29    22    1
    20    18    28    2
    21    31    24    1
    22     3     4    2
    23     3     2    2
    24     4     5    1
    25    28    22    1
    26    28    30    1
    27     9     2    1
    28    24     7    1
    29     2     1    2
    30     5    30    2
    31     5     6    1
    32    30     8    1
    33     1     6    2
    34     6    10    1
