@<TRIPOS>MOLECULE
3nzd_NDP_A_1.pdb
 48 52 0 0 0
SMALL
GASTEIGER

@<TRIPOS>ATOM
      1  PA       -17.2630  -17.1000    9.9370 P.3   188  NDP188      0.2189
      2  O1A      -17.5750  -16.5690    8.5930 O.2   188  NDP188     -0.5170
      3  O2A      -18.0740  -18.2050   10.4920 O.3   188  NDP188     -0.4371
      4  O5B      -17.3040  -15.8750   10.9810 O.3   188  NDP188     -0.3112
      5  C5B      -17.7990  -16.0800   12.3070 C.3   188  NDP188      0.1813
      6  C4B      -16.9720  -15.2920   13.3280 C.3   188  NDP188      0.1820
      7  O4B      -17.7700  -14.2330   13.8930 O.3   188  NDP188     -0.3136
      8  C3B      -16.6090  -16.1930   14.5150 C.3   188  NDP188      0.2157
      9  O3B      -15.2850  -15.8840   14.9590 O.3   188  NDP188     -0.2175
     10  C2B      -17.6140  -15.8150   15.6030 C.3   188  NDP188      0.2314
     11  O2B      -18.3140  -16.9840   16.0360 O.3   188  NDP188     -0.2630
     12  C1B      -18.5830  -14.8730   14.8900 C.3   188  NDP188      0.3158
     13  N9A      -19.6610  -15.6610   14.2470 N.pl3 188  NDP188     -0.1439
     14  C8A      -19.5160  -16.8380   13.6370 C.3   188  NDP188      0.3377
     15  N7A      -20.7000  -17.2460   13.1790 N.2   188  NDP188     -0.2095
     16  C5A      -21.6010  -16.3250   13.5010 C.2   188  NDP188      0.2526
     17  C6A      -22.9670  -16.2070   13.2940 C.2   188  NDP188      0.4393
     18  N6A      -23.6370  -17.1550   12.6450 N.pl3 188  NDP188      0.2180
     19  N1A      -23.6020  -15.1210   13.7580 N.2   188  NDP188      0.0021
     20  C2A      -22.9400  -14.1740   14.4040 C.3   188  NDP188      0.5254
     21  N3A      -21.6360  -14.2580   14.6180 N.2   188  NDP188     -0.0055
     22  C4A      -20.9430  -15.3170   14.1790 C.2   188  NDP188      0.3518
     23  O3       -15.7130  -17.5200    9.9820 O.3   188  NDP188     -0.2703
     24  PN       -15.1210  -18.5390    8.8850 P.3   188  NDP188      0.2189
     25  O1N      -16.2570  -19.1270    8.1430 O.2   188  NDP188     -0.5170
     26  O2N      -14.1500  -19.4270    9.5580 O.3   188  NDP188     -0.4371
     27  O5D      -14.3230  -17.5430    7.9080 O.3   188  NDP188     -0.3112
     28  C5D      -12.9030  -17.4180    8.0200 C.3   188  NDP188      0.1813
     29  C4D      -12.2390  -17.4660    6.6430 C.3   188  NDP188      0.1799
     30  O4D      -13.1690  -17.0190    5.6450 O.3   188  NDP188     -0.3327
     31  C3D      -11.1100  -16.4350    6.5860 C.3   188  NDP188      0.2158
     32  O3D       -9.8550  -17.0900    6.7880 O.3   188  NDP188     -0.2175
     33  C2D      -11.1790  -15.8940    5.1570 C.3   188  NDP188      0.2309
     34  O2D       -9.9660  -16.2070    4.4680 O.3   188  NDP188     -0.2158
     35  C1D      -12.3390  -16.6670    4.5270 C.3   188  NDP188      0.2263
     36  N1N      -13.0900  -15.7760    3.6150 N.pl3 188  NDP188     -0.2787
     37  C2N      -13.0480  -15.9900    2.2330 C.3   188  NDP188      0.1244
     38  C3N      -13.7550  -15.1510    1.3800 C.2   188  NDP188      0.0544
     39  C7N      -13.7090  -15.3830   -0.1320 C.2   188  NDP188      0.2818
     40  O7N      -14.5280  -14.8500   -0.8800 O.2   188  NDP188     -0.2670
     41  N7N      -12.7360  -16.1880   -0.5480 N.am  188  NDP188     -0.0839
     42  C4N      -14.5030  -14.1000    1.8980 C.2   188  NDP188      0.0033
     43  C5N      -14.5480  -13.8830    3.2710 C.2   188  NDP188      0.0157
     44  C6N      -13.8450  -14.7170    4.1320 C.2   188  NDP188      0.0633
     45  P2B      -18.8950  -17.0670   17.5430 P.3   188  NDP188      0.5328
     46  O1X      -20.5040  -17.1090   17.3830 O.2   188  NDP188     -0.2224
     47  O2X      -18.5670  -15.6290   18.2090 O.3   188  NDP188     -0.1145
     48  O3X      -18.3540  -18.2070   18.3170 O.3   188  NDP188     -0.1145
@<TRIPOS>BOND
     1    40    39    2
     2    41    39   am
     3    39    38    1
     4    38    42    2
     5    38    37    1
     6    42    43    1
     7    37    36    1
     8    43    44    2
     9    36    44    1
    10    36    35    1
    11    34    33    1
    12    35    33    1
    13    35    30    1
    14    33    31    1
    15    30    29    1
    16    31    29    1
    17    31    32    1
    18    29    28    1
    19    27    28    1
    20    27    24    1
    21    25    24    2
    22     2     1    2
    23    24    26    1
    24    24    23    1
    25     1    23    1
    26     1     3    1
    27     1     4    1
    28     4     5    1
    29     5     6    1
    30    18    17    1
    31    15    16    2
    32    15    14    1
    33    17    16    1
    34    17    19    2
    35     6     7    1
    36     6     8    1
    37    16    22    1
    38    14    13    1
    39    19    20    1
    40     7    12    1
    41    22    13    1
    42    22    21    2
    43    13    12    1
    44    20    21    1
    45     8     9    1
    46     8    10    1
    47    12    10    1
    48    10    11    1
    49    11    45    1
    50    46    45    2
    51    45    47    1
    52    45    48    1
