@<TRIPOS>MOLECULE
3nzd_D2Q_A_1.pdb
 32 34 0 0 0
SMALL
GASTEIGER

@<TRIPOS>ATOM
      1  C1        -5.4220   -1.8080   -1.0910 C.3   187  D2Q187      0.2086
      2  C2        -6.8690   -1.4820   -1.3470 C.3   187  D2Q187      0.0513
      3  C3        -6.6050   -6.1810    0.4730 C.3   187  D2Q187      0.0155
      4  C1'      -10.7110  -10.2240    1.9910 C.ar  187  D2Q187      0.0192
      5  N1'      -13.9020  -11.6850   -3.2860 N.2   187  D2Q187     -0.2706
      6  C2'      -15.1230  -12.1800   -3.4170 C.1   187  D2Q187      0.2517
      7 C2'A       -9.3940   -9.8660    1.8450 C.ar  187  D2Q187      0.1350
      8  N2'      -15.5160  -12.6680   -4.5890 N.pl3 187  D2Q187     -0.0226
      9  O2'       -9.0480   -8.7230    1.1830 O.3   187  D2Q187     -0.4758
     10  C21       -7.6260   -8.4350    1.2170 C.3   187  D2Q187      0.2054
     11  C26       -7.4530   -7.4050    0.1170 C.3   187  D2Q187      0.0479
     12  C3'       -8.4290  -10.6890    2.3910 C.ar  187  D2Q187      0.0397
     13  N3'      -15.9350  -12.1920   -2.3570 N.2   187  D2Q187     -0.3061
     14  C4'      -15.5800  -11.6930   -1.1670 C.2   187  D2Q187      0.2427
     15 C4'A       -8.7810  -11.8470    3.0680 C.ar  187  D2Q187      0.0400
     16  N4'      -16.4580  -11.7410   -0.1780 N.pl3 187  D2Q187     -0.0914
     17  C44       -6.3290   -5.3300   -0.7680 C.3   187  D2Q187      0.1097
     18  C45       -5.4480   -4.0760   -0.5360 C.2   187  D2Q187      0.3170
     19  O46       -4.7950   -3.9300    0.4990 O.2   187  D2Q187     -0.2501
     20  O47       -5.3400   -3.1520   -1.5460 O.3   187  D2Q187     -0.4485
     21  C4A      -14.3020  -11.1590   -1.0130 C.2   187  D2Q187      0.1185
     22  C5'      -13.8160  -10.5930    0.1610 C.2   187  D2Q187     -0.0097
     23 C5'A      -10.1210  -12.2340    3.2210 C.ar  187  D2Q187      0.1386
     24  O5'      -10.6200  -13.3490    3.8780 O.3   187  D2Q187     -0.4714
     25  C51      -14.6180  -10.5180    1.4240 C.3   187  D2Q187      0.0316
     26  C5A      -10.0220  -14.6710    4.4230 C.3   187  D2Q187      0.2525
     27  C6'      -12.5240  -10.0940    0.2140 C.2   187  D2Q187     -0.0009
     28 C6'A      -11.0520  -11.3750    2.6750 C.ar  187  D2Q187      0.0360
     29  C61      -11.8840   -9.4360    1.4480 C.3   187  D2Q187      0.0571
     30  C7'      -11.7820  -10.1640   -0.9320 C.2   187  D2Q187      0.1063
     31  N8'      -12.2520  -10.6840   -2.0340 N.2   187  D2Q187     -0.1818
     32  C8A      -13.4790  -11.1730   -2.1320 C.1   187  D2Q187      0.1046
@<TRIPOS>BOND
     1     8     6    1
     2     6     5    2
     3     6    13    2
     4     5    32    2
     5    13    14    2
     6    32    31    2
     7    32    21    1
     8    31    30    1
     9    20     1    1
    10    20    18    1
    11     2     1    1
    12    14    21    1
    13    14    16    1
    14    21    22    2
    15    30    27    2
    16    17    18    1
    17    17     3    1
    18    18    19    2
    19    11     3    1
    20    11    10    1
    21    22    27    1
    22    22    25    1
    23    27    29    1
    24     9    10    1
    25     9     7    1
    26    29     4    1
    27     7     4   ar
    28     7    12   ar
    29     4    28   ar
    30    12    15   ar
    31    28    23   ar
    32    15    23   ar
    33    23    24    1
    34    24    26    1
