@<TRIPOS>MOLECULE
3nzi_III_B_1.pdb
 40 40 0 0 0
SMALL
GASTEIGER

@<TRIPOS>ATOM
      1  N         -7.8620  -11.8960  -16.3820 N.3     4  MET4        0.0000
      2  CA        -7.1010  -13.0810  -15.8890 C.3     4  MET4        0.0000
      3  C         -5.8470  -12.6600  -15.1090 C.2     4  MET4        0.0000
      4  O         -5.6400  -11.4780  -14.8390 O.2     4  MET4        0.0000
      5  CB        -6.7360  -14.0020  -17.0670 C.3     4  MET4        0.0000
      6  CG        -5.6430  -13.4720  -18.0060 C.3     4  MET4        0.0000
      7  SD        -5.1160  -14.6920  -19.2370 S.3     4  MET4        0.0000
      8  CE        -4.2090  -15.8590  -18.2210 C.3     4  MET4        0.0000
      9  N         -5.0150  -13.6420  -14.7690 N.am    5  PHE5        0.0000
     10  CA        -3.8120  -13.4410  -13.9550 C.3     5  PHE5        0.0000
     11  C         -2.5360  -13.4270  -14.8080 C.2     5  PHE5        0.0000
     12  O         -2.5950  -13.4390  -16.0340 O.2     5  PHE5        0.0000
     13  CB        -3.7150  -14.5580  -12.9010 C.3     5  PHE5        0.0000
     14  CG        -3.6080  -15.9390  -13.4890 C.ar    5  PHE5        0.0000
     15  CD1       -2.3720  -16.4690  -13.8490 C.ar    5  PHE5        0.0000
     16  CD2       -4.7480  -16.7060  -13.6980 C.ar    5  PHE5        0.0000
     17  CE1       -2.2730  -17.7430  -14.4070 C.ar    5  PHE5        0.0000
     18  CE2       -4.6580  -17.9810  -14.2530 C.ar    5  PHE5        0.0000
     19  CZ        -3.4170  -18.5000  -14.6070 C.ar    5  PHE5        0.0000
     20  N         -1.3870  -13.3840  -14.1380 N.am    6  LYS6        0.0000
     21  CA        -0.0910  -13.6750  -14.7460 C.3     6  LYS6        0.0000
     22  C          0.8140  -14.2290  -13.6450 C.2     6  LYS6        0.0000
     23  O          0.7210  -13.7800  -12.5030 O.2     6  LYS6        0.0000
     24  CB         0.5210  -12.4280  -15.3870 C.3     6  LYS6        0.0000
     25  N          1.6640  -15.2060  -13.9720 N.am    7  LEU7        0.0000
     26  CA         2.6170  -15.7720  -12.9970 C.3     7  LEU7        0.0000
     27  C          3.8220  -14.8440  -12.8070 C.2     7  LEU7        0.0000
     28  O          4.1700  -14.0890  -13.7140 O.2     7  LEU7        0.0000
     29  CB         3.0980  -17.1730  -13.4220 C.3     7  LEU7        0.0000
     30  CG         2.0580  -18.2470  -13.7970 C.3     7  LEU7        0.0000
     31  CD1        2.6520  -19.6510  -13.7010 C.3     7  LEU7        0.0000
     32  CD2        0.8020  -18.1560  -12.9460 C.3     7  LEU7        0.0000
     33  N          4.4590  -14.9230  -11.6350 N.am    8  VAL8        0.0000
     34  CA         5.5520  -14.0000  -11.2450 C.3     8  VAL8        0.0000
     35  CB         5.1050  -13.1250  -10.0450 C.3     8  VAL8        0.0000
     36  CG1        4.1160  -12.0540  -10.5030 C.3     8  VAL8        0.0000
     37  CG2        4.4620  -13.8670   -8.8690 C.3     8  VAL8        0.0000
     38  B          6.9390  -14.7880  -10.9780 B       8  VAL8        0.0000
     39  O1         7.4050  -15.6340  -12.1650 O.3     8  VAL8        0.0000
     40  O2         8.0680  -13.9280  -10.3940 O.3     8  VAL8        0.0000
@<TRIPOS>BOND
     1     7     8    1
     2     7     6    1
     3     6     5    1
     4     5     2    1
     5     1     2    1
     6    12    11    2
     7     2     3    1
     8    24    21    1
     9     3     4    2
    10     3     9   am
    11    11    20   am
    12    11    10    1
    13     9    10    1
    14    21    20    1
    15    21    22    1
    16    19    17   ar
    17    19    18   ar
    18    17    15   ar
    19    18    16   ar
    20    25    22   am
    21    25    26    1
    22    10    13    1
    23    15    14   ar
    24    30    31    1
    25    30    29    1
    26    30    32    1
    27    28    27    2
    28    16    14   ar
    29    22    23    2
    30    14    13    1
    31    29    26    1
    32    26    27    1
    33    27    33   am
    34    39    38    1
    35    33    34    1
    36    34    38    1
    37    34    35    1
    38    38    40    1
    39    36    35    1
    40    35    37    1
