@<TRIPOS>MOLECULE
3nzk_C90_A_1.pdb
 32 34 0 0 0
SMALL
GASTEIGER

@<TRIPOS>ATOM
      1  C5        -0.0910  -19.6980  -15.0970 C.3   501  C90501      0.0993
      2  C6        -0.8190  -20.3800  -13.9420 C.ar  501  C90501     -0.0061
      3  C9        -2.1430  -21.6730  -11.7320 C.ar  501  C90501      0.0419
      4  C10       -2.8030  -22.2980  -10.6540 C.1   501  C90501     -0.0597
      5  O1         1.9730  -16.1540  -13.8630 O.3   501  C90501     -0.3508
      6  C11       -3.3700  -22.8340   -9.7300 C.1   501  C90501     -0.0597
      7  C12       -4.0440  -23.3770   -8.6020 C.ar  501  C90501      0.0420
      8  C19       -8.7250  -23.7990   -3.1500 C.3   501  C90501      0.1779
      9  C15       -5.4430  -24.3660   -6.2780 C.ar  501  C90501      0.0551
     10  C16       -6.1670  -24.8220   -5.1310 C.2   501  C90501      0.2652
     11  C18       -8.3590  -25.0610   -4.0190 C.3   501  C90501      0.1704
     12  C21       -7.5580  -22.8590   -2.8100 C.3   501  C90501      0.0378
     13  C22       -9.5460  -25.8140   -4.6430 C.2   501  C90501      0.1093
     14  CA1        1.8080  -16.4100  -15.2610 C.3   501  C90501      0.1595
     15  CA2        0.7680  -16.4410  -13.1590 C.3   501  C90501      0.1595
     16  CB1        1.4410  -17.9080  -15.4910 C.3   501  C90501      0.1049
     17  CB2        0.5330  -17.9510  -13.3100 C.3   501  C90501      0.1049
     18  N4         0.2410  -18.2770  -14.7240 N.3   501  C90501     -0.2646
     19  CC1       -0.1260  -21.3960  -13.1790 C.ar  501  C90501     -0.0023
     20  CC2       -2.1800  -20.0090  -13.6020 C.ar  501  C90501     -0.0023
     21  CD1       -0.7910  -22.0400  -12.0690 C.ar  501  C90501      0.0080
     22  CD2       -2.8450  -20.6600  -12.4900 C.ar  501  C90501      0.0080
     23  CE1       -5.4830  -23.3180   -8.5620 C.ar  501  C90501      0.0084
     24  CE2       -3.2920  -23.9150   -7.4930 C.ar  501  C90501      0.0084
     25  CF1       -6.1800  -23.8040   -7.4060 C.ar  501  C90501      0.0052
     26  CF        -3.9790  -24.4190   -6.3240 C.ar  501  C90501      0.0052
     27  O16       -5.5540  -25.2220   -4.1320 O.2   501  C90501     -0.2684
     28  N17       -7.4790  -24.6370   -5.1200 N.am  501  C90501     -0.1943
     29  O20       -9.6690  -23.0000   -3.8650 O.3   501  C90501     -0.2209
     30  N23       -9.7130  -27.0510   -4.2510 N.am  501  C90501     -0.2011
     31  O22      -10.4490  -25.1740   -5.1430 O.2   501  C90501     -0.5379
     32  O24      -10.8340  -27.6990   -4.5260 O.3   501  C90501     -0.4026
@<TRIPOS>BOND
     1    16    14    1
     2    16    18    1
     3    14     5    1
     4     1    18    1
     5     1     2    1
     6    18    17    1
     7     2    20   ar
     8     2    19   ar
     9     5    15    1
    10    20    22   ar
    11    17    15    1
    12    19    21   ar
    13    22     3   ar
    14    21     3   ar
    15     3     4    1
    16     4     6    3
    17     6     7    1
    18     7    23   ar
    19     7    24   ar
    20    23    25   ar
    21    24    26   ar
    22    25     9   ar
    23    26     9   ar
    24     9    10    1
    25    31    13    2
    26    10    28   am
    27    10    27    2
    28    28    11    1
    29    13    30   am
    30    13    11    1
    31    32    30    1
    32    11     8    1
    33    29     8    1
    34     8    12    1
