@<TRIPOS>MOLECULE
3nzp_PLP_A_1.pdb
 15 15 0 0 0
SMALL
GASTEIGER

@<TRIPOS>ATOM
      1  N1       -24.7810   97.7000  -51.5700 N.ar  701  PLP701     -0.2452
      2  C2       -25.4040   98.7350  -50.9960 C.ar  701  PLP701      0.0978
      3  C2A      -25.8970   99.8710  -51.8600 C.3   701  PLP701      0.0555
      4  C3       -25.6090   98.7590  -49.5840 C.ar  701  PLP701      0.2049
      5  O3       -26.2430   99.8170  -48.9860 O.3   701  PLP701     -0.2857
      6  C4       -25.1190   97.6440  -48.7960 C.ar  701  PLP701      0.0182
      7  C4A      -25.3150   97.6280  -47.3260 C.3   701  PLP701      0.0342
      8  C5       -24.4510   96.5580  -49.4860 C.ar  701  PLP701      0.0261
      9  C6       -24.3060   96.6460  -50.8810 C.ar  701  PLP701      0.0965
     10  C5A      -23.8910   95.3300  -48.7390 C.3   701  PLP701      0.1815
     11  O4P      -24.9300   94.3720  -48.4260 O.3   701  PLP701     -0.2653
     12  P        -24.2560   93.1260  -47.6380 P.3   701  PLP701      0.5329
     13  O1P      -23.7040   93.5750  -46.3540 O.3   701  PLP701     -0.1145
     14  O2P      -25.3760   92.0090  -47.3620 O.3   701  PLP701     -0.1145
     15  O3P      -23.0920   92.4680  -48.4920 O.2   701  PLP701     -0.2224
@<TRIPOS>BOND
     1     3     2    1
     2     1     2   ar
     3     1     9   ar
     4     2     4   ar
     5     9     8   ar
     6     4     5    1
     7     4     6   ar
     8     8     6   ar
     9     8    10    1
    10     6     7    1
    11    10    11    1
    12    15    12    2
    13    11    12    1
    14    12    14    1
    15    12    13    1
