@<TRIPOS>MOLECULE
3nzs_NZS_A_1.pdb
 27 30 0 0 0
SMALL
GASTEIGER

@<TRIPOS>ATOM
      1  C1        20.2290   13.3200   22.9300 C.3     1  NZS1        0.1814
      2  N1        22.5850   12.9710   23.0970 N.2     1  NZS1       -0.3148
      3  O1        22.0020   19.0400   21.2690 O.3     1  NZS1       -0.4714
      4  S1        24.7480   13.3740   19.1170 S.O2    1  NZS1       -0.0065
      5  C2        21.3180   12.6390   23.4360 C.2     1  NZS1        0.2061
      6  N2        21.7520   14.6770   21.7250 N.2     1  NZS1       -0.3147
      7  O2        26.1040   13.8030   18.9240 O.2     1  NZS1       -0.1729
      8  C3        22.7980   13.9930   22.2410 C.1     1  NZS1        0.2048
      9  N3        19.3710   11.7730   24.2500 N.2     1  NZS1       -0.1783
     10  O3        24.2840   12.6810   17.9470 O.2     1  NZS1       -0.1729
     11  C4        20.4760   14.3700   22.0540 C.2     1  NZS1        0.2072
     12  N4        20.7790   11.7110   24.2300 N.pl3   1  NZS1       -0.1853
     13  C5        18.9940   12.7870   23.4330 C.2     1  NZS1        0.1083
     14  N5        19.4370   15.0680   21.5270 N.pl3   1  NZS1       -0.1857
     15  C6        21.3750   10.6480   25.0770 C.3     1  NZS1        0.1422
     16  N6        24.1190   14.3450   21.8870 N.pl3   1  NZS1       -0.2305
     17  C7        19.4420   16.4260   21.4820 C.ar    1  NZS1        0.0758
     18  C8        20.6500   17.1030   21.6100 C.ar    1  NZS1        0.0535
     19  C9        20.7970   18.4000   21.1360 C.ar    1  NZS1        0.1400
     20  C10       19.7230   19.0400   20.5300 C.ar    1  NZS1        0.0370
     21  C11       18.5090   18.3750   20.4030 C.ar    1  NZS1        0.0044
     22  C12       18.3700   17.0750   20.8780 C.ar    1  NZS1        0.0168
     23  C13       22.2070   20.3170   20.6690 C.3     1  NZS1        0.2525
     24  C14       24.9850   13.1640   21.6880 C.3     1  NZS1        0.1285
     25  C15       24.6420   12.3710   20.4330 C.3     1  NZS1        0.1730
     26  C16       23.7740   14.6820   19.4190 C.3     1  NZS1        0.1730
     27  C17       24.1470   15.3060   20.7620 C.3     1  NZS1        0.1285
@<TRIPOS>BOND
     1    10     4    2
     2     7     4    2
     3     4    26    1
     4     4    25    1
     5    26    27    1
     6    21    20   ar
     7    21    22   ar
     8    25    24    1
     9    20    19   ar
    10    23     3    1
    11    27    16    1
    12    22    17   ar
    13    19     3    1
    14    19    18   ar
    15    17    14    1
    16    17    18   ar
    17    14    11    1
    18    24    16    1
    19     6    11    2
    20     6     8    2
    21    16     8    1
    22    11     1    1
    23     8     2    2
    24     1    13    1
    25     1     5    1
    26     2     5    2
    27    13     9    2
    28     5    12    1
    29    12     9    1
    30    12    15    1
