@<TRIPOS>MOLECULE
3nzu_NZU_A_1.pdb
 27 30 0 0 0
SMALL
GASTEIGER

@<TRIPOS>ATOM
      1  C1        21.5420   11.5970   24.5420 C.3     1  NZU1        0.1422
      2  N2        20.7140   12.6420   24.0130 N.pl3   1  NZU1       -0.1854
      3  C3        21.0970   13.5410   23.1190 C.2     1  NZU1        0.2048
      4  C4        20.0210   14.3560   22.8790 C.3     1  NZU1        0.1810
      5  C5        18.9940   13.8830   23.6880 C.2     1  NZU1        0.1083
      6  N6        19.4090   12.8700   24.3370 N.2     1  NZU1       -0.1783
      7  C7        20.1750   15.3930   21.9680 C.2     1  NZU1        0.2018
      8  N8        21.3190   15.5330   21.3870 N.2     1  NZU1       -0.3271
      9  C9        22.2960   14.7290   21.6540 C.1     1  NZU1        0.1366
     10  N10       22.2030   13.7600   22.4870 N.2     1  NZU1       -0.3269
     11  C11       23.5600   14.9030   20.9700 C.2     1  NZU1        0.0745
     12  C12       23.6500   15.7670   19.9200 C.2     1  NZU1        0.0085
     13  C13       24.8340   15.9310   19.2580 C.2     1  NZU1        0.0017
     14  C14       25.9340   15.2300   19.6260 C.2     1  NZU1        0.0172
     15  C15       25.8590   14.3430   20.6690 C.2     1  NZU1        0.0907
     16  C16       24.6720   14.1660   21.3510 C.3     1  NZU1        0.1187
     17  C17       24.9040   13.2200   22.3400 C.2     1  NZU1        0.1065
     18  N18       26.1250   12.8470   22.2660 N.2     1  NZU1       -0.1507
     19  N19       26.7500   13.5240   21.2470 N.2     1  NZU1       -0.1519
     20  N21       19.1620   16.2590   21.6950 N.pl3   1  NZU1       -0.2120
     21  C22       19.1910   17.1660   20.5620 C.3     1  NZU1        0.1164
     22  C23       18.2690   18.3500   20.8660 C.3     1  NZU1        0.0487
     23  C24       19.0340   19.4770   21.5640 C.3     1  NZU1        0.1527
     24  S25       18.1190   21.0380   21.6230 S.O2    1  NZU1       -0.0082
     25  O26       17.2840   21.0390   22.7250 O.2     1  NZU1       -0.1729
     26  O27       19.0020   22.1080   21.5060 O.2     1  NZU1       -0.1729
     27  C28       17.1450   20.8970   20.1250 C.3     1  NZU1        0.1760
@<TRIPOS>BOND
     1    13    14    2
     2    13    12    1
     3    14    15    1
     4    12    11    2
     5    27    24    1
     6    21    22    1
     7    21    20    1
     8    15    19    2
     9    15    16    1
    10    22    23    1
    11    11    16    1
    12    11     9    1
    13    19    18    1
    14    16    17    1
    15     8     9    2
    16     8     7    2
    17    26    24    2
    18    23    24    1
    19    24    25    2
    20     9    10    2
    21    20     7    1
    22     7     4    1
    23    18    17    2
    24    10     3    2
    25     4     3    1
    26     4     5    1
    27     3     2    1
    28     5     6    2
    29     2     6    1
    30     2     1    1
