@<TRIPOS>MOLECULE
3o01_DXC_B_1.pdb
 28 31 0 0 0
SMALL
GASTEIGER

@<TRIPOS>ATOM
      1  C1        87.4640   27.7860  -12.4840 C.3     1  DXC1        0.1520
      2  C2        87.5150   28.7980  -11.3490 C.3     1  DXC1        0.0329
      3  C3        88.4880   28.4730  -10.2020 C.3     1  DXC1        0.0025
      4  C4        88.3810   27.0380   -9.6470 C.3     1  DXC1        0.0002
      5  C5        88.3010   26.0550  -10.8170 C.3     1  DXC1        0.0026
      6  C6        87.2450   26.3970  -11.8860 C.3     1  DXC1        0.0329
      7  C7        88.3910   29.5300   -9.0700 C.3     1  DXC1        0.0001
      8  C8        87.1340   29.4150   -8.1790 C.3     1  DXC1        0.0000
      9  C9        86.9710   27.9770   -7.6710 C.3     1  DXC1        0.0002
     10  C10       87.1080   26.9180   -8.7830 C.3     1  DXC1        0.0025
     11  C11       85.6490   27.7320   -6.9240 C.3     1  DXC1        0.0024
     12  C12       85.5740   26.3660   -6.2420 C.3     1  DXC1        0.0282
     13  C13       85.6550   25.3410   -7.4190 C.3     1  DXC1        0.1519
     14  C14       86.9480   25.4900   -8.2170 C.3     1  DXC1        0.0329
     15  C15       85.1810   28.7220   -5.8690 C.3     1  DXC1        0.0001
     16  C16       84.1660   27.9450   -5.0500 C.3     1  DXC1        0.0001
     17  C17       84.2060   26.5120   -5.5620 C.3     1  DXC1        0.0024
     18  C18       89.6750   26.6650   -8.8820 C.3     1  DXC1        0.0000
     19  C19       83.8030   25.4730   -4.4950 C.3     1  DXC1        0.0006
     20  O1        84.5690   25.4870   -8.3730 O.3     1  DXC1       -0.2232
     21  O2        86.3090   28.0700  -13.2940 O.3     1  DXC1       -0.2232
     22  C20       86.7380   26.1120   -5.2520 C.3     1  DXC1        0.0025
     23  C21       82.4710   25.8000   -3.8050 C.3     1  DXC1        0.0118
     24  C22       82.2220   24.9050   -2.5840 C.3     1  DXC1        0.1141
     25  C23       80.9260   25.3460   -1.9590 C.2     1  DXC1        0.3649
     26  O3        80.9210   26.3660   -1.2580 O.co2   1  DXC1       -0.2457
     27  O4        79.8820   24.7310   -2.2220 O.co2   1  DXC1       -0.2457
     28  C24       83.7840   24.0300   -5.0490 C.3     1  DXC1        0.0000
@<TRIPOS>BOND
     1    21     1    1
     2     1     6    1
     3     1     2    1
     4     6     5    1
     5     2     3    1
     6     5     4    1
     7     3     4    1
     8     3     7    1
     9     4    18    1
    10     4    10    1
    11     7     8    1
    12    10    14    1
    13    10     9    1
    14    20    13    1
    15    14    13    1
    16     8     9    1
    17     9    11    1
    18    13    12    1
    19    11    12    1
    20    11    15    1
    21    12    17    1
    22    12    22    1
    23    15    16    1
    24    17    16    1
    25    17    19    1
    26    28    19    1
    27    19    23    1
    28    23    24    1
    29    24    25    1
    30    27    25   ar
    31    25    26   ar
