@<TRIPOS>MOLECULE
3o02_JN3_B_1.pdb
 28 31 0 0 0
SMALL
GASTEIGER

@<TRIPOS>ATOM
      1  C1        12.5510  -27.3450   10.4810 C.3     1  JN31        0.0026
      2  C2        13.5580  -27.3320   11.6410 C.3     1  JN31        0.0329
      3  C3        13.6160  -25.9950   12.3750 C.3     1  JN31        0.1520
      4  O3        14.8160  -25.9860   13.1740 O.3     1  JN31       -0.2232
      5  C4        13.6880  -24.8240   11.4130 C.3     1  JN31        0.0330
      6  C5        12.7590  -24.8360   10.1760 C.3     1  JN31        0.0050
      7  C6        13.1100  -23.6600    9.2150 C.3     1  JN31        0.0330
      8  C7        14.3640  -23.8600    8.3290 C.3     1  JN31        0.1519
      9  O7        15.5860  -23.8150    9.1070 O.3     1  JN31       -0.2232
     10  C8        14.2410  -25.2200    7.6320 C.3     1  JN31        0.0307
     11  C9        13.9500  -26.4190    8.5880 C.3     1  JN31        0.0025
     12  C10       12.6830  -26.2010    9.4570 C.3     1  JN31        0.0003
     13  C11       13.9070  -27.7290    7.7720 C.3     1  JN31        0.0004
     14  C12       15.1850  -27.9910    6.9640 C.3     1  JN31        0.0037
     15  C13       15.3630  -26.8810    5.9170 C.3     1  JN31        0.0147
     16  C14       15.3200  -25.5350    6.6110 C.3     1  JN31        0.0062
     17  C15       16.2890  -24.5370    5.9950 C.3     1  JN31        0.0047
     18  C16       16.9460  -25.4070    4.9400 C.3     1  JN31        0.0214
     19  C17       16.6090  -26.7240    5.0630 C.2     1  JN31       -0.0527
     20  C18       14.2040  -26.9850    4.8900 C.3     1  JN31        0.0040
     21  C19       11.4130  -26.3220    8.5500 C.3     1  JN31        0.0000
     22  C20       17.2430  -27.6980    4.3620 C.2     1  JN31       -0.0512
     23  C21       16.8800  -29.1860    4.4630 C.3     1  JN31        0.0257
     24  C22       18.4490  -27.2720    3.5330 C.3     1  JN31        0.0332
     25  C23       18.7110  -28.1570    2.3190 C.3     1  JN31        0.1184
     26  O25       20.8440  -28.5810    1.3950 O.co2   1  JN31       -0.2456
     27  C24       20.0200  -27.7160    1.7060 C.2     1  JN31        0.3652
     28  O26       20.2580  -26.4950    1.5460 O.co2   1  JN31       -0.2456
@<TRIPOS>BOND
     1    26    27   ar
     2    28    27   ar
     3    27    25    1
     4    25    24    1
     5    24    22    1
     6    22    23    1
     7    22    19    2
     8    20    15    1
     9    18    19    1
    10    18    17    1
    11    19    15    1
    12    15    16    1
    13    15    14    1
    14    17    16    1
    15    16    10    1
    16    14    13    1
    17    10     8    1
    18    10    11    1
    19    13    11    1
    20     8     9    1
    21     8     7    1
    22    21    12    1
    23    11    12    1
    24     7     6    1
    25    12     6    1
    26    12     1    1
    27     6     5    1
    28     1     2    1
    29     5     3    1
    30     2     3    1
    31     3     4    1
