@<TRIPOS>MOLECULE
3o03_NAP_A_1.pdb
 48 52 0 0 0
SMALL
GASTEIGER

@<TRIPOS>ATOM
      1  PA        11.7450   18.3730   13.5190 P.3   273  NAP273      0.2189
      2  O1A       12.9920   17.6100   13.2690 O.3   273  NAP273     -0.4371
      3  O2A       10.5280   18.3620   12.6560 O.2   273  NAP273     -0.5170
      4  O5B       11.1300   17.1520   14.4440 O.3   273  NAP273     -0.3112
      5  C5B        9.8480   17.3000   15.1360 C.3   273  NAP273      0.1813
      6  C4B        9.4270   16.0620   15.8840 C.3   273  NAP273      0.1820
      7  O4B        8.4870   15.3990   14.9710 O.3   273  NAP273     -0.3136
      8  C3B       10.5740   15.0450   16.1540 C.3   273  NAP273      0.2157
      9  O3B       10.6000   14.6310   17.5390 O.3   273  NAP273     -0.2175
     10  C2B       10.1920   13.8840   15.2180 C.3   273  NAP273      0.2314
     11  O2B       10.7480   12.6130   15.6050 O.3   273  NAP273     -0.2630
     12  C1B        8.6560   13.9750   15.2240 C.3   273  NAP273      0.3158
     13  N9A        8.0400   13.1320   14.1340 N.pl3 273  NAP273     -0.1439
     14  C8A        8.4950   13.0050   12.8790 C.3   273  NAP273      0.3377
     15  N7A        7.6880   12.1890   12.1750 N.2   273  NAP273     -0.2095
     16  C5A        6.7270   11.7840   13.0090 C.2   273  NAP273      0.2526
     17  C6A        5.6320   10.9390   12.8500 C.2   273  NAP273      0.4393
     18  N6A        5.4180   10.3490   11.6660 N.pl3 273  NAP273      0.2180
     19  N1A        4.8240   10.7330   13.9140 N.2   273  NAP273      0.0021
     20  C2A        5.0530   11.3150   15.0910 C.3   273  NAP273      0.5254
     21  N3A        6.1010   12.1400   15.2800 N.2   273  NAP273     -0.0055
     22  C4A        6.9430   12.3850   14.2500 C.2   273  NAP273      0.3518
     23  O3        11.6890   19.2770   14.9220 O.3   273  NAP273     -0.2703
     24  PN        12.0220   20.9080   14.9870 P.3   273  NAP273      0.2189
     25  O1N       13.1410   21.2950   14.0900 O.2   273  NAP273     -0.5170
     26  O2N       12.1070   21.2550   16.4160 O.3   273  NAP273     -0.4371
     27  O5D       10.6970   21.5730   14.2910 O.3   273  NAP273     -0.3112
     28  C5D        9.3580   21.1130   14.5220 C.3   273  NAP273      0.1813
     29  C4D        8.3770   21.8280   13.5890 C.3   273  NAP273      0.1799
     30  O4D        8.8950   23.1700   13.2830 O.3   273  NAP273     -0.3327
     31  C3D        8.2620   21.0520   12.2480 C.3   273  NAP273      0.2158
     32  O3D        6.9270   21.1410   11.7260 O.3   273  NAP273     -0.2175
     33  C2D        9.2400   21.8130   11.3610 C.3   273  NAP273      0.2309
     34  O2D        8.9240   21.5770    9.9790 O.3   273  NAP273     -0.2158
     35  C1D        8.9940   23.2660   11.8210 C.3   273  NAP273      0.2263
     36  N1N       10.0300   24.2970   11.5370 N.pl3 273  NAP273     -0.2787
     37  C2N       11.3510   24.1360   12.0060 C.3   273  NAP273      0.1244
     38  C3N       12.3090   25.1180   11.7260 C.2   273  NAP273      0.0544
     39  C7N       13.7250   24.9170   12.2740 C.2   273  NAP273      0.2818
     40  O7N       13.9840   23.9670   13.2210 O.2   273  NAP273     -0.2670
     41  N7N       14.6730   25.7150   11.7900 N.am  273  NAP273     -0.0839
     42  C4N       11.9710   26.2610   10.9750 C.2   273  NAP273      0.0033
     43  C5N       10.6590   26.4130   10.4960 C.2   273  NAP273      0.0157
     44  C6N        9.6840   25.4480   10.7750 C.2   273  NAP273      0.0633
     45  P2B       12.2940   12.3140   14.9000 P.3   273  NAP273      0.5328
     46  O1X       12.3860   10.6850   14.6200 O.3   273  NAP273     -0.1145
     47  O2X       13.4620   12.7100   15.9880 O.3   273  NAP273     -0.1145
     48  O3X       12.5200   13.0890   13.6100 O.2   273  NAP273     -0.2224
@<TRIPOS>BOND
     1    34    33    1
     2    43    44    2
     3    43    42    1
     4    44    36    1
     5    42    38    2
     6    33    35    1
     7    33    31    1
     8    36    35    1
     9    36    37    1
    10    18    17    1
    11    38    37    1
    12    38    39    1
    13    32    31    1
    14    41    39   am
    15    35    30    1
    16    15    14    1
    17    15    16    2
    18    31    29    1
    19    39    40    2
    20     3     1    2
    21    17    16    1
    22    17    19    2
    23    14    13    1
    24    16    22    1
    25     2     1    1
    26    30    29    1
    27     1     4    1
    28     1    23    1
    29    29    28    1
    30    48    45    2
    31    19    20    1
    32    25    24    2
    33    13    22    1
    34    13    12    1
    35    22    21    2
    36    27    28    1
    37    27    24    1
    38     4     5    1
    39    46    45    1
    40    45    11    1
    41    45    47    1
    42    23    24    1
    43     7    12    1
    44     7     6    1
    45    24    26    1
    46    20    21    1
    47     5     6    1
    48    10    12    1
    49    10    11    1
    50    10     8    1
    51     6     8    1
    52     8     9    1
