@<TRIPOS>MOLECULE
3o03_GCO_A_1.pdb
 13 12 0 0 0
SMALL
GASTEIGER

@<TRIPOS>ATOM
      1  C1        16.6990   23.9410    4.2980 C.2   274  GCO274      0.3973
      2  C2        15.4280   24.7130    4.6760 C.3   274  GCO274      0.2865
      3  C3        15.5220   25.2310    6.1250 C.3   274  GCO274      0.2264
      4  C4        14.2550   25.9820    6.4770 C.3   274  GCO274      0.2230
      5  C5        13.4810   25.4250    7.6850 C.3   274  GCO274      0.2486
      6  C6        12.0420   25.8960    7.5100 C.2   274  GCO274      0.2427
      7  O11       17.4380   23.5330    5.2240 O.co2 274  GCO274     -0.2427
      8  O12       16.9010   23.7680    3.0850 O.co2 274  GCO274     -0.2427
      9  O2        15.2330   25.8010    3.7570 O.3   274  GCO274     -0.2080
     10  O3        16.6370   26.1330    6.2870 O.3   274  GCO274     -0.2169
     11  O4        14.5930   27.3620    6.7000 O.3   274  GCO274     -0.2171
     12  O5        13.5100   23.9900    7.7580 O.3   274  GCO274     -0.2118
     13  O6        11.0770   25.2680    7.9380 O.2   274  GCO274     -0.2854
@<TRIPOS>BOND
     1     8     1   ar
     2     9     2    1
     3     1     2    1
     4     1     7   ar
     5     2     3    1
     6     3    10    1
     7     3     4    1
     8     4    11    1
     9     4     5    1
    10     6     5    1
    11     6    13    2
    12     5    12    1
