@<TRIPOS>MOLECULE
3o05_PLP_A_1.pdb
 16 16 0 0 0
SMALL
GASTEIGER

@<TRIPOS>ATOM
      1  N1       -26.4540   27.3780   -9.0030 N.2     1  PLP1       -0.2764
      2  C2       -25.5450   27.1500   -8.0260 C.2     1  PLP1        0.0623
      3  C2A      -24.2170   26.6700   -8.4130 C.3     1  PLP1        0.0495
      4  C3       -25.8370   27.3480   -6.7110 C.3     1  PLP1        0.1945
      5  O3       -24.8800   27.2650   -5.7760 O.3     1  PLP1       -0.2166
      6  C4       -27.0720   27.7460   -6.3290 C.3     1  PLP1        0.1050
      7  C4A      -27.6650   26.9460   -5.1900 C.2     1  PLP1        0.2101
      8  O4A      -27.5790   27.2140   -3.9820 O.2     1  PLP1       -0.2882
      9  C5       -27.9610   27.9930   -7.3430 C.3     1  PLP1        0.0648
     10  C6       -27.6960   27.8060   -8.6620 C.3     1  PLP1        0.1278
     11  C5A      -29.0550   28.9410   -7.0560 C.3     1  PLP1        0.1562
     12  O4P      -29.7610   28.9630   -8.2150 O.3     1  PLP1       -0.2702
     13  P        -31.2350   29.0570   -7.9530 P.3     1  PLP1        0.5326
     14  O1P      -31.7210   27.7160   -7.9620 O.3     1  PLP1       -0.1145
     15  O2P      -31.7570   29.8960   -8.9660 O.2     1  PLP1       -0.2224
     16  O3P      -31.4350   29.6500   -6.6750 O.3     1  PLP1       -0.1145
@<TRIPOS>BOND
     1     1    10    1
     2     1     2    2
     3    15    13    2
     4    10     9    1
     5     3     2    1
     6    12    13    1
     7    12    11    1
     8     2     4    1
     9    14    13    1
    10    13    16    1
    11     9    11    1
    12     9     6    1
    13     4     6    1
    14     4     5    1
    15     6     7    1
    16     7     8    2
