@<TRIPOS>MOLECULE
3o07_1GP_A_1.pdb
 10 9 0 0 0
SMALL
GASTEIGER

@<TRIPOS>ATOM
      1  C3       -30.2110  -42.8170   -3.8420 C.3     1  1GP1        0.2174
      2  O3       -28.1880  -43.7830   -3.0170 O.3     1  1GP1       -0.2176
      3  C2       -28.9860  -42.6220   -2.9570 C.3     1  1GP1        0.2147
      4  O2       -29.8390  -42.7210   -5.2030 O.3     1  1GP1       -0.2175
      5  C1       -29.4130  -42.3840   -1.5110 C.3     1  1GP1        0.1892
      6  O1P      -30.1670  -41.1950   -1.4030 O.3     1  1GP1       -0.2674
      7  O2P      -32.5550  -40.3280   -1.1240 O.2     1  1GP1       -0.2224
      8  O3P      -31.0770  -40.3570    0.8460 O.3     1  1GP1       -0.1145
      9  O4P      -31.9490  -42.4690   -0.0840 O.3     1  1GP1       -0.1145
     10  P        -31.4470  -41.0840   -0.4230 P.3     1  1GP1        0.5327
@<TRIPOS>BOND
     1     4     1    1
     2     1     3    1
     3     2     3    1
     4     3     5    1
     5     5     6    1
     6     6    10    1
     7     7    10    2
     8    10     9    1
     9    10     8    1
