@<TRIPOS>MOLECULE
3o0f_AMP_A_1.pdb
 23 25 0 0 0
SMALL
GASTEIGER

@<TRIPOS>ATOM
      1  P         20.5330   25.5140    3.4020 P.3   301  AMP301      0.5327
      2  O1P       21.0880   26.4750    4.3890 O.3   301  AMP301     -0.1145
      3  O2P       20.0440   24.2820    4.1180 O.3   301  AMP301     -0.1145
      4  O3P       19.5210   26.1110    2.4220 O.2   301  AMP301     -0.2224
      5  O5'       21.7720   25.0210    2.5080 O.3   301  AMP301     -0.2675
      6  C5'       22.4170   25.9210    1.6410 C.3   301  AMP301      0.1860
      7  C4'       23.8870   25.7920    1.9000 C.3   301  AMP301      0.1823
      8  O4'       24.4600   24.6080    1.2810 O.3   301  AMP301     -0.3135
      9  C3'       24.6380   27.0030    1.3570 C.3   301  AMP301      0.2184
     10  O3'       25.0550   27.8080    2.4520 O.3   301  AMP301     -0.2174
     11  C2'       25.8300   26.2880    0.7440 C.3   301  AMP301      0.2570
     12  O2'       26.9340   26.9470    0.1230 O.3   301  AMP301     -0.2130
     13  C1'       25.8650   24.8520    1.2470 C.3   301  AMP301      0.3186
     14  N9        26.6110   23.9430    0.3570 N.pl3 301  AMP301     -0.1439
     15  C8        27.4200   22.9680    0.7780 C.3   301  AMP301      0.3377
     16  N7        27.9450   22.3080   -0.2760 N.2   301  AMP301     -0.2095
     17  C5        27.4650   22.8680   -1.3980 C.2   301  AMP301      0.2526
     18  C6        27.6210   22.6560   -2.8470 C.2   301  AMP301      0.4393
     19  N6        28.4370   21.6710   -3.3450 N.pl3 301  AMP301      0.2180
     20  N1        26.9100   23.4630   -3.6600 N.2   301  AMP301      0.0021
     21  C2        26.0940   24.4370   -3.2200 C.3   301  AMP301      0.5254
     22  N3        25.9140   24.6880   -1.9160 N.2   301  AMP301     -0.0055
     23  C4        26.5710   23.9540   -0.9770 C.2   301  AMP301      0.3518
@<TRIPOS>BOND
     1    20    21    1
     2    20    18    2
     3    19    18    1
     4    21    22    1
     5    18    17    1
     6    22    23    2
     7    17    23    1
     8    17    16    2
     9    23    14    1
    10    16    15    1
    11    12    11    1
    12    14    15    1
    13    14    13    1
    14    11    13    1
    15    11     9    1
    16    13     8    1
    17     8     7    1
    18     9     7    1
    19     9    10    1
    20     6     7    1
    21     6     5    1
    22     4     1    2
    23     5     1    1
    24     1     3    1
    25     1     2    1
