@<TRIPOS>MOLECULE
3o0g_3O0_B_1.pdb
 25 27 0 0 0
SMALL
GASTEIGER

@<TRIPOS>ATOM
      1 CLA        -3.5840   67.0120   61.6530 Cl    293  3O0293     -0.0822
      2  NAA       -7.4780   58.5100   57.2400 N.pl3 293  3O0293     -0.0965
      3  CAC       -6.8320   59.0240   63.8580 C.ar  293  3O0293      0.0018
      4  CAD       -6.9870   59.0860   62.4710 C.ar  293  3O0293      0.0030
      5  CAE       -6.8760   57.9330   61.7000 C.ar  293  3O0293      0.0377
      6  CAF       -7.0430   57.9580   60.1840 C.2   293  3O0293      0.1914
      7  CAG       -6.6390   59.2000   59.3770 C.3   293  3O0293      0.1864
      8  CAH       -6.8670   59.4110   58.0110 C.2   293  3O0293      0.2162
      9  NAI       -6.4290   60.6020   57.5390 N.2   293  3O0293     -0.3642
     10  CAJ       -4.2940   64.6470   58.5180 C.ar  293  3O0293      0.0175
     11  CAK       -3.8620   65.7040   59.3170 C.ar  293  3O0293      0.0127
     12  CAL       -4.1280   65.6850   60.6830 C.ar  293  3O0293      0.0578
     13  CAM       -6.5660   57.8000   64.4760 C.ar  293  3O0293      0.0241
     14  CAN       -6.4640   56.6470   63.6980 C.ar  293  3O0293      0.1430
     15  CAO       -6.6230   56.7170   62.3190 C.ar  293  3O0293      0.0270
     16  OAP       -7.5210   56.9810   59.6180 O.2   293  3O0293     -0.2899
     17  SAQ       -5.8600   60.5720   59.9820 S.3   293  3O0293     -0.0494
     18  CAR       -5.8480   61.3800   58.4740 C.2   293  3O0293      0.2328
     19  NAS       -5.3510   62.5970   58.2040 N.pl3 293  3O0293     -0.1781
     20  CAT       -4.9830   63.5610   59.0640 C.ar  293  3O0293      0.0736
     21  CAU       -5.2440   63.5410   60.4430 C.ar  293  3O0293      0.0175
     22  CAV       -4.8180   64.6030   61.2520 C.ar  293  3O0293      0.0127
     23  OAW       -5.9380   55.3250   65.6300 O.2   293  3O0293     -0.1261
     24  NAX       -6.2240   55.4630   64.2350 N.pl3 293  3O0293      0.0577
     25  OAY       -6.2770   54.3090   63.4020 O.2   293  3O0293     -0.1261
@<TRIPOS>BOND
     1     2     8    1
     2     9     8    2
     3     9    18    2
     4     8     7    1
     5    19    18    1
     6    19    20    1
     7    18    17    1
     8    10    20   ar
     9    10    11   ar
    10    20    21   ar
    11    11    12   ar
    12     7    17    1
    13     7     6    1
    14    16     6    2
    15     6     5    1
    16    21    22   ar
    17    12    22   ar
    18    12     1    1
    19     5    15   ar
    20     5     4   ar
    21    15    14   ar
    22     4     3   ar
    23    25    24    2
    24    14    24    1
    25    14    13   ar
    26     3    13   ar
    27    24    23    2
