@<TRIPOS>MOLECULE
3o0i_P54_A_1.pdb
 24 26 0 0 0
SMALL
GASTEIGER

@<TRIPOS>ATOM
      1  C1        -0.0380  -10.7530  -24.5030 C.2   237  P54237      0.2783
      2  C2        -0.8770  -10.1130  -23.5940 C.2   237  P54237      0.2379
      3  C3         1.3120  -10.8500  -24.1780 C.2   237  P54237      0.4466
      4  N4        -0.4230   -9.5960  -22.4380 N.pl3 237  P54237     -0.2359
      5  N5         1.7330  -10.3320  -23.0000 N.2   237  P54237     -0.0316
      6  C6         0.8860   -9.7210  -22.1520 C.3   237  P54237      0.3643
      7  N7        -0.7910  -11.1530  -25.5560 N.2   237  P54237     -0.3226
      8  C8        -2.0310  -10.7290  -25.2330 C.1   237  P54237      0.1741
      9  N9        -2.1460  -10.0940  -24.0560 N.2   237  P54237     -0.3162
     10  S10       -3.4170  -11.0160  -26.2630 S.3   237  P54237      0.0086
     11  N11        2.1970  -11.4570  -25.0100 N.pl3 237  P54237      0.2191
     12  C12       -1.3150   -8.9140  -21.4840 C.3   237  P54237      0.0977
     13  C13       -1.6170   -7.4770  -21.9150 C.3   237  P54237      0.0263
     14  C14       -0.3640   -6.6320  -22.1480 C.3   237  P54237      0.0278
     15  C15       -0.2350   -6.3020  -23.6190 C.2   237  P54237     -0.0261
     16  C16        0.4600   -7.0630  -24.4480 C.2   237  P54237     -0.0049
     17  C17       -4.3570  -12.2030  -25.4570 C.ar  237  P54237      0.0368
     18  C18       -3.7950  -13.3640  -24.8930 C.ar  237  P54237      0.0066
     19  C19       -4.6060  -14.3030  -24.2530 C.ar  237  P54237     -0.0037
     20  C20       -5.9750  -14.1000  -24.1570 C.ar  237  P54237     -0.0221
     21  C21       -5.7380  -12.0150  -25.3550 C.ar  237  P54237     -0.0155
     22  C22       -6.5390  -12.9570  -24.7090 C.ar  237  P54237     -0.0080
     23  C23       -6.4140  -10.7990  -25.9290 C.3   237  P54237      0.0316
     24  C24       -6.8440  -15.1140  -23.4600 C.3   237  P54237      0.0310
@<TRIPOS>BOND
     1    10    17    1
     2    10     8    1
     3    23    21    1
     4     7     8    2
     5     7     1    2
     6    17    21   ar
     7    17    18   ar
     8    21    22   ar
     9     8     9    2
    10    11     3    1
    11    18    19   ar
    12    22    20   ar
    13     1     3    1
    14     1     2    1
    15    16    15    2
    16    19    20   ar
    17     3     5    2
    18    20    24    1
    19     9     2    2
    20    15    14    1
    21     2     4    1
    22     5     6    1
    23     4     6    1
    24     4    12    1
    25    14    13    1
    26    13    12    1
