@<TRIPOS>MOLECULE
3o0j_3OJ_A_1.pdb
 21 23 0 0 0
SMALL
GASTEIGER

@<TRIPOS>ATOM
      1  C1       -43.7030   94.8530  111.8000 C.ar  485  3OJ485      0.0000
      2  C2       -43.9560   94.1650  112.9850 C.ar  485  3OJ485      0.0000
      3  C3       -42.4920   94.7060  111.1380 C.ar  485  3OJ485      0.0000
      4  C4       -42.9780   93.3210  113.5050 C.ar  485  3OJ485      0.0000
      5  C5       -41.5320   93.8660  111.6610 C.ar  485  3OJ485      0.0000
      6  C6       -41.7750   93.1690  112.8340 C.ar  485  3OJ485      0.0000
      7  O7       -45.1700   94.3460  113.6090 O.3   485  3OJ485      0.0000
      8  C8       -46.6980   92.2730  116.8170 C.ar  485  3OJ485      0.0000
      9  C9       -47.1280   91.9700  115.5680 C.ar  485  3OJ485      0.0000
     10  C10      -45.7630   93.2710  117.0310 C.ar  485  3OJ485      0.0000
     11  C11      -46.6460   92.6440  114.4590 C.ar  485  3OJ485      0.0000
     12  C12      -45.2630   93.9610  115.9370 C.ar  485  3OJ485      0.0000
     13  C13      -45.7010   93.6510  114.6560 C.ar  485  3OJ485      0.0000
     14  C14      -48.1360   90.8680  115.6240 C.3   485  3OJ485      0.0000
     15  O15      -48.3510   90.6780  117.0470 O.3   485  3OJ485      0.0000
     16  B16      -47.3620   91.3970  117.8230 B     485  3OJ485      0.0000
     17  O17      -46.3930   90.5160  118.4070 O.3   485  3OJ485      0.0000
     18  C18      -40.2840   93.6960  110.9930 C.1   485  3OJ485      0.0000
     19  C19      -40.7470   92.3170  113.3460 C.1   485  3OJ485      0.0000
     20  N20      -39.2670   93.5640  110.4700 N.1   485  3OJ485      0.0000
     21  N21      -39.9100   91.6200  113.7330 N.1   485  3OJ485      0.0000
@<TRIPOS>BOND
     1    20    18    3
     2    18     5    1
     3     3     5   ar
     4     3     1   ar
     5     5     6   ar
     6     1     2   ar
     7     6    19    1
     8     6     4   ar
     9     2     4   ar
    10     2     7    1
    11    19    21    3
    12     7    13    1
    13    11    13   ar
    14    11     9   ar
    15    13    12   ar
    16     9    14    1
    17     9     8   ar
    18    14    15    1
    19    12    10   ar
    20     8    10   ar
    21     8    16    1
    22    15    16    1
    23    16    17    1
