@<TRIPOS>MOLECULE
3o0m_AMP_A_1.pdb
 23 25 0 0 0
SMALL
GASTEIGER

@<TRIPOS>ATOM
      1  P         -8.8290   41.3220    6.1440 P.3   155  AMP155      0.5327
      2  O1P       -7.6450   42.2400    6.2680 O.3   155  AMP155     -0.1145
      3  O2P      -10.1420   42.0640    6.0480 O.3   155  AMP155     -0.1145
      4  O3P       -8.5730   40.2340    5.1510 O.2   155  AMP155     -0.2224
      5  O5'       -8.8910   40.5510    7.5220 O.3   155  AMP155     -0.2675
      6  C5'       -9.1070   41.3210    8.7200 C.3   155  AMP155      0.1860
      7  C4'       -7.9170   41.2170    9.6560 C.3   155  AMP155      0.1823
      8  O4'       -8.2760   41.8860   10.8630 O.3   155  AMP155     -0.3135
      9  C3'       -7.5430   39.7820   10.0210 C.3   155  AMP155      0.2184
     10  O3'       -6.1230   39.5670    9.9010 O.3   155  AMP155     -0.2174
     11  C2'       -8.0400   39.6370   11.4550 C.3   155  AMP155      0.2570
     12  O2'       -7.2840   38.7220   12.2690 O.3   155  AMP155     -0.2130
     13  C1'       -7.9780   41.0540   11.9800 C.3   155  AMP155      0.3186
     14  N9        -8.9200   41.3440   13.0820 N.pl3 155  AMP155     -0.1439
     15  C8       -10.2320   41.0200   13.1400 C.3   155  AMP155      0.3377
     16  N7       -10.7690   41.4490   14.3050 N.2   155  AMP155     -0.2095
     17  C5        -9.7870   42.0530   15.0010 C.2   155  AMP155      0.2526
     18  C6        -9.6930   42.7320   16.3070 C.2   155  AMP155      0.4393
     19  N6       -10.7930   42.8230   17.0920 N.pl3 155  AMP155      0.2180
     20  N1        -8.4840   43.2240   16.6800 N.2   155  AMP155      0.0021
     21  C2        -7.3990   43.1200   15.8890 C.3   155  AMP155      0.5254
     22  N3        -7.4170   42.5260   14.6820 N.2   155  AMP155     -0.0055
     23  C4        -8.5680   41.9820   14.1920 C.2   155  AMP155      0.3518
@<TRIPOS>BOND
     1     4     1    2
     2     3     1    1
     3     1     2    1
     4     1     5    1
     5     5     6    1
     6     6     7    1
     7     7     9    1
     8     7     8    1
     9    10     9    1
    10     9    11    1
    11     8    13    1
    12    11    13    1
    13    11    12    1
    14    13    14    1
    15    14    15    1
    16    14    23    1
    17    15    16    1
    18    23    22    2
    19    23    17    1
    20    16    17    2
    21    22    21    1
    22    17    18    1
    23    21    20    1
    24    18    20    2
    25    18    19    1
