@<TRIPOS>MOLECULE
3o0n_TTP_A_1.pdb
 29 30 0 0 0
SMALL
GASTEIGER

@<TRIPOS>ATOM
      1  PA       -84.5030  -36.7710  -20.3390 P.3   1001  TTP1001     0.2189
      2  O1A      -83.6790  -36.1840  -19.2310 O.3   1001  TTP1001    -0.4371
      3  O2A      -83.7910  -38.0230  -20.8030 O.2   1001  TTP1001    -0.5170
      4  O3A      -84.7770  -35.7480  -21.5560 O.3   1001  TTP1001    -0.2700
      5  PB       -83.8330  -34.5400  -22.0520 P.3   1001  TTP1001     0.2277
      6  O1B      -83.3340  -34.8350  -23.4540 O.2   1001  TTP1001    -0.5168
      7  O2B      -82.6220  -34.2230  -21.2040 O.3   1001  TTP1001    -0.4368
      8  O3B      -84.9110  -33.3560  -22.0800 O.3   1001  TTP1001    -0.2258
      9  PG       -85.1060  -32.3860  -20.8080 P.3   1001  TTP1001     0.5373
     10  O1G      -86.3780  -31.6210  -21.0690 O.2   1001  TTP1001    -0.2221
     11  O2G      -85.3140  -33.2550  -19.5950 O.3   1001  TTP1001    -0.1143
     12  O3G      -83.9000  -31.5160  -20.5410 O.3   1001  TTP1001    -0.1143
     13  O5'      -86.0440  -37.0920  -19.9900 O.3   1001  TTP1001    -0.3112
     14  C5'      -86.7250  -36.3620  -18.9760 C.3   1001  TTP1001     0.1812
     15  C4'      -88.0880  -36.9680  -18.7020 C.3   1001  TTP1001     0.1773
     16  O4'      -88.8220  -37.1730  -19.9090 O.3   1001  TTP1001    -0.3339
     17  C3'      -87.9600  -38.3170  -18.0150 C.3   1001  TTP1001     0.1857
     18  O3'      -89.0520  -38.3900  -17.0920 O.3   1001  TTP1001    -0.2203
     19  C2'      -88.1880  -39.3220  -19.1300 C.3   1001  TTP1001     0.0874
     20  C1'      -89.1200  -38.5760  -20.0830 C.3   1001  TTP1001     0.2090
     21  N1       -88.9050  -38.9940  -21.4740 N.am  1001  TTP1001    -0.1794
     22  C2       -89.9300  -39.6660  -22.1860 C.1   1001  TTP1001     0.2844
     23  O2       -91.0170  -39.9020  -21.6300 O.2   1001  TTP1001    -0.1918
     24  N3       -89.7640  -40.0590  -23.4600 N.2   1001  TTP1001    -0.2455
     25  C4       -88.6120  -39.8260  -24.0950 C.1   1001  TTP1001     0.2134
     26  O4       -88.4670  -40.1920  -25.2750 O.2   1001  TTP1001    -0.2088
     27  C5       -87.5210  -39.1210  -23.3820 C.2   1001  TTP1001     0.0891
     28  C5M      -86.2100  -38.8370  -24.0600 C.3   1001  TTP1001     0.0462
     29  C6       -87.7300  -38.7310  -22.0650 C.2   1001  TTP1001     0.0877
@<TRIPOS>BOND
     1    26    25    2
     2    25    24    2
     3    25    27    1
     4    28    27    1
     5    24    22    2
     6     6     5    2
     7    27    29    2
     8    22    23    2
     9    22    21   am
    10     8     5    1
    11     8     9    1
    12    29    21    1
    13     5     4    1
    14     5     7    1
    15     4     1    1
    16    21    20    1
    17    10     9    2
    18     9    12    1
    19     9    11    1
    20     3     1    2
    21     1    13    1
    22     1     2    1
    23    20    16    1
    24    20    19    1
    25    13    14    1
    26    16    15    1
    27    19    17    1
    28    14    15    1
    29    15    17    1
    30    17    18    1
