@<TRIPOS>MOLECULE
3o0o_TTP_A_1.pdb
 29 30 0 0 0
SMALL
GASTEIGER

@<TRIPOS>ATOM
      1  PA       -85.4460  -37.1420  -20.5580 P.3   1001  TTP1001     0.2189
      2  O1A      -84.6360  -36.6190  -19.4080 O.3   1001  TTP1001    -0.4371
      3  O2A      -84.7500  -38.4000  -21.0430 O.2   1001  TTP1001    -0.5170
      4  O3A      -85.7900  -36.0690  -21.7220 O.3   1001  TTP1001    -0.2700
      5  PB       -84.8570  -34.8340  -22.2060 P.3   1001  TTP1001     0.2277
      6  O1B      -84.3880  -35.1010  -23.6220 O.2   1001  TTP1001    -0.5168
      7  O2B      -83.6420  -34.5560  -21.3480 O.3   1001  TTP1001    -0.4368
      8  O3B      -85.9120  -33.6410  -22.2320 O.3   1001  TTP1001    -0.2258
      9  PG       -86.0740  -32.6620  -20.9560 P.3   1001  TTP1001     0.5373
     10  O1G      -87.4590  -32.0920  -21.1860 O.2   1001  TTP1001    -0.2221
     11  O2G      -85.9610  -33.4950  -19.7070 O.3   1001  TTP1001    -0.1143
     12  O3G      -84.9990  -31.6140  -20.8630 O.3   1001  TTP1001    -0.1143
     13  O5'      -86.9750  -37.4730  -20.1440 O.3   1001  TTP1001    -0.3112
     14  C5'      -87.6280  -36.7300  -19.1180 C.3   1001  TTP1001     0.1812
     15  C4'      -88.9760  -37.3430  -18.7460 C.3   1001  TTP1001     0.1773
     16  O4'      -89.7650  -37.5640  -19.9210 O.3   1001  TTP1001    -0.3339
     17  C3'      -88.8300  -38.6900  -18.0470 C.3   1001  TTP1001     0.1857
     18  O3'      -89.9400  -38.8900  -17.1400 O.3   1001  TTP1001    -0.2203
     19  C2'      -88.9400  -39.6750  -19.2020 C.3   1001  TTP1001     0.0874
     20  C1'      -89.9720  -38.9920  -20.0920 C.3   1001  TTP1001     0.2090
     21  N1       -89.8130  -39.4050  -21.4980 N.am  1001  TTP1001    -0.1794
     22  C2       -90.8750  -40.0870  -22.1390 C.1   1001  TTP1001     0.2844
     23  O2       -91.9140  -40.3300  -21.4940 O.2   1001  TTP1001    -0.1918
     24  N3       -90.7880  -40.4810  -23.4230 N.2   1001  TTP1001    -0.2455
     25  C4       -89.6840  -40.2290  -24.1330 C.1   1001  TTP1001     0.2134
     26  O4       -89.5990  -40.5950  -25.3170 O.2   1001  TTP1001    -0.2088
     27  C5       -88.5520  -39.5170  -23.4970 C.2   1001  TTP1001     0.0891
     28  C5M      -87.3060  -39.2250  -24.2820 C.3   1001  TTP1001     0.0462
     29  C6       -88.6800  -39.1240  -22.1690 C.2   1001  TTP1001     0.0877
@<TRIPOS>BOND
     1    26    25    2
     2    28    27    1
     3    25    27    1
     4    25    24    2
     5     6     5    2
     6    27    29    2
     7    24    22    2
     8     8     5    1
     9     8     9    1
    10     5     4    1
    11     5     7    1
    12    29    21    1
    13    22    21   am
    14    22    23    2
    15     4     1    1
    16    21    20    1
    17    10     9    2
    18     3     1    2
    19     9    12    1
    20     9    11    1
    21     1    13    1
    22     1     2    1
    23    13    14    1
    24    20    16    1
    25    20    19    1
    26    16    15    1
    27    19    17    1
    28    14    15    1
    29    15    17    1
    30    17    18    1
