@<TRIPOS>MOLECULE
3o0o_GDP_A_1.pdb
 28 30 0 0 0
SMALL
GASTEIGER

@<TRIPOS>ATOM
      1  PB       -89.4490  -63.4380    6.2330 P.3   1003  GDP1003     0.5373
      2  O1B      -89.7530  -63.8670    4.8150 O.2   1003  GDP1003    -0.2221
      3  O2B      -87.9950  -63.7280    6.5360 O.3   1003  GDP1003    -0.1143
      4  O3B      -90.3640  -64.1990    7.1800 O.3   1003  GDP1003    -0.1143
      5  O3A      -89.5860  -61.8380    6.4230 O.3   1003  GDP1003    -0.2261
      6  PA       -90.9200  -60.9430    6.2730 P.3   1003  GDP1003     0.2231
      7  O1A      -91.1800  -60.1530    7.5300 O.3   1003  GDP1003    -0.4370
      8  O2A      -92.1260  -61.7380    5.8390 O.2   1003  GDP1003    -0.5169
      9  O5'      -90.4600  -59.9190    5.1010 O.3   1003  GDP1003    -0.3111
     10  C5'      -90.7310  -58.5160    5.1730 C.3   1003  GDP1003     0.1813
     11  C4'      -89.8470  -57.7630    4.1800 C.3   1003  GDP1003     0.1799
     12  O4'      -88.9450  -58.6660    3.5280 O.3   1003  GDP1003    -0.3326
     13  C3'      -90.6620  -57.1010    3.0790 C.3   1003  GDP1003     0.2158
     14  O3'      -90.9290  -55.7320    3.3870 O.3   1003  GDP1003    -0.2175
     15  C2'      -89.7900  -57.2220    1.8500 C.3   1003  GDP1003     0.2310
     16  O2'      -88.9290  -56.0870    1.7650 O.3   1003  GDP1003    -0.2158
     17  C1'      -88.9440  -58.4510    2.1120 C.3   1003  GDP1003     0.2293
     18  N9       -89.5750  -59.6230    1.4590 N.pl3 1003  GDP1003    -0.2354
     19  C8       -90.4460  -60.4480    2.0710 C.3   1003  GDP1003     0.2246
     20  N7       -90.8650  -61.4280    1.2350 N.2   1003  GDP1003    -0.2322
     21  C5       -90.2530  -61.2320    0.0520 C.2   1003  GDP1003     0.2182
     22  C6       -90.2580  -61.9140   -1.2620 C.1   1003  GDP1003     0.2372
     23  O6       -90.9640  -62.9310   -1.4400 O.2   1003  GDP1003    -0.2069
     24  N1       -89.4900  -61.4120   -2.2380 N.2   1003  GDP1003    -0.2485
     25  C2       -88.7280  -60.3170   -2.0580 C.1   1003  GDP1003     0.2531
     26  N2       -87.9900  -59.8820   -3.1090 N.pl3 1003  GDP1003    -0.0226
     27  N3       -88.6750  -59.6370   -0.8750 N.2   1003  GDP1003    -0.3074
     28  C4       -89.4030  -60.0400    0.1970 C.2   1003  GDP1003     0.2300
@<TRIPOS>BOND
     1    26    25    1
     2    24    25    2
     3    24    22    2
     4    25    27    2
     5    23    22    2
     6    22    21    1
     7    27    28    2
     8    21    28    1
     9    21    20    2
    10    28    18    1
    11    20    19    1
    12    18    19    1
    13    18    17    1
    14    16    15    1
    15    15    17    1
    16    15    13    1
    17    17    12    1
    18    13    14    1
    19    13    11    1
    20    12    11    1
    21    11    10    1
    22     2     1    2
    23     9    10    1
    24     9     6    1
    25     8     6    2
    26     1     5    1
    27     1     3    1
    28     1     4    1
    29     6     5    1
    30     6     7    1
