@<TRIPOS>MOLECULE
3o0q_GDP_A_1.pdb
 28 30 0 0 0
SMALL
GASTEIGER

@<TRIPOS>ATOM
      1  PB       -88.9160  -63.0920    6.1170 P.3   1003  GDP1003     0.5373
      2  O1B      -88.7690  -63.9710    4.8890 O.2   1003  GDP1003    -0.2221
      3  O2B      -87.5420  -62.9280    6.7090 O.3   1003  GDP1003    -0.1143
      4  O3B      -89.8840  -63.7370    7.0860 O.3   1003  GDP1003    -0.1143
      5  O3A      -89.3850  -61.6210    5.6430 O.3   1003  GDP1003    -0.2261
      6  PA       -90.6120  -60.6670    6.0830 P.3   1003  GDP1003     0.2231
      7  O1A      -90.4260  -60.2620    7.5230 O.3   1003  GDP1003    -0.4370
      8  O2A      -91.9600  -61.2590    5.7700 O.2   1003  GDP1003    -0.5169
      9  O5'      -90.3470  -59.3920    5.1140 O.3   1003  GDP1003    -0.3111
     10  C5'      -89.3380  -58.4410    5.4460 C.3   1003  GDP1003     0.1813
     11  C4'      -88.8150  -57.8320    4.1430 C.3   1003  GDP1003     0.1799
     12  O4'      -88.2130  -58.8500    3.3370 O.3   1003  GDP1003    -0.3326
     13  C3'      -89.9460  -57.3080    3.2810 C.3   1003  GDP1003     0.2158
     14  O3'      -90.3180  -55.9940    3.6900 O.3   1003  GDP1003    -0.2175
     15  C2'      -89.3210  -57.3340    1.9000 C.3   1003  GDP1003     0.2310
     16  O2'      -88.4600  -56.1940    1.7730 O.3   1003  GDP1003    -0.2158
     17  C1'      -88.4650  -58.5820    1.9600 C.3   1003  GDP1003     0.2293
     18  N9       -89.2270  -59.7030    1.3790 N.pl3 1003  GDP1003    -0.2354
     19  C8       -90.1840  -60.4290    1.9880 C.3   1003  GDP1003     0.2246
     20  N7       -90.6670  -61.3860    1.1480 N.2   1003  GDP1003    -0.2322
     21  C5       -90.0010  -61.2590   -0.0290 C.2   1003  GDP1003     0.2182
     22  C6       -90.0080  -61.9300   -1.3510 C.1   1003  GDP1003     0.2372
     23  O6       -90.7870  -62.8850   -1.5760 O.2   1003  GDP1003    -0.2069
     24  N1       -89.1480  -61.4840   -2.2880 N.2   1003  GDP1003    -0.2485
     25  C2       -88.2970  -60.4590   -2.0780 C.1   1003  GDP1003     0.2531
     26  N2       -87.4620  -60.0680   -3.0860 N.pl3 1003  GDP1003    -0.0226
     27  N3       -88.2420  -59.7930   -0.8960 N.2   1003  GDP1003    -0.3074
     28  C4       -89.0570  -60.1490    0.1330 C.2   1003  GDP1003     0.2300
@<TRIPOS>BOND
     1    26    25    1
     2    24    25    2
     3    24    22    2
     4    25    27    2
     5    23    22    2
     6    22    21    1
     7    27    28    2
     8    21    28    1
     9    21    20    2
    10    28    18    1
    11    20    19    1
    12    18    17    1
    13    18    19    1
    14    16    15    1
    15    15    17    1
    16    15    13    1
    17    17    12    1
    18    13    14    1
    19    13    11    1
    20    12    11    1
    21    11    10    1
    22     2     1    2
    23     9    10    1
    24     9     6    1
    25     5     6    1
    26     5     1    1
    27     8     6    2
    28     6     7    1
    29     1     3    1
    30     1     4    1
