@<TRIPOS>MOLECULE
3o0q_TTP_A_1.pdb
 29 30 0 0 0
SMALL
GASTEIGER

@<TRIPOS>ATOM
      1  PA       -84.2820  -37.1000  -20.3540 P.3   1001  TTP1001     0.2189
      2  O1A      -83.5970  -36.4380  -19.2070 O.3   1001  TTP1001    -0.4371
      3  O2A      -83.5320  -38.3480  -20.7640 O.2   1001  TTP1001    -0.5170
      4  O3A      -84.5170  -36.1010  -21.5880 O.3   1001  TTP1001    -0.2700
      5  PB       -83.5660  -34.8570  -21.9750 P.3   1001  TTP1001     0.2277
      6  O1B      -83.0690  -35.0860  -23.3930 O.2   1001  TTP1001    -0.5168
      7  O2B      -82.3530  -34.6490  -21.1120 O.3   1001  TTP1001    -0.4368
      8  O3B      -84.5950  -33.6350  -21.9580 O.3   1001  TTP1001    -0.2258
      9  PG       -84.7160  -32.6310  -20.7070 P.3   1001  TTP1001     0.5373
     10  O1G      -86.0670  -31.9800  -20.8750 O.2   1001  TTP1001    -0.2221
     11  O2G      -84.6420  -33.4600  -19.4440 O.3   1001  TTP1001    -0.1143
     12  O3G      -83.6310  -31.5760  -20.7180 O.3   1001  TTP1001    -0.1143
     13  O5'      -85.8120  -37.4540  -19.9920 O.3   1001  TTP1001    -0.3112
     14  C5'      -86.5260  -36.6310  -19.0650 C.3   1001  TTP1001     0.1812
     15  C4'      -87.8750  -37.2560  -18.7350 C.3   1001  TTP1001     0.1773
     16  O4'      -88.5620  -37.5190  -19.9620 O.3   1001  TTP1001    -0.3339
     17  C3'      -87.7200  -38.5920  -18.0290 C.3   1001  TTP1001     0.1857
     18  O3'      -88.7850  -38.7500  -17.0840 O.3   1001  TTP1001    -0.2203
     19  C2'      -87.9370  -39.6150  -19.1190 C.3   1001  TTP1001     0.0874
     20  C1'      -88.9110  -38.9010  -20.0450 C.3   1001  TTP1001     0.2090
     21  N1       -88.7360  -39.3890  -21.4140 N.am  1001  TTP1001    -0.1794
     22  C2       -89.7590  -40.1650  -21.9930 C.1   1001  TTP1001     0.2844
     23  O2       -90.7780  -40.4200  -21.3180 O.2   1001  TTP1001    -0.1918
     24  N3       -89.6480  -40.6490  -23.2450 N.2   1001  TTP1001    -0.2455
     25  C4       -88.5660  -40.3890  -23.9940 C.1   1001  TTP1001     0.2134
     26  O4       -88.4710  -40.8370  -25.1700 O.2   1001  TTP1001    -0.2088
     27  C5       -87.4850  -39.5580  -23.4160 C.2   1001  TTP1001     0.0891
     28  C5M      -86.2470  -39.2510  -24.2250 C.3   1001  TTP1001     0.0462
     29  C6       -87.6250  -39.0810  -22.1110 C.2   1001  TTP1001     0.0877
@<TRIPOS>BOND
     1    26    25    2
     2    28    27    1
     3    25    27    1
     4    25    24    2
     5    27    29    2
     6     6     5    2
     7    24    22    2
     8    29    21    1
     9    22    21   am
    10    22    23    2
    11     5     8    1
    12     5     4    1
    13     5     7    1
    14     8     9    1
    15     4     1    1
    16    21    20    1
    17    10     9    2
    18     3     1    2
    19    12     9    1
    20     9    11    1
    21     1    13    1
    22     1     2    1
    23    20    16    1
    24    20    19    1
    25    13    14    1
    26    16    15    1
    27    19    17    1
    28    14    15    1
    29    15    17    1
    30    17    18    1
