@<TRIPOS>MOLECULE
3o0q_ADN_A_1.pdb
 19 21 0 0 0
SMALL
GASTEIGER

@<TRIPOS>ATOM
      1  O5'      -98.3920  -54.4430    5.6260 O.3   1004  ADN1004    -0.2176
      2  C5'      -97.4960  -55.4920    5.2790 C.3   1004  ADN1004     0.2143
      3  C4'      -98.1870  -56.5830    4.4970 C.3   1004  ADN1004     0.1851
      4  O4'      -99.1920  -55.9880    3.6280 O.3   1004  ADN1004    -0.3134
      5  C3'      -97.2780  -57.3930    3.5820 C.3   1004  ADN1004     0.2186
      6  O3'      -97.8320  -58.6940    3.3930 O.3   1004  ADN1004    -0.2174
      7  C2'      -97.3590  -56.6080    2.2790 C.3   1004  ADN1004     0.2570
      8  O2'      -97.0070  -57.3370    1.1210 O.3   1004  ADN1004    -0.2130
      9  C1'      -98.8300  -56.1880    2.2670 C.3   1004  ADN1004     0.3186
     10  N9       -99.0740  -54.9430    1.5360 N.pl3 1004  ADN1004    -0.1439
     11  C8       -99.8020  -54.7860    0.2960 C.3   1004  ADN1004     0.3377
     12  N7       -99.7060  -53.4810   -0.0840 N.2   1004  ADN1004    -0.2095
     13  C5       -98.9050  -52.7940    0.8920 C.2   1004  ADN1004     0.2526
     14  C6       -98.4740  -51.4080    1.0020 C.2   1004  ADN1004     0.4393
     15  N6       -98.8240  -50.4320   -0.0360 N.pl3 1004  ADN1004     0.2180
     16  N1       -97.6710  -51.0220    2.1060 N.2   1004  ADN1004     0.0021
     17  C2       -97.2810  -51.9770    3.1110 C.3   1004  ADN1004     0.5254
     18  N3       -97.7020  -53.3170    3.0080 N.2   1004  ADN1004    -0.0055
     19  C4       -98.5290  -53.7220    1.8740 C.2   1004  ADN1004     0.3518
@<TRIPOS>BOND
     1    12    11    1
     2    12    13    2
     3    15    14    1
     4    11    10    1
     5    13    14    1
     6    13    19    1
     7    14    16    2
     8     8     7    1
     9    10    19    1
    10    10     9    1
    11    19    18    2
    12    16    17    1
    13     9     7    1
    14     9     4    1
    15     7     5    1
    16    18    17    1
    17     6     5    1
    18     5     3    1
    19     4     3    1
    20     3     2    1
    21     2     1    1
