@<TRIPOS>MOLECULE
3o0r_HEC_C_1.pdb
 43 50 0 0 0
SMALL
GASTEIGER

@<TRIPOS>ATOM
      1 FE         31.4830    2.0190   21.8520 Fe    201  HEC201      0.0000
      2  CHA       29.0910    0.2600   19.9820 C.2   201  HEC201      0.0000
      3  CHB       31.9900   -0.7620   23.6430 C.2   201  HEC201      0.0000
      4  CHC       33.9200    3.7150   23.6900 C.2   201  HEC201      0.0000
      5  CHD       30.8630    4.7690   20.0270 C.2   201  HEC201      0.0000
      6  NA        30.7160    0.1170   21.7790 N.2   201  HEC201      0.0000
      7  C1A       29.7050   -0.3880   21.0140 C.2   201  HEC201      0.0000
      8  C2A       29.3730   -1.6950   21.4420 C.2   201  HEC201      0.0000
      9  C3A       30.1840   -1.9910   22.4660 C.2   201  HEC201      0.0000
     10  C4A       31.0350   -0.8600   22.6690 C.2   201  HEC201      0.0000
     11  CMA       30.2790   -3.2680   23.3220 C.3   201  HEC201      0.0000
     12  CAA       28.2630   -2.5310   20.7880 C.3   201  HEC201      0.0000
     13  CBA       27.1230   -2.4990   21.8020 C.3   201  HEC201      0.0000
     14  CGA       25.7730   -2.8030   21.2100 C.2   201  HEC201      0.0000
     15  O1A       25.5400   -2.6170   20.0030 O.co2 201  HEC201      0.0000
     16  O2A       24.8560   -3.2400   21.9020 O.co2 201  HEC201      0.0000
     17  NB        32.7090    1.6270   23.3580 N.ar  201  HEC201      0.0000
     18  C1B       32.7530    0.3610   23.9310 C.ar  201  HEC201      0.0000
     19  C2B       33.8160    0.3160   24.9000 C.ar  201  HEC201      0.0000
     20  C3B       34.3830    1.5060   24.9530 C.ar  201  HEC201      0.0000
     21  C4B       33.6960    2.3760   23.9750 C.ar  201  HEC201      0.0000
     22  CMB       34.1610   -0.9160   25.7470 C.3   201  HEC201      0.0000
     23  CAB       35.5440    1.7940   25.9360 C.3   201  HEC201      0.0000
     24  CBB       36.9340    1.5240   25.3570 C.3   201  HEC201      0.0000
     25  NC        32.2650    3.8470   21.8610 N.2   201  HEC201      0.0000
     26  C1C       33.2250    4.4090   22.7080 C.2   201  HEC201      0.0000
     27  C2C       33.3330    5.8260   22.3610 C.2   201  HEC201      0.0000
     28  C3C       32.5120    6.0830   21.3510 C.2   201  HEC201      0.0000
     29  C4C       31.8220    4.8560   21.0200 C.2   201  HEC201      0.0000
     30  CMC       34.2610    6.8410   23.0070 C.3   201  HEC201      0.0000
     31  CAC       32.2750    7.4230   20.6190 C.3   201  HEC201      0.0000
     32  CBC       33.3810    7.7110   19.6120 C.3   201  HEC201      0.0000
     33  ND        30.1770    2.4170   20.2560 N.ar  201  HEC201      0.0000
     34  C1D       30.1020    3.6740   19.6640 C.ar  201  HEC201      0.0000
     35  C2D       29.1000    3.6660   18.6010 C.ar  201  HEC201      0.0000
     36  C3D       28.5370    2.2540   18.5810 C.ar  201  HEC201      0.0000
     37  C4D       29.2680    1.5760   19.6310 C.ar  201  HEC201      0.0000
     38  CMD       28.6990    4.8390   17.6990 C.3   201  HEC201      0.0000
     39  CAD       27.4620    1.6870   17.6450 C.3   201  HEC201      0.0000
     40  CBD       28.3290    1.0610   16.5680 C.3   201  HEC201      0.0000
     41  CGD       27.5930    0.4060   15.4320 C.2   201  HEC201      0.0000
     42  O1D       27.8670    0.7780   14.2680 O.co2 201  HEC201      0.0000
     43  O2D       26.7880   -0.5250   15.6600 O.co2 201  HEC201      0.0000
@<TRIPOS>BOND
     1    42    41   ar
     2    41    43   ar
     3    41    40    1
     4    40    39    1
     5    39    36    1
     6    38    35    1
     7    36    35   ar
     8    36    37   ar
     9    35    34   ar
    10    32    31    1
    11    37     2    2
    12    37    33   ar
    13    34     5    2
    14    34    33   ar
    15     2     7    1
    16    15    14   ar
    17     5    29    1
    18    33     1    1
    19    31    28    1
    20    12     8    1
    21    12    13    1
    22     7     8    1
    23     7     6    2
    24    29    28    1
    25    29    25    2
    26    14    13    1
    27    14    16   ar
    28    28    27    2
    29     8     9    2
    30     6     1    1
    31     6    10    1
    32     1    25    1
    33     1    17    1
    34    25    26    1
    35    27    26    1
    36    27    30    1
    37     9    10    1
    38     9    11    1
    39    10     3    2
    40    26     4    2
    41    17    18   ar
    42    17    21   ar
    43     3    18    1
    44     4    21    1
    45    18    19   ar
    46    21    20   ar
    47    19    20   ar
    48    19    22    1
    49    20    23    1
    50    24    23    1
