@<TRIPOS>MOLECULE
3o0r_HEM_B_1.pdb
 43 50 0 0 0
SMALL
GASTEIGER

@<TRIPOS>ATOM
      1  CHA       25.2870   17.9030   26.3340 C.2   801  HEM801      0.0000
      2  CHB       24.3930   19.7760   22.0070 C.2   801  HEM801      0.0000
      3  CHC       23.9650   24.3570   23.9030 C.2   801  HEM801      0.0000
      4  CHD       24.2570   22.2330   28.2250 C.2   801  HEM801      0.0000
      5  C1A       25.0760   18.0330   24.9760 C.ar  801  HEM801      0.0000
      6  C2A       25.1150   16.9310   23.9960 C.ar  801  HEM801      0.0000
      7  C3A       24.8870   17.4610   22.7950 C.ar  801  HEM801      0.0000
      8  C4A       24.6710   18.8830   23.0040 C.ar  801  HEM801      0.0000
      9  CMA       24.8370   16.7040   21.4500 C.3   801  HEM801      0.0000
     10  CAA       25.4190   15.4600   24.2790 C.3   801  HEM801      0.0000
     11  CBA       24.2390   14.5110   24.2240 C.3   801  HEM801      0.0000
     12  CGA       24.7430   13.0450   24.3150 C.2   801  HEM801      0.0000
     13  O1A       24.3690   12.1410   23.5100 O.co2 801  HEM801      0.0000
     14  O2A       25.5620   12.7340   25.2380 O.co2 801  HEM801      0.0000
     15  C1B       24.2350   21.1470   22.1790 C.2   801  HEM801      0.0000
     16  C2B       24.0770   22.0710   21.0800 C.2   801  HEM801      0.0000
     17  C3B       23.9650   23.2720   21.6150 C.2   801  HEM801      0.0000
     18  C4B       24.0700   23.2190   23.0590 C.2   801  HEM801      0.0000
     19  CMB       23.9970   21.7770   19.5600 C.3   801  HEM801      0.0000
     20  CAB       23.7620   24.5570   20.8280 C.3   801  HEM801      0.0000
     21  CBB       22.6180   25.1670   21.0880 C.3   801  HEM801      0.0000
     22  C1C       23.9860   24.2300   25.2490 C.ar  801  HEM801      0.0000
     23  C2C       23.8870   25.2160   26.2930 C.ar  801  HEM801      0.0000
     24  C3C       24.0000   24.5460   27.4420 C.ar  801  HEM801      0.0000
     25  C4C       24.1230   23.1580   27.2150 C.ar  801  HEM801      0.0000
     26  CMC       23.7420   26.7570   26.2260 C.3   801  HEM801      0.0000
     27  CAC       23.9710   25.1300   28.8490 C.3   801  HEM801      0.0000
     28  CBC       22.7640   25.1610   29.3860 C.3   801  HEM801      0.0000
     29  C1D       24.5380   20.8800   28.1390 C.2   801  HEM801      0.0000
     30  C2D       24.5720   19.9700   29.2620 C.2   801  HEM801      0.0000
     31  C3D       24.8900   18.6110   28.6960 C.2   801  HEM801      0.0000
     32  C4D       25.0100   18.8520   27.2780 C.2   801  HEM801      0.0000
     33  CMD       24.3430   20.2590   30.7490 C.3   801  HEM801      0.0000
     34  CAD       25.0320   17.3250   29.5110 C.3   801  HEM801      0.0000
     35  CBD       23.9920   16.3520   28.9720 C.3   801  HEM801      0.0000
     36  CGD       23.5840   15.1250   29.8010 C.2   801  HEM801      0.0000
     37  O1D       22.3310   14.8840   29.8370 O.co2 801  HEM801      0.0000
     38  O2D       24.4550   14.3900   30.3640 O.co2 801  HEM801      0.0000
     39  NA        24.7880   19.2040   24.3400 N.ar  801  HEM801      0.0000
     40  NB        24.2450   21.8510   23.3660 N.2   801  HEM801      0.0000
     41  NC        24.1370   22.9950   25.8600 N.ar  801  HEM801      0.0000
     42  ND        24.7730   20.1760   26.9840 N.2   801  HEM801      0.0000
     43 FE         24.6340   21.0590   25.1420 Fe    801  HEM801      0.0000
@<TRIPOS>BOND
     1    19    16    1
     2    20    21    1
     3    20    17    1
     4    16    17    2
     5    16    15    1
     6     9     7    1
     7    17    18    1
     8     2    15    1
     9     2     8    2
    10    15    40    2
    11     7     8   ar
    12     7     6   ar
    13     8    39   ar
    14    18    40    1
    15    18     3    2
    16    40    43    1
    17    13    12   ar
    18     3    22    1
    19     6    10    1
    20     6     5   ar
    21    11    10    1
    22    11    12    1
    23    12    14   ar
    24    39     5   ar
    25    39    43    1
    26     5     1    2
    27    43    41    1
    28    43    42    1
    29    22    41   ar
    30    22    23   ar
    31    41    25   ar
    32    26    23    1
    33    23    24   ar
    34     1    32    1
    35    42    32    2
    36    42    29    1
    37    25    24   ar
    38    25     4    1
    39    32    31    1
    40    24    27    1
    41    29     4    2
    42    29    30    1
    43    31    30    2
    44    31    34    1
    45    27    28    1
    46    35    34    1
    47    35    36    1
    48    30    33    1
    49    36    37   ar
    50    36    38   ar
