@<TRIPOS>MOLECULE
3o0u_O47_A_1.pdb
 26 27 0 0 0
SMALL
GASTEIGER

@<TRIPOS>ATOM
      1  C1       -17.3600   -0.1580   -5.0420 C.ar  216  O47216      0.0716
      2  C2       -18.5150   -0.8130   -4.6370 C.ar  216  O47216      0.0084
      3  C3       -19.6280   -0.0850   -4.2760 C.ar  216  O47216      0.0536
      4  C4       -19.6180    1.2950   -4.2850 C.ar  216  O47216      0.0067
      5  C5       -18.4780    1.9770   -4.6920 C.ar  216  O47216      0.0268
      6  C6       -17.3440    1.2360   -5.0720 C.ar  216  O47216      0.0061
      7  C7       -16.1990   -1.0290   -5.4520 C.3   216  O47216      0.4186
      8  F8       -16.6100   -1.7560   -6.4570 F     216  O47216     -0.1659
      9  F9       -15.8630   -1.8560   -4.4860 F     216  O47216     -0.1659
     10  F10      -15.1310   -0.3620   -5.8260 F     216  O47216     -0.1659
     11  N11      -17.4840    4.0660   -5.4340 N.2   216  O47216     -0.3426
     12  C12      -18.4630    3.4690   -4.7230 C.2   216  O47216      0.1281
     13  C13      -19.3990    4.2750   -4.0600 C.3   216  O47216      0.1151
     14  C14      -19.3030    5.6590   -4.1290 C.2   216  O47216      0.1062
     15  N15      -18.3150    6.2010   -4.8350 N.2   216  O47216     -0.3470
     16  C16      -17.4160    5.4220   -5.4720 C.1   216  O47216      0.1596
     17  C17      -20.2710    6.6070   -3.4460 C.3   216  O47216      0.0558
     18  C18      -19.5870    7.2530   -2.2320 C.3   216  O47216      0.0071
     19  C19      -20.4860    8.2900   -1.5720 C.3   216  O47216      0.0004
     20  C20      -20.8590   -0.7830   -3.8380 C.2   216  O47216      0.2491
     21  N21      -21.8000   -1.0150   -4.7430 N.am  216  O47216     -0.2726
     22  O22      -20.9530   -1.0960   -2.6600 O.2   216  O47216     -0.2699
     23  C23      -23.0310   -1.6910   -4.3760 C.3   216  O47216      0.1152
     24  C24      -21.6420   -0.6130   -6.1340 C.3   216  O47216      0.1152
     25  C25      -16.3230    6.0590   -6.2210 C.2   216  O47216      0.2183
     26  N26      -16.1570    7.2890   -6.2590 N.2   216  O47216     -0.1325
@<TRIPOS>BOND
     1     8     7    1
     2    26    25    2
     3    25    16    1
     4    24    21    1
     5    10     7    1
     6    16    11    2
     7    16    15    2
     8     7     1    1
     9     7     9    1
    10    11    12    2
    11     6     1   ar
    12     6     5   ar
    13     1     2   ar
    14    15    14    2
    15    21    23    1
    16    21    20   am
    17    12     5    1
    18    12    13    1
    19     5     4   ar
    20     2     3   ar
    21     4     3   ar
    22     3    20    1
    23    14    13    1
    24    14    17    1
    25    20    22    2
    26    17    18    1
    27    18    19    1
