@<TRIPOS>MOLECULE
3o0w_GLC_A_1.pdb
 12 12 0 0 0
SMALL
GASTEIGER

@<TRIPOS>ATOM
      1  C1       -19.2350  -13.5560   18.0130 C.3     4  GLC4        0.3024
      2  C2       -19.2990  -13.3450   19.5350 C.3     4  GLC4        0.2434
      3  C3       -20.2390  -14.3390   20.1990 C.3     4  GLC4        0.2199
      4  C4       -21.5940  -14.2360   19.5200 C.3     4  GLC4        0.2144
      5  C5       -21.4630  -14.5400   18.0270 C.3     4  GLC4        0.1836
      6  C6       -22.8150  -14.4130   17.3390 C.3     4  GLC4        0.2142
      7  O1       -18.4440  -14.7120   17.7220 O.3     4  GLC4       -0.1869
      8  O2       -17.9860  -13.4590   20.0880 O.3     4  GLC4       -0.2148
      9  O3       -20.4060  -14.0350   21.5940 O.3     4  GLC4       -0.2174
     10  O4       -22.5020  -15.1700   20.1030 O.3     4  GLC4       -0.2176
     11  O5       -20.5390  -13.6430   17.4070 O.3     4  GLC4       -0.3236
     12  O6       -22.6180  -14.6760   15.9460 O.3     4  GLC4       -0.2176
@<TRIPOS>BOND
     1    12     6    1
     2     6     5    1
     3    11     1    1
     4    11     5    1
     5     7     1    1
     6     1     2    1
     7     5     4    1
     8     4    10    1
     9     4     3    1
    10     2     8    1
    11     2     3    1
    12     3     9    1
