@<TRIPOS>MOLECULE
3o0w_MAN_A_1.pdb
 11 11 0 0 0
SMALL
GASTEIGER

@<TRIPOS>ATOM
      1  C1       -17.9140  -17.4390   11.6660 C.3     2  MAN2        0.2716
      2  C2       -18.8170  -17.1510   12.8740 C.3     2  MAN2        0.0999
      3  C3       -20.2170  -16.7300   12.4110 C.3     2  MAN2        0.1898
      4  C4       -20.1480  -15.5910   11.4000 C.3     2  MAN2        0.2118
      5  C5       -19.1910  -15.9300   10.2500 C.3     2  MAN2        0.1834
      6  C6       -18.9590  -14.7440    9.3180 C.3     2  MAN2        0.2142
      7  O1       -18.5550  -18.5730   11.1190 O.3     2  MAN2       -0.1898
      8  O3       -21.0560  -16.3320   13.5020 O.3     2  MAN2       -0.2201
      9  O4       -21.4660  -15.3100   10.9040 O.3     2  MAN2       -0.2177
     10  O5       -17.9110  -16.3360   10.7550 O.3     2  MAN2       -0.3255
     11  O6       -18.7550  -13.5420   10.0630 O.3     2  MAN2       -0.2176
@<TRIPOS>BOND
     1     6    11    1
     2     6     5    1
     3     5    10    1
     4     5     4    1
     5    10     1    1
     6     9     4    1
     7     7     1    1
     8     4     3    1
     9     1     2    1
    10     3     2    1
    11     3     8    1
