@<TRIPOS>MOLECULE
3o0x_MAN_A_1.pdb
 11 11 0 0 0
SMALL
GASTEIGER

@<TRIPOS>ATOM
      1  C1        -5.5240    1.3200   29.8030 C.3     1  MAN1        0.2716
      2  C2        -4.4770    1.9460   28.9420 C.3     1  MAN1        0.0999
      3  C3        -4.9290    3.0950   28.0960 C.3     1  MAN1        0.1898
      4  C4        -5.7650    2.3350   27.0700 C.3     1  MAN1        0.2118
      5  C5        -6.8820    1.5980   27.8220 C.3     1  MAN1        0.1834
      6  C6        -7.8260    0.8640   26.8770 C.3     1  MAN1        0.2142
      7  O1        -6.2650    2.3000   30.5390 O.3     1  MAN1       -0.1898
      8  O3        -3.8730    3.8120   27.4640 O.3     1  MAN1       -0.2201
      9  O4        -6.3030    3.2340   26.0930 O.3     1  MAN1       -0.2177
     10  O5        -6.3670    0.6950   28.8290 O.3     1  MAN1       -0.3255
     11  O6        -7.3860   -0.4780   26.6660 O.3     1  MAN1       -0.2176
@<TRIPOS>BOND
     1     9     4    1
     2    11     6    1
     3     6     5    1
     4     4     5    1
     5     4     3    1
     6     8     3    1
     7     5    10    1
     8     3     2    1
     9    10     1    1
    10     2     1    1
    11     1     7    1
