@<TRIPOS>MOLECULE
3o0x_GLC_A_1.pdb
 12 12 0 0 0
SMALL
GASTEIGER

@<TRIPOS>ATOM
      1  C1         5.1420    0.7430   26.6290 C.3     4  GLC4        0.3024
      2  C2         6.2600    0.6630   25.5870 C.3     4  GLC4        0.2434
      3  C3         5.9390   -0.3850   24.5070 C.3     4  GLC4        0.2199
      4  C4         5.6060   -1.7420   25.1370 C.3     4  GLC4        0.2144
      5  C5         4.5020   -1.5830   26.1910 C.3     4  GLC4        0.1836
      6  C6         4.2420   -2.8500   27.0030 C.3     4  GLC4        0.2142
      7  O1         3.9920    1.3980   26.0810 O.3     4  GLC4       -0.1869
      8  O2         6.4610    1.9650   25.0270 O.3     4  GLC4       -0.2148
      9  O3         7.0650   -0.5210   23.6370 O.3     4  GLC4       -0.2174
     10  O4         5.1900   -2.6820   24.1290 O.3     4  GLC4       -0.2176
     11  O5         4.8400   -0.5560   27.1360 O.3     4  GLC4       -0.3236
     12  O6         3.0980   -2.6140   27.8620 O.3     4  GLC4       -0.2176
@<TRIPOS>BOND
     1     9     3    1
     2    10     4    1
     3     3     4    1
     4     3     2    1
     5     8     2    1
     6     4     5    1
     7     2     1    1
     8     7     1    1
     9     5     6    1
    10     5    11    1
    11     1    11    1
    12     6    12    1
