@<TRIPOS>MOLECULE
3o15_3NM_A_1.pdb
 16 16 0 0 0
SMALL
GASTEIGER

@<TRIPOS>ATOM
      1  N          8.6580   41.0630    5.0730 N.2   236  3NM236     -0.3924
      2  P          7.9470   43.2280   11.9360 P.3   236  3NM236      0.5329
      3  S          7.5630   40.2870    7.1910 S.3   236  3NM236     -0.0468
      4  C1         9.2610   43.4730    5.4710 C.3   236  3NM236      0.0670
      5  O1         7.3900   37.6970    5.4600 O.co2 236  3NM236     -0.2371
      6  C2         8.6660   42.1250    5.8840 C.2   236  3NM236      0.1161
      7  O2         8.6130   38.4880    3.7970 O.co2 236  3NM236     -0.2371
      8  C3         8.1080   39.9680    5.5970 C.2   236  3NM236      0.2401
      9  O3         8.0100   43.5620   10.3630 O.3   236  3NM236     -0.2653
     10  C4         8.0260   38.6120    4.8930 C.2   236  3NM236      0.4230
     11  O4         6.8400   42.0690   12.0830 O.2   236  3NM236     -0.2224
     12  C5         8.1020   41.9110    7.1370 C.2   236  3NM236      0.0556
     13  O5         7.3590   44.5350   12.6670 O.3   236  3NM236     -0.1145
     14  C6         8.0230   42.8460    8.1620 C.2   236  3NM236      0.0150
     15  O6         9.2660   42.8160   12.4650 O.3   236  3NM236     -0.1145
     16  C7         7.4690   42.6360    9.4190 C.3   236  3NM236      0.1805
@<TRIPOS>BOND
     1     7    10   ar
     2    10     5   ar
     3    10     8    1
     4     1     8    2
     5     1     6    2
     6     4     6    1
     7     8     3    1
     8     6    12    1
     9    12     3    1
    10    12    14    2
    11    14    16    1
    12    16     9    1
    13     9     2    1
    14     2    11    2
    15     2    15    1
    16     2    13    1
