@<TRIPOS>MOLECULE
3o15_IFP_A_1.pdb
 12 12 0 0 0
SMALL
GASTEIGER

@<TRIPOS>ATOM
      1  N1A       13.2190   39.6410    4.4810 N.2   237  IFP237     -0.1796
      2  C2A       14.1120   40.6430    4.5560 C.1   237  IFP237      0.1609
      3  CM2       15.4340   40.3590    5.2030 C.3   237  IFP237      0.4892
      4  N3A       13.8930   41.8600    4.0980 N.2   237  IFP237     -0.3291
      5  C4A       12.7050   42.2020    3.4960 C.2   237  IFP237      0.2279
      6  N4A       12.5030   43.4270    3.0460 N.pl3 237  IFP237     -0.0925
      7  C5A       11.6490   41.1230    3.3720 C.2   237  IFP237      0.0459
      8  C6A       12.0160   39.7920    3.9250 C.2   237  IFP237      0.1101
      9  C7A       10.4440   41.3410    2.7960 C.3   237  IFP237      0.0369
     10  F1        16.0370   39.2860    4.5410 F     237  IFP237     -0.1566
     11  F2        15.2220   39.9850    6.5260 F     237  IFP237     -0.1566
     12  F3        16.2590   41.4780    5.1230 F     237  IFP237     -0.1566
@<TRIPOS>BOND
     1     9     7    1
     2     6     5    1
     3     7     5    1
     4     7     8    2
     5     5     4    2
     6     8     1    1
     7     4     2    2
     8     1     2    2
     9    10     3    1
    10     2     3    1
    11    12     3    1
    12     3    11    1
