@<TRIPOS>MOLECULE
3o1a_HEM_A_1.pdb
 43 50 0 0 0
SMALL
GASTEIGER

@<TRIPOS>ATOM
      1  CHA        4.1930   25.9750    1.4340 C.2   385  HEM385      0.0000
      2  CHB        8.3500   23.5750    2.1540 C.2   385  HEM385      0.0000
      3  CHC        6.3190   20.9090    5.6460 C.2   385  HEM385      0.0000
      4  CHD        1.9930   22.8110    4.4280 C.2   385  HEM385      0.0000
      5  C1A        5.5150   25.6050    1.3630 C.ar  385  HEM385      0.0000
      6  C2A        6.5460   26.2600    0.5650 C.ar  385  HEM385      0.0000
      7  C3A        7.6940   25.5840    0.7790 C.ar  385  HEM385      0.0000
      8  C4A        7.4200   24.4960    1.7030 C.ar  385  HEM385      0.0000
      9  CMA        9.0830   25.8760    0.1630 C.3   385  HEM385      0.0000
     10  CAA        6.3510   27.5140   -0.3420 C.3   385  HEM385      0.0000
     11  CBA        5.6420   27.1960   -1.6590 C.3   385  HEM385      0.0000
     12  CGA        5.6620   28.3180   -2.6820 C.2   385  HEM385      0.0000
     13  O1A        5.9370   29.5030   -2.3620 O.co2 385  HEM385      0.0000
     14  O2A        5.3950   28.0280   -3.8810 O.co2 385  HEM385      0.0000
     15  C1B        8.1990   22.6720    3.1790 C.2   385  HEM385      0.0000
     16  C2B        9.2530   21.8690    3.7680 C.2   385  HEM385      0.0000
     17  C3B        8.6940   21.1330    4.7340 C.2   385  HEM385      0.0000
     18  C4B        7.2710   21.4410    4.7970 C.2   385  HEM385      0.0000
     19  CMB       10.7570   21.8550    3.3740 C.3   385  HEM385      0.0000
     20  CAB        9.4710   20.1370    5.6140 C.2   385  HEM385      0.0000
     21  CBB        8.8100   19.2500    6.3550 C.2   385  HEM385      0.0000
     22  C1C        4.9600   21.1820    5.6160 C.ar  385  HEM385      0.0000
     23  C2C        3.9320   20.6130    6.4780 C.ar  385  HEM385      0.0000
     24  C3C        2.7630   21.1510    6.1200 C.ar  385  HEM385      0.0000
     25  C4C        2.9910   22.0720    5.0350 C.ar  385  HEM385      0.0000
     26  CMC        4.1350   19.5830    7.6180 C.3   385  HEM385      0.0000
     27  CAC        1.3760   20.8660    6.7270 C.2   385  HEM385      0.0000
     28  CBC        1.0490   21.3440    7.9340 C.2   385  HEM385      0.0000
     29  C1D        2.1470   23.8520    3.5410 C.2   385  HEM385      0.0000
     30  C2D        1.0860   24.6910    3.0110 C.2   385  HEM385      0.0000
     31  C3D        1.7940   25.6680    2.0650 C.2   385  HEM385      0.0000
     32  C4D        3.1980   25.3300    2.1280 C.2   385  HEM385      0.0000
     33  CMD       -0.4390   24.6300    3.2940 C.3   385  HEM385      0.0000
     34  CAD        1.1380   26.7840    1.2310 C.3   385  HEM385      0.0000
     35  CBD        1.1690   28.0590    2.0670 C.3   385  HEM385      0.0000
     36  CGD        0.9290   29.2480    1.1790 C.2   385  HEM385      0.0000
     37  O1D        0.6990   30.3520    1.7290 O.co2 385  HEM385      0.0000
     38  O2D        0.9670   29.0940   -0.0680 O.co2 385  HEM385      0.0000
     39  NA         6.0820   24.5490    2.0490 N.ar  385  HEM385      0.0000
     40  NB         7.0140   22.3840    3.8320 N.2   385  HEM385      0.0000
     41  NC         4.3440   22.0760    4.7540 N.ar  385  HEM385      0.0000
     42  ND         3.3650   24.2630    3.0090 N.2   385  HEM385      0.0000
     43 FE          5.2060   23.3240    3.4700 Fe    385  HEM385      0.0000
@<TRIPOS>BOND
     1    14    12   ar
     2    12    13   ar
     3    12    11    1
     4    11    10    1
     5    10     6    1
     6    38    36   ar
     7     9     7    1
     8     6     7   ar
     9     6     5   ar
    10     7     8   ar
    11    36    37   ar
    12    36    35    1
    13    34    31    1
    14    34    35    1
    15     5     1    2
    16     5    39   ar
    17     1    32    1
    18     8    39   ar
    19     8     2    2
    20    39    43    1
    21    31    32    1
    22    31    30    2
    23    32    42    2
    24     2    15    1
    25    42    43    1
    26    42    29    1
    27    30    33    1
    28    30    29    1
    29    15    16    1
    30    15    40    2
    31    19    16    1
    32    43    40    1
    33    43    41    1
    34    29     4    2
    35    16    17    2
    36    40    18    1
    37     4    25    1
    38    17    18    1
    39    17    20    1
    40    41    25   ar
    41    41    22   ar
    42    18     3    2
    43    25    24   ar
    44    20    21    2
    45    22     3    1
    46    22    23   ar
    47    24    23   ar
    48    24    27    1
    49    23    26    1
    50    27    28    2
