@<TRIPOS>MOLECULE
3o1c_ADN_A_1.pdb
 19 21 0 0 0
SMALL
GASTEIGER

@<TRIPOS>ATOM
      1  O5'       -9.2150  -11.5600  -11.3580 O.3   127  ADN127     -0.2176
      2  C5'       -9.2990  -11.2400  -12.7680 C.3   127  ADN127      0.2143
      3  C4'      -10.5940  -10.5300  -12.8970 C.3   127  ADN127      0.1851
      4  O4'      -10.5880   -9.8450  -14.1250 O.3   127  ADN127     -0.3134
      5  C3'      -11.9050  -11.3410  -12.9330 C.3   127  ADN127      0.2186
      6  O3'      -12.7410  -11.0100  -11.8000 O.3   127  ADN127     -0.2174
      7  C2'      -12.5190  -11.0950  -14.3040 C.3   127  ADN127      0.2570
      8  O2'      -13.8960  -11.1420  -14.3630 O.3   127  ADN127     -0.2130
      9  C1'      -11.9110   -9.7530  -14.6120 C.3   127  ADN127      0.3186
     10  N9       -11.7840   -9.5000  -16.0790 N.pl3 127  ADN127     -0.1439
     11  C8       -11.2490  -10.3240  -17.0210 C.3   127  ADN127      0.3377
     12  N7       -11.2180   -9.6870  -18.1690 N.2   127  ADN127     -0.2095
     13  C5       -11.7340   -8.4620  -18.0080 C.2   127  ADN127      0.2526
     14  C6       -12.0120   -7.3450  -18.8720 C.2   127  ADN127      0.4393
     15  N6       -11.7440   -7.4630  -20.1980 N.pl3 127  ADN127      0.2180
     16  N1       -12.5570   -6.2760  -18.2610 N.2   127  ADN127      0.0021
     17  C2       -12.8810   -6.2560  -16.9870 C.3   127  ADN127      0.5254
     18  N3       -12.7020   -7.2380  -16.0860 N.2   127  ADN127     -0.0055
     19  C4       -12.1410   -8.3180  -16.6520 C.2   127  ADN127      0.3518
@<TRIPOS>BOND
     1    15    14    1
     2    14    16    2
     3    14    13    1
     4    16    17    1
     5    12    13    2
     6    12    11    1
     7    13    19    1
     8    11    10    1
     9    17    18    1
    10    19    18    2
    11    19    10    1
    12    10     9    1
    13     9     7    1
    14     9     4    1
    15     8     7    1
    16     7     5    1
    17     4     3    1
    18     5     3    1
    19     5     6    1
    20     3     2    1
    21     2     1    1
