@<TRIPOS>MOLECULE
3o1d_G72_A_1.pdb
 41 43 0 0 0
SMALL
GASTEIGER

@<TRIPOS>ATOM
      1  C1         2.8720   39.3640   38.8760 C.3     1  G721        0.1586
      2  F1         6.6000   29.6110   34.3110 F       1  G721       -0.1662
      3  O1         4.2390   39.4530   38.4630 O.3     1  G721       -0.2227
      4  C2         2.1000   40.5270   38.2650 C.3     1  G721        0.0664
      5  F2         5.3710   30.4210   32.7270 F       1  G721       -0.1662
      6  O2         0.5370   40.4880   40.1060 O.3     1  G721       -0.2227
      7  C3         0.6340   40.4750   38.6760 C.3     1  G721        0.1586
      8  F3         6.6820   28.7660   32.3460 F       1  G721       -0.1662
      9  O3         5.3520   27.1080   34.1170 O.3     1  G721       -0.1943
     10  C4        -0.0070   39.2080   38.1110 C.3     1  G721        0.0550
     11  F4         3.2420   29.0420   32.0200 F       1  G721       -0.1662
     12  O4         2.7410   25.0090   39.9030 O.3     1  G721       -0.2257
     13  C5         0.8130   37.9910   38.4790 C.2     1  G721       -0.0392
     14  F5         4.7460   27.6490   31.3800 F       1  G721       -0.1662
     15  C6         0.1870   36.8630   38.8540 C.2     1  G721       -0.0090
     16  F6         3.1450   26.9770   32.6510 F       1  G721       -0.1662
     17  C7         0.8830   35.6320   39.2450 C.2     1  G721       -0.0091
     18  C8         0.3080   34.4350   39.0270 C.2     1  G721       -0.0446
     19  C9        -1.0290   34.3340   38.3380 C.3     1  G721        0.0220
     20  C10        2.3190   38.0320   38.3840 C.3     1  G721        0.0550
     21  C11       -0.9460   33.2840   37.2200 C.3     1  G721        0.0044
     22  C12       -0.1970   31.9930   37.5920 C.3     1  G721        0.0006
     23  C13        1.1800   32.3040   38.1680 C.3     1  G721        0.0035
     24  C14        0.9160   33.1180   39.4130 C.3     1  G721        0.0183
     25  C15        2.2280   33.1200   40.1790 C.3     1  G721        0.0040
     26  C16        2.8390   31.7570   39.8390 C.3     1  G721        0.0004
     27  C17        2.0170   31.1410   38.7020 C.3     1  G721        0.0013
     28  C18        2.0200   33.1330   37.2040 C.3     1  G721        0.0003
     29  C20        2.9520   30.4190   37.7260 C.3     1  G721        0.0130
     30  C21        2.2310   29.8380   36.5100 C.3     1  G721        0.0761
     31  C22        3.1720   29.3030   35.4990 C.1     1  G721       -0.0882
     32  C23        3.8860   28.8660   34.6560 C.1     1  G721       -0.0457
     33  C24        4.7730   28.3240   33.6090 C.3     1  G721        0.3508
     34  C25        3.9520   27.9860   32.3790 C.3     1  G721        0.4418
     35  C26        5.8820   29.3120   33.2430 C.3     1  G721        0.4418
     36  C27        3.7320   29.3240   38.4640 C.3     1  G721        0.0011
     37  C28        2.8650   28.2480   39.1220 C.3     1  G721        0.0025
     38  C29        3.7670   27.1860   39.7520 C.3     1  G721        0.0304
     39  C30        3.0330   26.1940   40.6520 C.3     1  G721        0.1268
     40  C31        3.9250   25.7920   41.8200 C.3     1  G721        0.0329
     41  C32        1.7240   26.7680   41.1770 C.3     1  G721        0.0329
@<TRIPOS>BOND
     1    14    34    1
     2    11    34    1
     3     8    35    1
     4    34    16    1
     5    34    33    1
     6     5    35    1
     7    35    33    1
     8    35     2    1
     9    33     9    1
    10    33    32    1
    11    32    31    3
    12    31    30    1
    13    30    29    1
    14    28    23    1
    15    21    22    1
    16    21    19    1
    17    22    23    1
    18    29    36    1
    19    29    27    1
    20    10    13    1
    21    10     7    1
    22    23    27    1
    23    23    24    1
    24     4     7    1
    25     4     1    1
    26    19    18    1
    27    20    13    1
    28    20     1    1
    29     3     1    1
    30    36    37    1
    31    13    15    2
    32     7     6    1
    33    27    26    1
    34    15    17    1
    35    18    17    2
    36    18    24    1
    37    37    38    1
    38    24    25    1
    39    38    39    1
    40    26    25    1
    41    12    39    1
    42    39    41    1
    43    39    40    1
