@<TRIPOS>MOLECULE
3o1e_H97_A_1.pdb
 41 43 0 0 0
SMALL
GASTEIGER

@<TRIPOS>ATOM
      1  C1         2.5920   39.8270   38.6990 C.3     1  H971        0.1586
      2  F1         3.7340   27.2720   32.1910 F       1  H971       -0.1662
      3  O1         3.9740   39.8970   38.3160 O.3     1  H971       -0.2227
      4  C2         1.8760   41.0540   38.1540 C.3     1  H971        0.0664
      5  F2         2.3940   28.2910   33.5460 F       1  H971       -0.1662
      6  O2         0.2910   41.0900   39.9420 O.3     1  H971       -0.2227
      7  C3         0.4040   41.0280   38.5230 C.3     1  H971        0.1586
      8  F3         3.3090   29.4460   31.9610 F       1  H971       -0.1662
      9  O3         5.2020   27.3660   33.9220 O.3     1  H971       -0.1943
     10  C4        -0.3060   39.7710   37.9870 C.3     1  H971        0.0550
     11  F4         5.8020   28.7780   31.6680 F       1  H971       -0.1662
     12  O4         2.3390   25.6380   39.6040 O.3     1  H971       -0.2212
     13  C5         0.4860   38.5200   38.2870 C.2     1  H971       -0.0392
     14  F5         6.8010   29.4680   33.4720 F       1  H971       -0.1662
     15  C6        -0.1540   37.3880   38.6530 C.2     1  H971       -0.0090
     16  F6         5.1760   30.6210   32.4840 F       1  H971       -0.1662
     17  C7         0.5510   36.1350   38.9610 C.2     1  H971       -0.0091
     18  C8        -0.0860   34.9550   38.8690 C.2     1  H971       -0.0446
     19  C9        -1.5260   34.8760   38.4020 C.3     1  H971        0.0220
     20  C10        1.9850   38.5520   38.1290 C.3     1  H971        0.0550
     21  C11       -1.6090   33.9140   37.2110 C.3     1  H971        0.0044
     22  C12       -0.8640   32.5900   37.4150 C.3     1  H971        0.0006
     23  C13        0.5690   32.8290   37.8580 C.3     1  H971        0.0035
     24  C14        0.5420   33.6170   39.1540 C.3     1  H971        0.0183
     25  C15        1.9810   33.5490   39.6460 C.3     1  H971        0.0040
     26  C16        2.4820   32.1920   39.1300 C.3     1  H971        0.0004
     27  C17        1.3640   31.5970   38.2660 C.3     1  H971        0.0016
     28  C18        1.3450   33.6400   36.8240 C.3     1  H971        0.0003
     29  C20        1.8590   30.6880   37.1290 C.3     1  H971        0.0173
     30  C21        3.3720   30.7770   36.9520 C.3     1  H971        0.0764
     31  C22        3.8330   30.0260   35.7760 C.1     1  H971       -0.0882
     32  C23        4.2070   29.4210   34.8270 C.1     1  H971       -0.0457
     33  C24        4.6680   28.6630   33.6460 C.3     1  H971        0.3508
     34  C25        5.6550   29.4320   32.8010 C.3     1  H971        0.4418
     35  C26        3.4670   28.4170   32.7900 C.3     1  H971        0.4418
     36  C27        1.4380   29.2230   37.3590 C.3     1  H971        0.0268
     37  C28        2.3600   28.4050   38.2920 C.2     1  H971       -0.0283
     38  C29        1.7330   28.0000   39.6350 C.2     1  H971       -0.0012
     39  C30        2.4290   26.8440   40.3710 C.3     1  H971        0.1449
     40  C31        1.7690   26.5640   41.7130 C.3     1  H971        0.0375
     41  C32        3.8940   27.1470   40.6270 C.3     1  H971        0.0375
@<TRIPOS>BOND
     1    11    34    1
     2     8    35    1
     3     2    35    1
     4    16    34    1
     5    35     5    1
     6    35    33    1
     7    34    14    1
     8    34    33    1
     9    33     9    1
    10    33    32    1
    11    32    31    3
    12    31    30    1
    13    28    23    1
    14    30    29    1
    15    29    36    1
    16    29    27    1
    17    21    22    1
    18    21    19    1
    19    36    37    1
    20    22    23    1
    21    23    27    1
    22    23    24    1
    23    10    13    1
    24    10     7    1
    25    20    13    1
    26    20     1    1
    27     4     7    1
    28     4     1    1
    29    27    26    1
    30    13    15    2
    31    37    38    2
    32     3     1    1
    33    19    18    1
    34     7     6    1
    35    15    17    1
    36    18    17    2
    37    18    24    1
    38    26    25    1
    39    24    25    1
    40    12    39    1
    41    38    39    1
    42    39    41    1
    43    39    40    1
