@<TRIPOS>MOLECULE
3o1g_O75_A_1.pdb
 36 38 0 0 0
SMALL
GASTEIGER

@<TRIPOS>ATOM
      1  C1        13.8270   -3.0190    6.8110 C.2   218  O75218      0.1281
      2  N2        15.0070   -3.0930    6.1640 N.2   218  O75218     -0.3426
      3  C3        16.0020   -2.2520    6.4700 C.1   218  O75218      0.1596
      4  N4        15.8670   -1.2810    7.4130 N.2   218  O75218     -0.3470
      5  C5        14.7120   -1.1740    8.1130 C.2   218  O75218      0.1062
      6  C6        13.6610   -2.0530    7.8270 C.3   218  O75218      0.1151
      7  C7        17.2430   -2.3000    5.6910 C.2   218  O75218      0.2183
      8  N8        17.9940   -1.2960    5.7920 N.2   218  O75218     -0.1325
      9  C9        14.6150   -0.0910    9.1820 C.3   218  O75218      0.0558
     10  C10       14.9510    1.2670    8.6010 C.3   218  O75218      0.0071
     11  C11       13.9790    1.6250    7.5000 C.3   218  O75218      0.0004
     12  C12       12.7880   -4.0310    6.4500 C.ar  218  O75218      0.0268
     13  C13       11.4130   -3.7990    6.5580 C.ar  218  O75218      0.0067
     14  C14       10.5060   -4.7910    6.1980 C.ar  218  O75218      0.0536
     15  C15       10.9630   -6.0320    5.7740 C.ar  218  O75218      0.0084
     16  C16       12.3320   -6.2700    5.6590 C.ar  218  O75218      0.0716
     17  C17       13.2370   -5.2740    6.0010 C.ar  218  O75218      0.0061
     18  C18       12.8600   -7.6050    5.2200 C.3   218  O75218      0.4186
     19  F19       13.6980   -7.4650    4.2430 F     218  O75218     -0.1659
     20  F20       11.9090   -8.4220    4.8840 F     218  O75218     -0.1659
     21  F21       13.4780   -8.1770    6.2270 F     218  O75218     -0.1659
     22  C22        9.0190   -4.6080    6.3410 C.2   218  O75218      0.2493
     23  O23        8.6450   -4.5500    7.4820 O.2   218  O75218     -0.2699
     24  N24        8.1360   -4.6090    5.3440 N.am  218  O75218     -0.2705
     25  C25        8.4980   -4.7110    3.9360 C.3   218  O75218      0.1205
     26  C26        8.0920   -3.4490    3.2170 C.ar  218  O75218     -0.0023
     27  C27        8.3710   -2.2120    3.7880 C.ar  218  O75218     -0.0026
     28  C28        7.9760   -1.0510    3.1310 C.ar  218  O75218     -0.0003
     29  C29        7.3230   -1.1440    1.9080 C.ar  218  O75218     -0.0000
     30  C30        7.0540   -2.3770    1.3390 C.ar  218  O75218     -0.0003
     31  C31        7.4390   -3.5420    1.9990 C.ar  218  O75218     -0.0026
     32  C32        6.6820   -4.4580    5.6140 C.3   218  O75218      0.1113
     33  C33        6.2240   -5.6580    6.4600 C.3   218  O75218      0.0939
     34  N34        4.7640   -5.8090    6.4570 N.3   218  O75218     -0.2688
     35  C35        4.2130   -6.9630    7.1630 C.3   218  O75218      0.0897
     36  C36        3.8710   -4.8560    5.7920 C.3   218  O75218      0.0897
@<TRIPOS>BOND
     1    30    29   ar
     2    30    31   ar
     3    29    28   ar
     4    31    26   ar
     5    28    27   ar
     6    26    27   ar
     7    26    25    1
     8    25    24    1
     9    19    18    1
    10    20    18    1
    11    18    16    1
    12    18    21    1
    13    24    32    1
    14    24    22   am
    15    32    33    1
    16    16    15   ar
    17    16    17   ar
    18     7     8    2
    19     7     3    1
    20    15    14   ar
    21    36    34    1
    22    17    12   ar
    23     2     3    2
    24     2     1    2
    25    14    22    1
    26    14    13   ar
    27    22    23    2
    28    12    13   ar
    29    12     1    1
    30    34    33    1
    31    34    35    1
    32     3     4    2
    33     1     6    1
    34     4     5    2
    35    11    10    1
    36     6     5    1
    37     5     9    1
    38    10     9    1
