@<TRIPOS>MOLECULE
3o1m_AKG_A_1.pdb
 10 9 0 0 0
SMALL
GASTEIGER

@<TRIPOS>ATOM
      1  C1        -1.2030   -0.9980   22.1630 C.2   217  AKG217      0.4219
      2  O1        -2.0140   -0.8420   23.1090 O.co2 217  AKG217     -0.2373
      3  O2        -1.5690   -0.9480   20.9570 O.co2 217  AKG217     -0.2373
      4  C2         0.2020   -1.2350   22.5010 C.2   217  AKG217      0.2526
      5  O5         1.0140   -1.4020   21.6130 O.2   217  AKG217     -0.2843
      6  C3         0.6390   -1.2770   23.9610 C.3   217  AKG217      0.0881
      7  C4         2.1610   -1.1800   24.1090 C.3   217  AKG217      0.1224
      8  C5         2.5960   -1.2140   25.5720 C.2   217  AKG217      0.3653
      9  O3         1.9630   -1.9270   26.3800 O.co2 217  AKG217     -0.2456
     10  O4         3.5780   -0.5350   25.9240 O.co2 217  AKG217     -0.2456
@<TRIPOS>BOND
     1     3     1   ar
     2     5     4    2
     3     1     4    1
     4     1     2   ar
     5     4     6    1
     6     6     7    1
     7     7     8    1
     8     8    10   ar
     9     8     9   ar
