@<TRIPOS>MOLECULE
3o1o_AKG_A_1.pdb
 10 9 0 0 0
SMALL
GASTEIGER

@<TRIPOS>ATOM
      1  C1        -1.5340   -1.8460   22.5430 C.2     1  AKG1        0.4219
      2  O1        -2.2940   -1.7310   23.5400 O.co2   1  AKG1       -0.2373
      3  O2        -1.9440   -1.8060   21.3480 O.co2   1  AKG1       -0.2373
      4  C2        -0.1120   -2.0710   22.8270 C.2     1  AKG1        0.2526
      5  O5         0.6830   -2.2040   21.9160 O.2     1  AKG1       -0.2843
      6  C3         0.3360   -2.1480   24.2660 C.3     1  AKG1        0.0881
      7  C4         1.8510   -1.9630   24.3450 C.3     1  AKG1        0.1224
      8  C5         2.3270   -1.9970   25.7800 C.2     1  AKG1        0.3653
      9  O3         1.6640   -2.6490   26.6220 O.co2   1  AKG1       -0.2456
     10  O4         3.3660   -1.3720   26.0870 O.co2   1  AKG1       -0.2456
@<TRIPOS>BOND
     1     3     1   ar
     2     5     4    2
     3     1     4    1
     4     1     2   ar
     5     4     6    1
     6     6     7    1
     7     7     8    1
     8     8    10   ar
     9     8     9   ar
