@<TRIPOS>MOLECULE
3o1p_AKG_A_1.pdb
 10 9 0 0 0
SMALL
GASTEIGER

@<TRIPOS>ATOM
      1  C1        -1.4300   -1.6180   22.2730 C.2   217  AKG217      0.4219
      2  O1        -2.2250   -1.2680   23.1720 O.co2 217  AKG217     -0.2373
      3  O2        -1.7650   -1.6990   21.0690 O.co2 217  AKG217     -0.2373
      4  C2        -0.0390   -1.9060   22.6190 C.2   217  AKG217      0.2526
      5  O5         0.7620   -2.1080   21.7210 O.2   217  AKG217     -0.2843
      6  C3         0.4010   -1.9550   24.0640 C.3   217  AKG217      0.0881
      7  C4         1.9240   -1.9090   24.1430 C.3   217  AKG217      0.1224
      8  C5         2.4000   -1.8640   25.5850 C.2   217  AKG217      0.3653
      9  O3         1.7820   -2.5350   26.4340 O.co2 217  AKG217     -0.2456
     10  O4         3.3940   -1.1600   25.8750 O.co2 217  AKG217     -0.2456
@<TRIPOS>BOND
     1     3     1   ar
     2     5     4    2
     3     1     4    1
     4     1     2   ar
     5     4     6    1
     6     6     7    1
     7     7     8    1
     8     8    10   ar
     9     8     9   ar
