@<TRIPOS>MOLECULE
3o1r_AKG_A_1.pdb
 10 9 0 0 0
SMALL
GASTEIGER

@<TRIPOS>ATOM
      1  C1        -1.5160   -1.2830   22.4950 C.2   217  AKG217      0.4219
      2  O1        -2.3240   -1.4390   23.4490 O.co2 217  AKG217     -0.2373
      3  O2        -1.9010   -1.1210   21.3060 O.co2 217  AKG217     -0.2373
      4  C2        -0.0790   -1.2680   22.7910 C.2   217  AKG217      0.2526
      5  O5         0.7540   -1.2340   21.8840 O.2   217  AKG217     -0.2843
      6  C3         0.3490   -1.2640   24.2230 C.3   217  AKG217      0.0881
      7  C4         1.8490   -1.0370   24.3280 C.3   217  AKG217      0.1224
      8  C5         2.2740   -1.1800   25.7800 C.2   217  AKG217      0.3653
      9  O3         1.5670   -1.8520   26.5650 O.co2 217  AKG217     -0.2456
     10  O4         3.3150   -0.5840   26.1530 O.co2 217  AKG217     -0.2456
@<TRIPOS>BOND
     1     3     1   ar
     2     5     4    2
     3     1     4    1
     4     1     2   ar
     5     4     6    1
     6     6     7    1
     7     7     8    1
     8     8    10   ar
     9     8     9   ar
