@<TRIPOS>MOLECULE
3o1x_ADN_A_1.pdb
 19 21 0 0 0
SMALL
GASTEIGER

@<TRIPOS>ATOM
      1  O5'        8.4680   10.7740   11.3480 O.3   1450  ADN1450    -0.2176
      2  C5'        8.8140   10.6690   12.7290 C.3   1450  ADN1450     0.2143
      3  C4'        9.5360    9.3690   12.9160 C.3   1450  ADN1450     0.1851
      4  O4'       10.1400    9.3990   14.1890 O.3   1450  ADN1450    -0.3134
      5  C3'        8.7130    8.0720   12.9400 C.3   1450  ADN1450     0.2186
      6  O3'        9.0680    7.2040   11.7970 O.3   1450  ADN1450    -0.2174
      7  C2'        8.9190    7.4800   14.3390 C.3   1450  ADN1450     0.2570
      8  O2'        8.8420    6.0970   14.4170 O.3   1450  ADN1450    -0.2130
      9  C1'       10.2590    8.0950   14.6430 C.3   1450  ADN1450     0.3186
     10  N9        10.5120    8.2280   16.1070 N.pl3 1450  ADN1450    -0.1439
     11  C8         9.6710    8.7570   17.0530 C.3   1450  ADN1450     0.3377
     12  N7        10.2910    8.7830   18.1790 N.2   1450  ADN1450    -0.2095
     13  C5        11.5190    8.2260   18.0680 C.2   1450  ADN1450     0.2526
     14  C6        12.6850    7.9540   18.9340 C.2   1450  ADN1450     0.4393
     15  N6        12.6370    8.1790   20.2470 N.pl3 1450  ADN1450     0.2180
     16  N1        13.7570    7.3780   18.3230 N.2   1450  ADN1450     0.0021
     17  C2        13.7910    7.0420   17.0210 C.3   1450  ADN1450     0.5254
     18  N3        12.7790    7.2890   16.1110 N.2   1450  ADN1450    -0.0055
     19  C4        11.6740    7.8690   16.6570 C.2   1450  ADN1450     0.3518
@<TRIPOS>BOND
     1     1     2    1
     2     6     5    1
     3     2     3    1
     4     3     5    1
     5     3     4    1
     6     5     7    1
     7     4     9    1
     8     7     8    1
     9     7     9    1
    10     9    10    1
    11    10    19    1
    12    10    11    1
    13    18    19    2
    14    18    17    1
    15    19    13    1
    16    17    16    1
    17    11    12    1
    18    13    12    2
    19    13    14    1
    20    16    14    2
    21    14    15    1
