@<TRIPOS>MOLECULE
3o1y_HEC_A_1.pdb
 43 50 0 0 0
SMALL
GASTEIGER

@<TRIPOS>ATOM
      1 FE         15.1760    9.7830   13.8800 Fe    105  HEC105      0.0000
      2  CHA       15.7350    7.2100   11.7800 C.2   105  HEC105      0.0000
      3  CHB       12.4830    8.0760   15.2460 C.2   105  HEC105      0.0000
      4  CHC       14.9490   12.1270   16.4130 C.2   105  HEC105      0.0000
      5  CHD       17.3500   11.7820   12.2110 C.2   105  HEC105      0.0000
      6  NA        14.2600    7.9800   13.5710 N.2   105  HEC105      0.0000
      7  C1A       14.6780    7.0410   12.6400 C.2   105  HEC105      0.0000
      8  C2A       13.8370    5.8710   12.7470 C.2   105  HEC105      0.0000
      9  C3A       12.9510    6.1100   13.7270 C.2   105  HEC105      0.0000
     10  C4A       13.1780    7.4490   14.2360 C.2   105  HEC105      0.0000
     11  CMA       11.7970    5.2180   14.1930 C.3   105  HEC105      0.0000
     12  CAA       13.9370    4.5770   11.9250 C.3   105  HEC105      0.0000
     13  CBA       13.0600    4.8240   10.6670 C.3   105  HEC105      0.0000
     14  CGA       12.9110    3.5620    9.8050 C.2   105  HEC105      0.0000
     15  O1A       12.0900    3.6430    8.8570 O.co2 105  HEC105      0.0000
     16  O2A       13.5540    2.5200   10.0790 O.co2 105  HEC105      0.0000
     17  NB        13.9940   10.0160   15.5460 N.ar  105  HEC105      0.0000
     18  C1B       12.9130    9.2320   15.8670 C.ar  105  HEC105      0.0000
     19  C2B       12.3460    9.7800   17.0560 C.ar  105  HEC105      0.0000
     20  C3B       12.9590   10.9220   17.3260 C.ar  105  HEC105      0.0000
     21  C4B       14.0660   11.0670   16.4230 C.ar  105  HEC105      0.0000
     22  CMB       10.9710    9.3090   17.6480 C.3   105  HEC105      0.0000
     23  CAB       12.7100   11.8550   18.5260 C.3   105  HEC105      0.0000
     24  CBB       12.9150   11.0460   19.8470 C.3   105  HEC105      0.0000
     25  NC        15.9860   11.6350   14.2250 N.2   105  HEC105      0.0000
     26  C1C       15.8330   12.4040   15.3830 C.2   105  HEC105      0.0000
     27  C2C       16.8810   13.4050   15.3970 C.2   105  HEC105      0.0000
     28  C3C       17.3540   13.4380   14.1180 C.2   105  HEC105      0.0000
     29  C4C       16.8880   12.2700   13.4230 C.2   105  HEC105      0.0000
     30  CMC       16.9040   14.6090   16.3450 C.3   105  HEC105      0.0000
     31  CAC       18.3540   14.3840   13.4350 C.3   105  HEC105      0.0000
     32  CBC       19.3080   15.2790   14.2020 C.3   105  HEC105      0.0000
     33  ND        16.3480    9.5280   12.2390 N.ar  105  HEC105      0.0000
     34  C1D       17.1890   10.4930   11.7490 C.ar  105  HEC105      0.0000
     35  C2D       17.8950    9.9080   10.6320 C.ar  105  HEC105      0.0000
     36  C3D       17.4210    8.4950   10.5050 C.ar  105  HEC105      0.0000
     37  C4D       16.4550    8.3280   11.5590 C.ar  105  HEC105      0.0000
     38  CMD       18.9780   10.5380    9.7690 C.3   105  HEC105      0.0000
     39  CAD       17.9110    7.4710    9.4770 C.3   105  HEC105      0.0000
     40  CBD       19.0610    6.7540   10.2050 C.3   105  HEC105      0.0000
     41  CGD       19.8650    5.8570    9.2570 C.2   105  HEC105      0.0000
     42  O1D       19.5110    5.7160    8.0340 O.co2 105  HEC105      0.0000
     43  O2D       20.8550    5.2720    9.7370 O.co2 105  HEC105      0.0000
@<TRIPOS>BOND
     1    42    41   ar
     2    15    14   ar
     3    41    43   ar
     4    41    40    1
     5    39    40    1
     6    39    36    1
     7    38    35    1
     8    14    16   ar
     9    14    13    1
    10    36    35   ar
    11    36    37   ar
    12    35    34   ar
    13    13    12    1
    14    37     2    2
    15    37    33   ar
    16    34     5    2
    17    34    33   ar
    18     2     7    1
    19    12     8    1
    20     5    29    1
    21    33     1    1
    22     7     8    1
    23     7     6    2
    24     8     9    2
    25    29    28    1
    26    29    25    2
    27    31    28    1
    28    31    32    1
    29     6     1    1
    30     6    10    1
    31     9    11    1
    32     9    10    1
    33     1    25    1
    34     1    17    1
    35    28    27    2
    36    25    26    1
    37    10     3    2
    38     3    18    1
    39    26    27    1
    40    26     4    2
    41    27    30    1
    42    17    18   ar
    43    17    21   ar
    44    18    19   ar
    45     4    21    1
    46    21    20   ar
    47    19    20   ar
    48    19    22    1
    49    20    23    1
    50    23    24    1
