@<TRIPOS>MOLECULE
3o20_HEC_A_1.pdb
 43 50 0 0 0
SMALL
GASTEIGER

@<TRIPOS>ATOM
      1 FE         18.3550    3.4900   14.6630 Fe    105  HEC105      0.0000
      2  CHA       19.1500    1.1410   12.1700 C.2   105  HEC105      0.0000
      3  CHB       16.2000    1.1920   16.0190 C.2   105  HEC105      0.0000
      4  CHC       17.6890    5.7050   17.3250 C.2   105  HEC105      0.0000
      5  CHD       19.8790    5.9160   13.0410 C.2   105  HEC105      0.0000
      6  NA        17.7330    1.4590   14.1520 N.2   105  HEC105      0.0000
      7  C1A       18.2410    0.7180   13.1260 C.2   105  HEC105      0.0000
      8  C2A       17.7220   -0.5950   13.2590 C.2   105  HEC105      0.0000
      9  C3A       16.8740   -0.6240   14.3280 C.2   105  HEC105      0.0000
     10  C4A       16.8760    0.7100   14.9140 C.2   105  HEC105      0.0000
     11  CMA       16.0280   -1.8090   14.8570 C.3   105  HEC105      0.0000
     12  CAA       18.0810   -1.6810   12.2060 C.3   105  HEC105      0.0000
     13  CBA       16.9540   -1.5270   11.1330 C.3   105  HEC105      0.0000
     14  CGA       17.0310   -2.6010   10.0670 C.2   105  HEC105      0.0000
     15  O1A       16.2650   -2.5210    9.0390 O.co2 105  HEC105      0.0000
     16  O2A       17.8600   -3.5490   10.2340 O.co2 105  HEC105      0.0000
     17  NB        17.2470    3.4400   16.3340 N.ar  105  HEC105      0.0000
     18  C1B       16.3600    2.3900   16.6580 C.ar  105  HEC105      0.0000
     19  C2B       15.6880    2.7810   17.8750 C.ar  105  HEC105      0.0000
     20  C3B       16.1060    4.0240   18.1970 C.ar  105  HEC105      0.0000
     21  C4B       17.0840    4.4430   17.2740 C.ar  105  HEC105      0.0000
     22  CMB       14.5450    2.0350   18.6060 C.3   105  HEC105      0.0000
     23  CAB       15.7130    4.9130   19.4080 C.3   105  HEC105      0.0000
     24  CBB       15.9860    4.1470   20.7230 C.3   105  HEC105      0.0000
     25  NC        18.6800    5.5120   15.0990 N.2   105  HEC105      0.0000
     26  C1C       18.4360    6.1910   16.2680 C.2   105  HEC105      0.0000
     27  C2C       19.2420    7.4020   16.2330 C.2   105  HEC105      0.0000
     28  C3C       19.7440    7.5430   15.0030 C.2   105  HEC105      0.0000
     29  C4C       19.4420    6.2810   14.2830 C.2   105  HEC105      0.0000
     30  CMC       19.1410    8.4650   17.2890 C.3   105  HEC105      0.0000
     31  CAC       20.5330    8.7540   14.3940 C.3   105  HEC105      0.0000
     32  CBC       21.6410    9.5520   15.1270 C.3   105  HEC105      0.0000
     33  ND        19.2880    3.4970   12.8570 N.ar  105  HEC105      0.0000
     34  C1D       20.0100    4.6280   12.4650 C.ar  105  HEC105      0.0000
     35  C2D       20.8500    4.2620   11.3330 C.ar  105  HEC105      0.0000
     36  C3D       20.6130    2.7850   11.0850 C.ar  105  HEC105      0.0000
     37  C4D       19.6680    2.3930   12.0780 C.ar  105  HEC105      0.0000
     38  CMD       21.8190    5.1710   10.4990 C.3   105  HEC105      0.0000
     39  CAD       21.2470    1.8750   10.0010 C.3   105  HEC105      0.0000
     40  CBD       22.5980    1.4510   10.6310 C.3   105  HEC105      0.0000
     41  CGD       23.4750    0.6830    9.6910 C.2   105  HEC105      0.0000
     42  O1D       23.0940    0.6170    8.4840 O.co2 105  HEC105      0.0000
     43  O2D       24.5100    0.1120   10.1350 O.co2 105  HEC105      0.0000
@<TRIPOS>BOND
     1    42    41   ar
     2    15    14   ar
     3    41    43   ar
     4    41    40    1
     5    39    40    1
     6    39    36    1
     7    14    16   ar
     8    14    13    1
     9    38    35    1
    10    36    35   ar
    11    36    37   ar
    12    13    12    1
    13    35    34   ar
    14    37     2    2
    15    37    33   ar
    16     2     7    1
    17    12     8    1
    18    34    33   ar
    19    34     5    2
    20    33     1    1
    21     5    29    1
    22     7     8    1
    23     7     6    2
    24     8     9    2
    25     6     1    1
    26     6    10    1
    27    29    28    1
    28    29    25    2
    29     9    11    1
    30     9    10    1
    31    31    28    1
    32    31    32    1
    33     1    25    1
    34     1    17    1
    35    10     3    2
    36    28    27    2
    37    25    26    1
    38     3    18    1
    39    27    26    1
    40    27    30    1
    41    26     4    2
    42    17    18   ar
    43    17    21   ar
    44    18    19   ar
    45    21     4    1
    46    21    20   ar
    47    19    20   ar
    48    19    22    1
    49    20    23    1
    50    23    24    1
