@<TRIPOS>MOLECULE
3o23_MQY_A_1.pdb
 32 35 0 0 0
SMALL
GASTEIGER

@<TRIPOS>ATOM
      1  N1         6.8930   -0.0770   22.6320 N.am    1  MQY1       -0.1907
      2  C2         7.6070   -1.2230   22.3330 C.ar    1  MQY1        0.0623
      3  C3         7.0820    1.1360   22.0510 C.2     1  MQY1        0.3210
      4  C4         5.8990   -0.0280   23.5630 C.2     1  MQY1        0.2548
      5  C5         6.9370   -2.3300   21.7360 C.ar    1  MQY1        0.0167
      6  C6         9.0060   -1.3250   22.6060 C.ar    1  MQY1        0.0167
      7  N7         6.2050    2.0270   22.5860 N.am    1  MQY1       -0.2344
      8  O8         7.9050    1.3980   21.1760 O.2     1  MQY1       -0.2512
      9  C9         5.3510    1.4100   23.6000 C.3     1  MQY1        0.1584
     10  O10        5.4740   -0.9500   24.2690 O.2     1  MQY1       -0.2723
     11  C11        7.6350   -3.5060   21.4190 C.ar    1  MQY1        0.0199
     12  C12        9.7110   -2.5090   22.2860 C.ar    1  MQY1        0.0199
     13  C13        6.0790    3.4540   22.2280 C.2     1  MQY1        0.0695
     14  C14        3.8560    1.4080   23.2220 C.3     1  MQY1        0.0319
     15  C15        9.0170   -3.5960   21.6890 C.ar    1  MQY1        0.1143
     16  C16        7.0130    4.4330   22.9520 C.ar    1  MQY1        0.0177
     17  S17        9.8760   -5.0880   21.2630 S.O2    1  MQY1        0.0920
     18  C18        6.9420    5.8550   22.6580 C.ar    1  MQY1        0.0152
     19  C19        7.9740    3.9970   23.9220 C.ar    1  MQY1        0.0219
     20  C20       10.3010   -4.8830   19.5310 C.3     1  MQY1        0.5262
     21  O21       11.1000   -5.1500   21.9980 O.2     1  MQY1       -0.1612
     22  O22        8.9650   -6.1920   21.3540 O.2     1  MQY1       -0.1612
     23  C23        7.8310    6.7860   23.3510 C.ar    1  MQY1        0.0634
     24  C24        6.0010    6.3820   21.6950 C.2     1  MQY1        0.0009
     25  C25        8.8070    4.9450   24.5560 C.ar    1  MQY1        0.0985
     26  F26       10.9360   -5.9690   19.1440 F       1  MQY1       -0.1500
     27  F27       11.1030   -3.8290   19.4240 F       1  MQY1       -0.1500
     28  F28        9.1880   -4.6980   18.8260 F       1  MQY1       -0.1500
     29  N29        8.7380    6.2770   24.2800 N.ar    1  MQY1       -0.2478
     30  C30        7.7530    8.1840   23.0550 C.3     1  MQY1        0.0717
     31  C31        5.9470    7.7760   21.4240 C.2     1  MQY1       -0.0041
     32  C32        6.8180    8.6750   22.1000 C.2     1  MQY1       -0.0198
@<TRIPOS>BOND
     1    28    20    1
     2    26    20    1
     3    27    20    1
     4    20    17    1
     5     8     3    2
     6    17    22    2
     7    17    15    1
     8    17    21    2
     9    11    15   ar
    10    11     5   ar
    11    31    24    1
    12    31    32    2
    13    15    12   ar
    14    24    18    2
    15     5     2   ar
    16     3     7   am
    17     3     1   am
    18    32    30    1
    19    13     7    1
    20    13    16    2
    21    12     6   ar
    22     2     6   ar
    23     2     1    1
    24     7     9    1
    25     1     4   am
    26    18    16   ar
    27    18    23   ar
    28    16    19   ar
    29    30    23    1
    30    14     9    1
    31    23    29   ar
    32     4     9    1
    33     4    10    2
    34    19    25   ar
    35    29    25   ar
