@<TRIPOS>MOLECULE
3o26_NDP_A_1.pdb
 48 52 0 0 0
SMALL
GASTEIGER

@<TRIPOS>ATOM
      1  PA        18.2760   72.3470   -2.8970 P.3   312  NDP312      0.2189
      2  O1A       19.0260   72.4980   -1.6490 O.3   312  NDP312     -0.4371
      3  O2A       16.6720   72.2010   -2.6140 O.2   312  NDP312     -0.5170
      4  O5B       18.5730   73.6190   -3.8810 O.3   312  NDP312     -0.3112
      5  C5B       17.7880   73.7420   -5.0370 C.3   312  NDP312      0.1813
      6  C4B       18.2820   75.0070   -5.7410 C.3   312  NDP312      0.1820
      7  O4B       17.5510   75.1150   -6.9980 O.3   312  NDP312     -0.3136
      8  C3B       17.9010   76.2200   -4.8870 C.3   312  NDP312      0.2157
      9  O3B       18.8340   77.2510   -5.1260 O.3   312  NDP312     -0.2175
     10  C2B       16.5570   76.5860   -5.4430 C.3   312  NDP312      0.2314
     11  O2B       16.2660   77.9370   -5.2330 O.3   312  NDP312     -0.2630
     12  C1B       16.8810   76.3930   -6.9130 C.3   312  NDP312      0.3158
     13  N9A       15.6640   76.3800   -7.6880 N.pl3 312  NDP312     -0.1439
     14  C8A       14.4100   75.6180   -7.4840 C.3   312  NDP312      0.3377
     15  N7A       13.4820   76.0430   -8.5400 N.2   312  NDP312     -0.2095
     16  C5A       14.1580   77.0600   -9.3530 C.2   312  NDP312      0.2526
     17  C6A       13.7280   77.8970  -10.4890 C.2   312  NDP312      0.4393
     18  N6A       12.3810   77.8120  -10.9690 N.pl3 312  NDP312      0.2180
     19  N1A       14.6760   78.8230  -11.0850 N.2   312  NDP312      0.0021
     20  C2A       16.0540   78.9550  -10.5830 C.3   312  NDP312      0.5254
     21  N3A       16.4500   78.1870   -9.3810 N.2   312  NDP312     -0.0055
     22  C4A       15.5130   77.2550   -8.8140 C.2   312  NDP312      0.3518
     23  O3        18.5650   70.9930   -3.7370 O.3   312  NDP312     -0.2703
     24  PN        20.0260   70.3880   -4.1440 P.3   312  NDP312      0.2189
     25  O1N       21.1110   71.3460   -3.9080 O.2   312  NDP312     -0.5170
     26  O2N       20.1140   68.9850   -3.3240 O.3   312  NDP312     -0.4371
     27  O5D       19.8600   70.0310   -5.7580 O.3   312  NDP312     -0.3112
     28  C5D       20.5740   70.7160   -6.7640 C.3   312  NDP312      0.1813
     29  C4D       20.5990   69.7850   -7.9890 C.3   312  NDP312      0.1799
     30  O4D       21.1830   68.5130   -7.5670 O.3   312  NDP312     -0.3327
     31  C3D       19.1670   69.4490   -8.4180 C.3   312  NDP312      0.2158
     32  O3D       19.0810   69.4120   -9.8110 O.3   312  NDP312     -0.2175
     33  C2D       18.9280   68.0710   -7.8730 C.3   312  NDP312      0.2309
     34  O2D       17.9730   67.3440   -8.6000 O.3   312  NDP312     -0.2158
     35  C1D       20.3150   67.4740   -8.0960 C.3   312  NDP312      0.2263
     36  N1N       20.5140   66.2760   -7.3040 N.pl3 312  NDP312     -0.2787
     37  C2N       20.3890   66.3470   -5.8300 C.3   312  NDP312      0.1244
     38  C3N       20.6210   65.0990   -4.9940 C.2   312  NDP312      0.0544
     39  C7N       20.4980   65.1760   -3.4840 C.2   312  NDP312      0.2818
     40  O7N       20.5580   64.1800   -2.8480 O.2   312  NDP312     -0.2670
     41  N7N       20.4130   66.4770   -2.8420 N.am  312  NDP312     -0.0839
     42  C4N       20.9700   63.8120   -5.6430 C.2   312  NDP312      0.0033
     43  C5N       21.1020   63.7500   -7.1260 C.2   312  NDP312      0.0157
     44  C6N       20.8670   64.9950   -7.9620 C.2   312  NDP312      0.0633
     45  P2B       15.3160   78.3410   -3.9480 P.3   312  NDP312      0.5328
     46  O1X       14.2580   77.3390   -3.7610 O.3   312  NDP312     -0.1145
     47  O2X       16.2790   78.4380   -2.6240 O.3   312  NDP312     -0.1145
     48  O3X       14.6380   79.7690   -4.3560 O.2   312  NDP312     -0.2224
@<TRIPOS>BOND
     1    19    20    1
     2    19    17    2
     3    18    17    1
     4    20    21    1
     5    17    16    1
     6    32    31    1
     7    21    22    2
     8    16    22    1
     9    16    15    2
    10    22    13    1
    11    34    33    1
    12    15    14    1
    13    31    29    1
    14    31    33    1
    15    35    33    1
    16    35    30    1
    17    35    36    1
    18    29    30    1
    19    29    28    1
    20    44    36    1
    21    44    43    2
    22    13    14    1
    23    13    12    1
    24    36    37    1
    25    43    42    1
    26     7    12    1
    27     7     6    1
    28    12    10    1
    29    28    27    1
    30    37    38    1
    31    27    24    1
    32     6     5    1
    33     6     8    1
    34    42    38    2
    35    10    11    1
    36    10     8    1
    37    11    45    1
    38     9     8    1
    39     5     4    1
    40    38    39    1
    41    48    45    2
    42    24    25    2
    43    24    23    1
    44    24    26    1
    45    45    46    1
    46    45    47    1
    47     4     1    1
    48    23     1    1
    49    39    40    2
    50    39    41   am
    51     1     3    2
    52     1     2    1
