@<TRIPOS>MOLECULE
3o28_GLU_A_1.pdb
 10 9 0 0 0
SMALL
GASTEIGER

@<TRIPOS>ATOM
      1  N         13.7960    2.4280   16.7570 N.3   265  GLU265     -0.1208
      2  CA        14.9030    1.4410   16.9600 C.3   265  GLU265      0.1949
      3  C         15.1160    1.1500   18.4340 C.2   265  GLU265      0.3819
      4  O         16.0480    0.3980   18.8510 O.co2 265  GLU265     -0.2441
      5  CB        16.2130    1.9930   16.4080 C.3   265  GLU265      0.0424
      6  CG        16.4420    1.8920   14.9030 C.3   265  GLU265      0.1161
      7  CD        16.6730    0.4850   14.4200 C.2   265  GLU265      0.3649
      8  OE1       16.4980    0.2480   13.1900 O.co2 265  GLU265     -0.2457
      9  OE2       17.0050   -0.3810   15.2450 O.co2 265  GLU265     -0.2457
     10  OXT       14.3840    1.7260   19.2150 O.co2 265  GLU265     -0.2441
@<TRIPOS>BOND
     1     8     7   ar
     2     7     6    1
     3     7     9   ar
     4     6     5    1
     5     5     2    1
     6     1     2    1
     7     2     3    1
     8     3     4   ar
     9     3    10   ar
