@<TRIPOS>MOLECULE
3o28_O28_A_1.pdb
 29 32 0 0 0
SMALL
GASTEIGER

@<TRIPOS>ATOM
      1  F1         3.3350   -1.2960   20.0000 F     264  O28264     -0.1644
      2  C2         3.4490   -2.4620   19.4130 C.3   264  O28264      0.4362
      3  F3         4.7440   -2.7240   19.2040 F     264  O28264     -0.1644
      4  F4         2.9460   -3.3650   20.2510 F     264  O28264     -0.1644
      5  C5         2.6430   -2.3860   18.1290 C.ar  264  O28264      0.1693
      6  N6         2.2990   -1.2350   17.5800 N.ar  264  O28264     -0.1655
      7  N7         1.5410   -1.5510   16.3920 N.ar  264  O28264     -0.2458
      8  C8         1.4600   -2.9210   16.2570 C.ar  264  O28264      0.0535
      9  C9         2.1000   -3.4900   17.2910 C.ar  264  O28264      0.0144
     10  C10        2.2260   -4.9900   17.4760 C.3   264  O28264      0.0291
     11  C11        1.1990   -5.7250   16.6000 C.3   264  O28264      0.0052
     12  C12        1.0520   -5.1480   15.1870 C.3   264  O28264      0.0066
     13  C13        0.7390   -3.6490   15.1410 C.3   264  O28264      0.0452
     14  C14        1.0230   -0.4820   15.5340 C.3   264  O28264      0.2135
     15  C15       -0.1740    0.1410   16.1690 C.2   264  O28264      0.2709
     16  O16       -1.0750   -0.6010   16.5940 O.2   264  O28264     -0.2708
     17  N17       -0.2300    1.4850   16.2550 N.am  264  O28264     -0.1708
     18  C18       -1.2320    2.1160   16.9600 C.ar  264  O28264      0.1066
     19  S19       -2.3920    1.2190   17.9460 S.2   264  O28264     -0.0750
     20  C20       -3.1380    2.7450   18.3930 C.ar  264  O28264      0.0047
     21  C21       -2.5510    3.8290   17.8350 C.ar  264  O28264     -0.0139
     22  C22       -1.3980    3.4660   16.9750 C.ar  264  O28264      0.0743
     23  C23       -3.0300    5.2480   18.0840 C.3   264  O28264      0.0268
     24  C24       -4.3590    5.2350   18.8430 C.3   264  O28264      0.0050
     25  C25       -4.3730    4.1810   19.9330 C.3   264  O28264      0.0055
     26  C26       -4.3340    2.7900   19.3150 C.3   264  O28264      0.0327
     27  C27       -0.8030    4.3510   15.9290 C.2   264  O28264      0.2856
     28  O28       -0.1030    3.8580   15.0480 O.2   264  O28264     -0.2666
     29  N29       -1.0310    5.6650   15.9730 N.am  264  O28264     -0.0837
@<TRIPOS>BOND
     1    28    27    2
     2    13    12    1
     3    13     8    1
     4    12    11    1
     5    14    15    1
     6    14     7    1
     7    27    29   am
     8    27    22    1
     9    15    17   am
    10    15    16    2
    11    17    18    1
    12     8     7   ar
    13     8     9   ar
    14     7     6   ar
    15    11    10    1
    16    18    22   ar
    17    18    19   ar
    18    22    21   ar
    19     9    10    1
    20     9     5   ar
    21     6     5   ar
    22    21    23    1
    23    21    20   ar
    24    19    20   ar
    25    23    24    1
    26     5     2    1
    27    20    26    1
    28    24    25    1
    29     3     2    1
    30    26    25    1
    31     2     1    1
    32     2     4    1
