@<TRIPOS>MOLECULE
3o29_GLU_A_1.pdb
 10 9 0 0 0
SMALL
GASTEIGER

@<TRIPOS>ATOM
      1  N         13.5700    2.4050   16.6620 N.3   264  GLU264     -0.1208
      2  CA        14.7200    1.4910   16.9000 C.3   264  GLU264      0.1949
      3  C         14.9010    1.1730   18.3730 C.2   264  GLU264      0.3819
      4  O         15.8350    0.4290   18.7570 O.co2 264  GLU264     -0.2441
      5  CB        16.0230    2.0830   16.3270 C.3   264  GLU264      0.0424
      6  CG        16.2380    1.9390   14.7920 C.3   264  GLU264      0.1161
      7  CD        16.4670    0.5150   14.3290 C.2   264  GLU264      0.3649
      8  OE1       16.3230    0.3120   13.1180 O.co2 264  GLU264     -0.2457
      9  OE2       16.8120   -0.3990   15.1320 O.co2 264  GLU264     -0.2457
     10  OXT       14.1380    1.7220   19.2030 O.co2 264  GLU264     -0.2441
@<TRIPOS>BOND
     1     8     7   ar
     2     7     6    1
     3     7     9   ar
     4     6     5    1
     5     5     2    1
     6     1     2    1
     7     2     3    1
     8     3     4   ar
     9     3    10   ar
