@<TRIPOS>MOLECULE
3o29_O29_A_1.pdb
 34 37 0 0 0
SMALL
GASTEIGER

@<TRIPOS>ATOM
      1  O1         0.5260    3.6960   15.3400 O.2   271  O29271     -0.2683
      2  C2        -0.4820    4.2180   15.8080 C.2   271  O29271      0.2663
      3  N3        -0.8200    5.4450   15.4400 N.am  271  O29271     -0.2001
      4  C4        -1.3840    3.4430   16.7020 C.ar  271  O29271      0.0727
      5  C5        -2.4900    3.9620   17.5670 C.ar  271  O29271     -0.0140
      6  C6        -2.9530    5.3580   17.8350 C.3   271  O29271      0.0268
      7  C7        -3.1550    2.8290   18.2670 C.ar  271  O29271      0.0047
      8  C8        -4.3100    2.8560   19.2400 C.3   271  O29271      0.0327
      9  C9        -4.8230    4.2950   19.1770 C.3   271  O29271      0.0055
     10  C10       -3.6500    5.2750   19.2000 C.3   271  O29271      0.0050
     11  S11       -2.5000    1.2770   17.8750 S.2   271  O29271     -0.0750
     12  C12       -1.3290    1.9640   16.7970 C.ar  271  O29271      0.1066
     13  N13       -0.3980    1.2510   16.0920 N.am  271  O29271     -0.1708
     14  C14       -0.2930   -0.0680   16.1310 C.2   271  O29271      0.2709
     15  O15       -1.0020   -0.7910   16.7820 O.2   271  O29271     -0.2708
     16  C16        0.8060   -0.6810   15.3060 C.3   271  O29271      0.2135
     17  N17        1.3460   -1.7610   16.1350 N.ar  271  O29271     -0.2458
     18  N18        2.0910   -1.3780   17.2790 N.ar  271  O29271     -0.1655
     19  C19        2.4940   -2.5130   17.9210 C.ar  271  O29271      0.1693
     20  C20        3.3110   -2.3770   19.2060 C.3   271  O29271      0.4362
     21  F21        4.6160   -2.3100   19.0580 F     271  O29271     -0.1644
     22  F22        3.0940   -3.4120   19.9870 F     271  O29271     -0.1644
     23  F23        2.9420   -1.3280   19.8830 F     271  O29271     -0.1644
     24  C24        1.2170   -3.0930   16.0120 C.ar  271  O29271      0.0535
     25  C25        1.9500   -3.6770   17.1590 C.ar  271  O29271      0.0144
     26  C26        2.0570   -5.1570   17.3930 C.3   271  O29271      0.0291
     27  C27        0.5000   -3.8890   14.9480 C.3   271  O29271      0.0452
     28  C28        0.8840   -5.3680   15.0840 C.3   271  O29271      0.0066
     29  C29        1.0000   -5.8580   16.5300 C.3   271  O29271      0.0052
     30  C30       -0.6420    5.8820   14.0670 C.3   271  O29271      0.1327
     31  C31       -0.1310    7.3060   14.1660 C.3   271  O29271      0.0959
     32  N32       -0.6200    8.0490   13.0080 N.3   271  O29271     -0.2688
     33  C33       -1.4820    9.1270   13.4950 C.3   271  O29271      0.0897
     34  C34        0.5220    8.6230   12.2940 C.3   271  O29271      0.0897
@<TRIPOS>BOND
     1    34    32    1
     2    32    33    1
     3    32    31    1
     4    30    31    1
     5    30     3    1
     6    27    28    1
     7    27    24    1
     8    28    29    1
     9    16    14    1
    10    16    17    1
    11     1     2    2
    12     3     2   am
    13     2     4    1
    14    24    17   ar
    15    24    25   ar
    16    13    14   am
    17    13    12    1
    18    14    15    2
    19    17    18   ar
    20    29    26    1
    21     4    12   ar
    22     4     5   ar
    23    12    11   ar
    24    25    26    1
    25    25    19   ar
    26    18    19   ar
    27     5     6    1
    28     5     7   ar
    29     6    10    1
    30    11     7   ar
    31    19    20    1
    32     7     8    1
    33    21    20    1
    34     9    10    1
    35     9     8    1
    36    20    23    1
    37    20    22    1
