@<TRIPOS>MOLECULE
3o2a_GLU_A_1.pdb
 10 9 0 0 0
SMALL
GASTEIGER

@<TRIPOS>ATOM
      1  N         13.7070    2.4350   16.8770 N.3   265  GLU265     -0.1208
      2  CA        14.8210    1.4740   17.1060 C.3   265  GLU265      0.1949
      3  C         14.9670    1.2450   18.5960 C.2   265  GLU265      0.3819
      4  O         15.8450    0.5170   19.0440 O.co2 265  GLU265     -0.2441
      5  CB        16.1480    2.0040   16.5420 C.3   265  GLU265      0.0424
      6  CG        16.2630    1.9470   15.0380 C.3   265  GLU265      0.1161
      7  CD        16.5160    0.5480   14.5230 C.2   265  GLU265      0.3649
      8  OE1       16.2770    0.3070   13.3140 O.co2 265  GLU265     -0.2457
      9  OE2       16.8890   -0.3250   15.3290 O.co2 265  GLU265     -0.2457
     10  OXT       14.1740    1.7910   19.3610 O.co2 265  GLU265     -0.2441
@<TRIPOS>BOND
     1     8     7   ar
     2     7     6    1
     3     7     9   ar
     4     6     5    1
     5     5     2    1
     6     1     2    1
     7     2     3    1
     8     3     4   ar
     9     3    10   ar
