@<TRIPOS>MOLECULE
3o2a_O30_A_1.pdb
 33 36 0 0 0
SMALL
GASTEIGER

@<TRIPOS>ATOM
      1  F1         4.3150   -1.5760   19.2450 F     264  O30264     -0.1644
      2  C2         3.4400   -2.5420   19.3440 C.3   264  O30264      0.4362
      3  F3         4.1300   -3.6340   19.5460 F     264  O30264     -0.1644
      4  F4         2.6740   -2.3100   20.3840 F     264  O30264     -0.1644
      5  C5         2.5890   -2.6810   18.1140 C.ar  264  O30264      0.1693
      6  N6         2.2070   -1.5460   17.5000 N.ar  264  O30264     -0.1655
      7  N7         1.4350   -1.9160   16.3670 N.ar  264  O30264     -0.2458
      8  C8         1.3110   -3.2340   16.2500 C.ar  264  O30264      0.0535
      9  C9         2.0510   -3.8390   17.3710 C.ar  264  O30264      0.0144
     10  C10        2.1550   -5.3280   17.5820 C.3   264  O30264      0.0291
     11  C11        0.9750   -5.9560   16.8450 C.3   264  O30264      0.0052
     12  C12        0.7860   -5.5090   15.3860 C.3   264  O30264      0.0066
     13  C13        0.5680   -4.0010   15.1970 C.3   264  O30264      0.0452
     14  C14        0.8580   -0.8460   15.5330 C.3   264  O30264      0.2135
     15  C15       -0.2390   -0.2330   16.3610 C.2   264  O30264      0.2709
     16  O16       -0.9400   -0.9500   17.0430 O.2   264  O30264     -0.2708
     17  N17       -0.3620    1.0890   16.3110 N.am  264  O30264     -0.1708
     18  C18       -1.2970    1.7900   17.0310 C.ar  264  O30264      0.1066
     19  S19       -2.4280    1.0650   18.1200 S.2   264  O30264     -0.0750
     20  C20       -3.1020    2.6050   18.5160 C.ar  264  O30264      0.0047
     21  C21       -2.4930    3.7610   17.8350 C.ar  264  O30264     -0.0140
     22  C22       -1.3900    3.2500   16.9660 C.ar  264  O30264      0.0727
     23  C23       -2.9880    5.1660   18.1030 C.3   264  O30264      0.0268
     24  C24       -4.2840    5.1300   18.9510 C.3   264  O30264      0.0050
     25  C25       -4.3880    4.0230   20.0180 C.3   264  O30264      0.0055
     26  C26       -4.2420    2.5920   19.4940 C.3   264  O30264      0.0327
     27  C27       -0.5510    4.0580   16.0480 C.2   264  O30264      0.2662
     28  O28        0.5040    3.6330   15.5940 O.2   264  O30264     -0.2683
     29  N29       -1.1360    5.1950   15.7150 N.am  264  O30264     -0.2016
     30  C30       -0.7810    6.3090   14.8580 C.3   264  O30264      0.1170
     31  C31       -1.6300    7.4530   15.4070 C.3   264  O30264      0.0439
     32  C32       -2.1430    8.3670   14.3030 C.3   264  O30264      0.1111
     33  N33       -1.6280    7.9140   13.0260 N.3   264  O30264     -0.1313
@<TRIPOS>BOND
     1    33    32    1
     2    32    31    1
     3    30    31    1
     4    30    29    1
     5    13    12    1
     6    13     8    1
     7    12    11    1
     8    14    15    1
     9    14     7    1
    10    28    27    2
    11    29    27   am
    12    27    22    1
    13     8     7   ar
    14     8     9   ar
    15    17    15   am
    16    17    18    1
    17    15    16    2
    18     7     6   ar
    19    11    10    1
    20    22    18   ar
    21    22    21   ar
    22    18    19   ar
    23     9    10    1
    24     9     5   ar
    25     6     5   ar
    26    21    23    1
    27    21    20   ar
    28    23    24    1
    29     5     2    1
    30    19    20   ar
    31    20    26    1
    32    24    25    1
    33     1     2    1
    34     2     3    1
    35     2     4    1
    36    26    25    1
