@<TRIPOS>MOLECULE
3o2f_P54_A_1.pdb
 24 26 0 0 0
SMALL
GASTEIGER

@<TRIPOS>ATOM
      1  C1         6.0200   17.3620    3.7750 C.2     1  P541        0.2783
      2  C2         6.5750   17.8200    2.5980 C.2     1  P541        0.2379
      3  C3         4.5990   17.3860    3.9090 C.2     1  P541        0.4466
      4  N4         5.8050   18.2570    1.5910 N.pl3   1  P541       -0.2359
      5  N5         3.8780   17.8240    2.8860 N.2     1  P541       -0.0316
      6  C6         4.4480   18.2880    1.7250 C.3     1  P541        0.3643
      7  N7         6.9840   16.9380    4.5880 N.2     1  P541       -0.3226
      8  C8         8.1440   17.1710    3.7990 C.1     1  P541        0.1741
      9  N9         7.9570   17.6870    2.6030 N.2     1  P541       -0.3162
     10  S10        9.7290   16.7630    4.3790 S.3     1  P541        0.0086
     11  N11        4.0530   16.9520    5.0670 N.pl3   1  P541        0.2191
     12  C12        6.4160   18.7780    0.3430 C.3     1  P541        0.0984
     13  C13        6.9270   20.2340    0.5120 C.3     1  P541        0.0356
     14  C14        5.9130   21.2750    0.9380 C.3     1  P541        0.0788
     15  C15        5.5610   21.2660    2.1630 C.1     1  P541       -0.0779
     16  C16        5.1850   21.2820    3.4060 C.1     1  P541       -0.0141
     17  C17        9.6470   15.4940    5.5250 C.ar    1  P541        0.0368
     18  C18       10.2380   15.7830    6.7660 C.ar    1  P541        0.0066
     19  C19       10.2720   14.8020    7.7640 C.ar    1  P541       -0.0037
     20  C20        9.6820   13.5480    7.5270 C.ar    1  P541       -0.0221
     21  C21        9.0240   14.2510    5.2980 C.ar    1  P541       -0.0155
     22  C22        9.0460   13.2630    6.3100 C.ar    1  P541       -0.0080
     23  C23        8.3420   13.9270    3.9850 C.3     1  P541        0.0316
     24  C24        9.7090   12.4990    8.6390 C.3     1  P541        0.0310
@<TRIPOS>BOND
     1    12    13    1
     2    12     4    1
     3    13    14    1
     4    14    15    1
     5     4     6    1
     6     4     2    1
     7     6     5    1
     8    15    16    3
     9     2     9    2
    10     2     1    1
    11     9     8    2
    12     5     3    2
    13     1     3    1
    14     1     7    2
    15     8    10    1
    16     8     7    2
    17     3    11    1
    18    23    21    1
    19    10    17    1
    20    21    17   ar
    21    21    22   ar
    22    17    18   ar
    23    22    20   ar
    24    18    19   ar
    25    20    19   ar
    26    20    24    1
