@<TRIPOS>MOLECULE
3o2g_NM2_A_1.pdb
 10 9 0 0 0
SMALL
GASTEIGER

@<TRIPOS>ATOM
      1  N1        22.5670   31.9660   87.6360 N.pl3 391  NM2391     -0.3506
      2  C8        22.5460   32.7890   88.8900 C.3   391  NM2391      0.0960
      3  O4        22.6660   27.5530   87.8650 O.co2 391  NM2391     -0.2453
      4  C5        21.4450   27.3730   88.0820 C.2   391  NM2391      0.3693
      5  O7        20.8090   26.3850   88.4610 O.co2 391  NM2391     -0.2453
      6  C6        20.9520   28.5080   87.1960 C.3   391  NM2391      0.1413
      7  C2        21.8970   30.6930   87.9570 C.2   391  NM2391      0.0425
      8  C9        23.9230   31.6610   87.1190 C.3   391  NM2391      0.0960
      9  C10       21.8470   32.7040   86.5850 C.3   391  NM2391      0.0960
     10  C3        21.5780   29.7010   86.8800 C.2   391  NM2391      0.0000
@<TRIPOS>BOND
     1     9     1    1
     2    10     6    1
     3    10     7    2
     4     8     1    1
     5     6     4    1
     6     1     7    1
     7     1     2    1
     8     3     4   ar
     9     4     5   ar
