@<TRIPOS>MOLECULE
3o2k_DST_A_1.pdb
 14 13 0 0 0
SMALL
GASTEIGER

@<TRIPOS>ATOM
      1  O4       -22.6810   12.9740   -5.2490 O.3   501  DST501     -0.1143
      2  P1       -23.4940   14.2120   -5.2410 P.3   501  DST501      0.5394
      3  O6       -25.0770   13.9580   -5.4010 O.3   501  DST501     -0.1143
      4  O5       -23.1070   15.2160   -6.4390 O.2   501  DST501     -0.2220
      5  O2       -23.3310   15.0820   -3.8820 O.3   501  DST501     -0.1955
      6  P3       -21.8890   15.6410   -3.3760 P.3   501  DST501      0.4273
      7  O8       -21.5360   14.9360   -2.1230 O.3   501  DST501     -0.1309
      8  O7       -20.9370   15.6370   -4.5120 O.2   501  DST501     -0.2431
      9  S9       -22.3580   17.4560   -2.9600 S.3   501  DST501     -0.0237
     10  C10      -21.5210   17.7320   -1.3540 C.3   501  DST501      0.0942
     11  C11      -21.8600   19.0010   -0.9010 C.2   501  DST501     -0.0224
     12  C12      -22.2980   19.3910    0.3590 C.2   501  DST501     -0.0470
     13  C13      -22.4340   18.3960    1.5080 C.3   501  DST501      0.0261
     14  C14      -22.6460   20.8540    0.5970 C.3   501  DST501      0.0261
@<TRIPOS>BOND
     1     4     2    2
     2     3     2    1
     3     1     2    1
     4     2     5    1
     5     8     6    2
     6     5     6    1
     7     6     9    1
     8     6     7    1
     9     9    10    1
    10    10    11    1
    11    11    12    2
    12    12    14    1
    13    12    13    1
