@<TRIPOS>MOLECULE
3o2k_QRP_A_1.pdb
 21 24 0 0 0
SMALL
GASTEIGER

@<TRIPOS>ATOM
      1  C        -19.5910   24.1250    2.9720 C.2   502  QRP502      0.2499
      2  N        -19.0220   22.2710    4.4310 N.2   502  QRP502     -0.1972
      3  O        -19.8710   24.6150    1.9070 O.2   502  QRP502     -0.2727
      4  CA       -19.2110   22.7280    3.0650 C.3   502  QRP502      0.1944
      5  CB       -20.0310   21.7620    2.2140 C.3   502  QRP502      0.0588
      6  CG       -19.5070   20.3130    2.3040 C.2   502  QRP502     -0.0134
      7  OAA      -18.4810   22.8060    6.6400 O.2   502  QRP502     -0.2254
      8  CAH      -20.7170   26.3330    5.6790 C.3   502  QRP502      0.0244
      9  CAI      -19.8850   25.2410    6.4000 C.3   502  QRP502      0.0388
     10  CAJ      -20.3510   26.2040    4.2740 C.3   502  QRP502      0.0945
     11  CAN      -18.8370   23.2220    5.5650 C.1   502  QRP502      0.1445
     12  CAT      -19.0700   24.6290    5.3750 C.3   502  QRP502      0.1823
     13  NAU      -19.7720   24.8760    4.1630 N.am  502  QRP502     -0.2658
     14  CD1      -19.8410   19.3730    3.2890 C.2   502  QRP502      0.0907
     15  CD2      -18.5010   19.6160    1.2940 C.3   502  QRP502      0.0819
     16  NE1      -19.0940   18.0790    2.9810 N.2   502  QRP502     -0.2482
     17  CE2      -18.2850   18.2890    1.7380 C.2   502  QRP502      0.0665
     18  CE3      -17.7770   20.1310    0.0020 C.2   502  QRP502     -0.0164
     19  CH2      -16.7210   17.9410   -0.2350 C.2   502  QRP502      0.0009
     20  CZ2      -17.4260   17.4370    1.0230 C.2   502  QRP502      0.0153
     21  CZ3      -16.9490   19.3120   -0.6900 C.2   502  QRP502     -0.0038
@<TRIPOS>BOND
     1    21    19    1
     2    21    18    2
     3    19    20    2
     4    18    15    1
     5    20    17    1
     6    15    17    1
     7    15     6    1
     8    17    16    2
     9     3     1    2
    10     5     6    1
    11     5     4    1
    12     6    14    2
    13     1     4    1
    14     1    13   am
    15    16    14    1
    16     4     2    1
    17    13    10    1
    18    13    12    1
    19    10     8    1
    20     2    11    2
    21    12    11    1
    22    12     9    1
    23    11     7    2
    24     8     9    1
