@<TRIPOS>MOLECULE
3o2m_46A_A_1.pdb
 31 34 0 0 0
SMALL
GASTEIGER

@<TRIPOS>ATOM
      1  N1        37.9530   84.7360   46.1900 N.2   701  46A701     -0.3366
      2  C5        37.1450   82.1460   46.5290 C.3   701  46A701      0.1294
      3  C6        37.3730   81.4940   45.1750 C.ar  701  46A701     -0.0017
      4  C7        36.3500   80.6360   44.7230 C.ar  701  46A701     -0.0026
      5  C8        36.4550   79.9660   43.4910 C.ar  701  46A701     -0.0002
      6  C10       38.6050   80.9910   43.1090 C.ar  701  46A701     -0.0002
      7  C13       38.7560   78.5520   41.1860 C.ar  701  46A701      0.0007
      8  C15       38.0020   77.8130   38.9670 C.ar  701  46A701      0.0007
      9  C17       36.6420   79.4090   40.2190 C.ar  701  46A701      0.0659
     10  C28       39.3830   86.6190   46.7160 C.3   701  46A701      0.1107
     11  C         37.9900   80.7880   50.2600 C.3   701  46A701      0.0018
     12  C2        38.5730   82.0620   49.6850 C.3   701  46A701      0.0223
     13  C3        38.9610   81.7850   48.2260 C.3   701  46A701      0.1035
     14  N         38.2770   82.6930   47.2740 N.pl3 701  46A701     -0.2297
     15  C9        37.5750   80.1340   42.6710 C.ar  701  46A701      0.0006
     16  C11       38.5150   81.6730   44.3550 C.ar  701  46A701     -0.0026
     17  C12       37.6660   79.3700   41.3570 C.ar  701  46A701      0.0095
     18  C14       38.9410   77.7820   40.0180 C.ar  701  46A701      0.0000
     19  C16       36.8570   78.6310   39.0770 C.ar  701  46A701      0.0101
     20  C18       35.4150   80.2220   40.2520 C.1   701  46A701      0.0806
     21  N19       34.2010   79.7380   39.9440 N.2   701  46A701     -0.0711
     22  N20       33.2970   80.7330   40.0940 N.2   701  46A701     -0.0129
     23  N21       33.9700   81.8610   40.5040 N.2   701  46A701     -0.0129
     24  N22       35.2800   81.5310   40.5970 N.2   701  46A701     -0.0711
     25  C23       38.3050   86.0280   46.0020 C.2   701  46A701      0.1074
     26  C25       38.6580   84.0010   47.0960 C.1   701  46A701      0.2018
     27  N2        39.7060   84.4990   47.8110 N.2   701  46A701     -0.3366
     28  C27       40.0680   85.7900   47.6360 C.2   701  46A701      0.1074
     29  C29       41.2180   86.3010   48.4510 C.3   701  46A701      0.0630
     30  C30       37.5110   86.8180   45.0020 C.3   701  46A701      0.0630
     31  C31       37.6640   80.8270   51.7550 C.3   701  46A701      0.0001
@<TRIPOS>BOND
     1     8    19   ar
     2     8    18   ar
     3    19     9   ar
     4    21    22    1
     5    21    20    2
     6    18     7   ar
     7    22    23    2
     8     9    20    1
     9     9    17   ar
    10    20    24    2
    11    23    24    1
    12     7    17   ar
    13    17    15    1
    14    15     6   ar
    15    15     5   ar
    16     6    16   ar
    17     5     4   ar
    18    16     3   ar
    19     4     3   ar
    20    30    25    1
    21     3     2    1
    22    25     1    2
    23    25    10    1
    24     1    26    2
    25     2    14    1
    26    10    28    1
    27    26    14    1
    28    26    27    2
    29    14    13    1
    30    28    27    2
    31    28    29    1
    32    13    12    1
    33    12    11    1
    34    11    31    1
