@<TRIPOS>MOLECULE
3o2n_MZX_A_1.pdb
 16 17 0 0 0
SMALL
GASTEIGER

@<TRIPOS>ATOM
      1  C1        27.6120  -20.2010  -16.7030 C.2   233  MZX233      0.1265
      2  C2        28.0480  -19.3300  -15.5810 C.3   233  MZX233      0.1320
      3  C3        27.2990  -19.3780  -14.3100 C.2   233  MZX233      0.1661
      4  C4        26.1390  -20.3050  -14.2220 C.2   233  MZX233      0.1656
      5  C5        25.7990  -21.0870  -15.3250 C.2   233  MZX233      0.0420
      6  C6        26.5110  -21.0380  -16.5260 C.2   233  MZX233      0.0363
      7  C7        29.2030  -18.4050  -15.6630 C.2   233  MZX233     -0.0178
      8  C8        29.4970  -17.6500  -14.5340 C.2   233  MZX233      0.0989
      9  C9        28.7260  -17.7670  -13.3750 C.1   233  MZX233      0.2046
     10  N10       27.6760  -18.6020  -13.2860 N.2   233  MZX233     -0.3335
     11  O11       28.2830  -20.1830  -17.8970 O.2   233  MZX233     -0.4750
     12  O12       25.4090  -20.3890  -13.0650 O.2   233  MZX233     -0.4691
     13  C13       24.4560  -21.4360  -12.8980 C.3   233  MZX233      0.2526
     14  C14       28.0810  -21.2280  -18.8450 C.3   233  MZX233      0.2520
     15  C15       30.0250  -18.2890  -16.9190 C.3   233  MZX233      0.0280
     16  O17       29.0250  -17.0690  -12.3820 O.2   233  MZX233     -0.2093
@<TRIPOS>BOND
     1    14    11    1
     2    11     1    1
     3    15     7    1
     4     1     6    2
     5     1     2    1
     6     6     5    1
     7     7     2    1
     8     7     8    2
     9     2     3    1
    10     5     4    2
    11     8     9    1
    12     3     4    1
    13     3    10    2
    14     4    12    1
    15     9    10    2
    16     9    16    2
    17    12    13    1
