@<TRIPOS>MOLECULE
3o2q_III_F_1.pdb
 49 51 0 0 0
SMALL
GASTEIGER

@<TRIPOS>ATOM
      1  N          3.9880   26.5280   25.5010 N.3     3  PRO3       -0.2102
      2  CA         3.0540   26.0610   26.5610 C.3     3  PRO3        0.1504
      3  C          3.6890   26.1460   27.9690 C.2     3  PRO3        0.2576
      4  O          4.2400   25.1690   28.4790 O.2     3  PRO3       -0.2718
      5  CB         2.7430   24.6080   26.1530 C.3     3  PRO3        0.0282
      6  CG         3.8960   24.1990   25.1850 C.3     3  PRO3        0.0208
      7  CD         4.7230   25.4230   24.8550 C.3     3  PRO3        0.0893
      8  N          3.6200   27.3130   28.5890 N.am    4  THR4       -0.1939
      9  CA         4.4210   27.5370   29.7930 C.3     4  THR4        0.2028
     10  C          3.6000   27.4350   31.0630 C.2     4  THR4        0.2643
     11  O          2.3890   27.5740   31.0520 O.2     4  THR4       -0.2714
     12  CB         5.1160   28.9290   29.7790 C.3     4  THR4        0.1808
     13  OG1        4.1130   29.9560   29.7180 O.3     4  THR4       -0.2208
     14  CG2        6.0940   29.0680   28.6140 C.3     4  THR4        0.0379
     15  N          4.2950   27.2480   32.1720 N.am    5  SER5       -0.1937
     16  CA         3.6650   27.1440   33.4750 C.3     5  SER5        0.2012
     17  CB         3.8700   25.7250   34.0040 C.3     5  SER5        0.1846
     18  OG         3.3780   25.6010   35.3150 O.3     5  SER5       -0.2679
     19  C          4.1890   28.2600   34.4360 C.2     5  SER5        0.2484
     20  O          5.3130   28.1660   34.9540 O.2     5  SER5       -0.2729
     21  P          2.7030   24.2030   35.7400 P.3     5  SER5        0.5327
     22  O1P        1.2970   24.6390   36.3920 O.3     5  SER5       -0.1145
     23  O2P        3.6730   23.5260   36.8090 O.3     5  SER5       -0.1145
     24  O3P        2.4990   23.1700   34.5500 O.2     5  SER5       -0.2224
     25  N          3.4000   29.3410   34.6450 N.am    6  PRO6       -0.2715
     26  CA         2.0860   29.6450   34.0690 C.3     6  PRO6        0.1536
     27  C          2.1770   30.2330   32.6700 C.2     6  PRO6        0.2599
     28  O          3.2800   30.3970   32.1410 O.2     6  PRO6       -0.2715
     29  CB         1.5060   30.6850   35.0370 C.3     6  PRO6        0.0310
     30  CG         2.6910   31.3930   35.5530 C.3     6  PRO6        0.0237
     31  CD         3.8170   30.3790   35.6050 C.3     6  PRO6        0.0939
     32  N          1.0110   30.5200   32.0900 N.am    7  SER7       -0.1936
     33  CA         0.8600   31.1120   30.7430 C.3     7  SER7        0.2055
     34  C          1.4860   32.4750   30.7090 C.2     7  SER7        0.2643
     35  O          1.5900   33.1320   31.7520 O.2     7  SER7       -0.2714
     36  CB        -0.6230   31.3070   30.4280 C.3     7  SER7        0.2130
     37  OG        -1.1930   30.0860   30.0230 O.3     7  SER7       -0.2179
     38  N          1.8960   32.8990   29.5150 N.am    8  TYR8       -0.1973
     39  CA         2.2900   34.2940   29.2850 C.3     8  TYR8        0.1639
     40  C          1.1750   35.2800   29.7090 C.2     8  TYR8        0.2290
     41  O         -0.0040   35.0460   29.4360 O.2     8  TYR8       -0.2864
     42  CB         2.6910   34.5460   27.8180 C.3     8  TYR8        0.0560
     43  CG         2.9850   36.0220   27.5680 C.ar    8  TYR8       -0.0198
     44  CD1        4.2280   36.5730   27.9130 C.ar    8  TYR8       -0.0009
     45  CD2        2.0070   36.8720   27.0300 C.ar    8  TYR8       -0.0009
     46  CE1        4.4910   37.9390   27.7210 C.ar    8  TYR8        0.0417
     47  CE2        2.2600   38.2330   26.8340 C.ar    8  TYR8        0.0417
     48  CZ         3.5050   38.7590   27.1800 C.ar    8  TYR8        0.1957
     49  OH         3.7690   40.0980   26.9890 O.3     8  TYR8       -0.2866
@<TRIPOS>BOND
     1     7     6    1
     2     7     1    1
     3     6     5    1
     4     1     2    1
     5     5     2    1
     6     2     3    1
     7    47    45   ar
     8    47    48   ar
     9    49    48    1
    10    45    43   ar
    11    48    46   ar
    12    43    42    1
    13    43    44   ar
    14    46    44   ar
    15    42    39    1
    16     3     4    2
    17     3     8   am
    18     8     9    1
    19    14    12    1
    20    39    38    1
    21    39    40    1
    22    41    40    2
    23    38    34   am
    24    13    12    1
    25    12     9    1
    26     9    10    1
    27    37    36    1
    28    36    33    1
    29    34    33    1
    30    34    35    2
    31    33    32    1
    32    11    10    2
    33    10    15   am
    34    32    27   am
    35    28    27    2
    36    15    16    1
    37    27    26    1
    38    16    17    1
    39    16    19    1
    40    17    18    1
    41    26    25    1
    42    26    29    1
    43    19    25   am
    44    19    20    2
    45    24    21    2
    46    25    31    1
    47    29    30    1
    48    18    21    1
    49    30    31    1
    50    21    22    1
    51    21    23    1
