@<TRIPOS>MOLECULE
3o2w_O2W_L_1.pdb
 29 32 0 0 0
SMALL
GASTEIGER

@<TRIPOS>ATOM
      1  CAA       77.2040   -0.5590  -22.6960 C.3   215  O2W215      0.2557
      2  NAB       67.8770    1.9770  -15.8040 N.pl3 215  O2W215     -0.1281
      3  OAC       75.8200   -0.1580  -25.0360 O.2   215  O2W215     -0.2459
      4  OAD       70.9020   -1.3350  -24.1910 O.2   215  O2W215     -0.2246
      5  OAE       66.3060   -2.8830  -19.6080 O.2   215  O2W215     -0.2741
      6  OAF       69.9220   -0.4780  -20.9180 O.2   215  O2W215     -0.2741
      7  CAG       68.9260   -4.9270  -20.5300 C.3   215  O2W215      0.0022
      8  CAH       70.2170   -4.1300  -20.8520 C.3   215  O2W215      0.0206
      9  CAI       66.8900    1.0090  -17.6900 C.ar  215  O2W215      0.0193
     10  CAJ       69.1070    0.3310  -16.9970 C.ar  215  O2W215      0.0193
     11  CAK       66.9730    0.1120  -18.7440 C.ar  215  O2W215      0.0167
     12  CAL       69.1860   -0.5790  -18.0500 C.ar  215  O2W215      0.0167
     13  CAM       68.3740   -5.0030  -22.9860 C.3   215  O2W215      0.0022
     14  CAN       73.5990   -0.4120  -24.1880 C.3   215  O2W215      0.3184
     15  CAO       69.7210   -4.2750  -23.3070 C.3   215  O2W215      0.0206
     16  NAP       71.3220   -2.5870  -22.3490 N.am  215  O2W215     -0.1716
     17  OAQ       75.7730   -0.8610  -22.8670 O.3   215  O2W215     -0.4418
     18  OAR       72.9340   -1.1970  -23.1510 O.3   215  O2W215     -0.4212
     19  CAS       75.1510   -0.4670  -24.0490 C.2   215  O2W215      0.3623
     20  CAT       71.6550   -1.6960  -23.2850 C.2   215  O2W215      0.4216
     21  CAU       67.2480   -2.4930  -20.2880 C.2   215  O2W215      0.2352
     22  CAV       69.0220   -1.3220  -20.9490 C.2   215  O2W215      0.2367
     23  CAW       67.9620    1.1190  -16.8130 C.ar  215  O2W215      0.0892
     24  CAX       68.0980   -0.6980  -18.9160 C.ar  215  O2W215      0.0607
     25  CAY       67.8530   -4.6110  -21.5910 C.3   215  O2W215      0.0093
     26  CAZ       67.5760   -3.1060  -21.6460 C.3   215  O2W215      0.0877
     27  CBA       68.8350   -2.3250  -22.0820 C.3   215  O2W215      0.1044
     28  NBB       68.1160   -1.5070  -19.9790 N.am  215  O2W215     -0.2081
     29  CBC       70.0440   -3.3020  -22.1670 C.3   215  O2W215      0.0905
@<TRIPOS>BOND
     1     3    19    2
     2     4    20    2
     3    14    19    1
     4    14    18    1
     5    19    17    1
     6    15    13    1
     7    15    29    1
     8    20    18    1
     9    20    16   am
    10    13    25    1
    11    17     1    1
    12    16    29    1
    13    29    27    1
    14    29     8    1
    15    27    26    1
    16    27    22    1
    17    26    25    1
    18    26    21    1
    19    25     7    1
    20    22     6    2
    21    22    28   am
    22     8     7    1
    23    21    28   am
    24    21     5    2
    25    28    24    1
    26    24    11   ar
    27    24    12   ar
    28    11     9   ar
    29    12    10   ar
    30     9    23   ar
    31    10    23   ar
    32    23     2    1
