@<TRIPOS>MOLECULE
3o2x_3O2_A_1.pdb
 43 46 0 0 0
SMALL
GASTEIGER

@<TRIPOS>ATOM
      1  C1        47.4720   79.0340   72.4140 C.3   1801  3O21801     0.1569
      2  F1        41.1760   93.2830   84.8700 F     1801  3O21801    -0.1328
      3  N1        47.4030   76.1270   72.4770 N.3   1801  3O21801    -0.2705
      4  O1        47.7440   72.4860   72.1510 O.3   1801  3O21801    -0.3496
      5  S1        46.8410   80.4630   71.5250 S.O2  1801  3O21801     0.0109
      6  C2        46.6930   76.8860   73.5400 C.3   1801  3O21801     0.0743
      7  F2        40.6750   91.1490   84.5980 F     1801  3O21801    -0.1328
      8  N2        49.7050   79.6770   73.1560 N.am  1801  3O21801    -0.2013
      9  O2        47.9280   81.0200   70.7430 O.2   1801  3O21801    -0.1684
     10  C3        48.6300   76.8160   72.0120 C.3   1801  3O21801     0.0743
     11  F3        40.0330   92.6510   83.1120 F     1801  3O21801    -0.1328
     12  N3        42.8570   86.1250   78.7270 N.pl3 1801  3O21801    -0.1149
     13  O3        45.5680   80.1510   70.9040 O.2   1801  3O21801    -0.1684
     14  C4        48.2170   78.1490   71.4250 C.3   1801  3O21801     0.0458
     15  N4        41.9360   86.6880   77.9380 N.pl3 1801  3O21801    -0.0182
     16  O4        45.7600   84.5810   75.5810 O.3   1801  3O21801    -0.4754
     17  C5        46.2980   78.2500   72.9920 C.3   1801  3O21801     0.0458
     18  N5        41.6340   87.8110   78.5710 N.2   1801  3O21801    -0.0864
     19  O5        48.0230   79.6120   74.6900 O.2   1801  3O21801    -0.5380
     20  C6        48.4020   79.4640   73.5360 C.2   1801  3O21801     0.1071
     21  N6        43.2020   86.7880   79.8350 N.2   1801  3O21801    -0.1062
     22  O6        50.5020   80.0720   74.2620 O.3   1801  3O21801    -0.4026
     23  C7        47.7040   74.7420   72.9080 C.3   1801  3O21801     0.1046
     24  O7        42.2760   92.1570   83.2570 O.3   1801  3O21801    -0.4045
     25  C8        47.4100   73.8100   71.7510 C.3   1801  3O21801     0.1595
     26  C9        46.5280   71.7600   72.3180 C.3   1801  3O21801     0.1742
     27  C10       46.4630   81.6820   72.7620 C.ar  1801  3O21801     0.1062
     28  C11       45.9510   83.5780   74.6440 C.ar  1801  3O21801     0.1386
     29  C12       47.4360   82.6010   73.0670 C.ar  1801  3O21801     0.0215
     30  C13       45.2300   81.6920   73.3780 C.ar  1801  3O21801     0.0215
     31  C14       44.9710   82.6560   74.3310 C.ar  1801  3O21801     0.0382
     32  C15       47.1750   83.5570   74.0180 C.ar  1801  3O21801     0.0382
     33  C16       45.0810   84.0310   76.6980 C.3   1801  3O21801     0.2073
     34  C17       44.6970   85.1900   77.5730 C.3   1801  3O21801     0.0726
     35  C18       43.4670   84.8640   78.3800 C.3   1801  3O21801     0.1416
     36  C19       42.4030   87.8490   79.7060 C.1   1801  3O21801     0.0737
     37  C20       42.3570   88.9490   80.6360 C.ar  1801  3O21801     0.0656
     38  C21       42.2860   91.0830   82.3770 C.ar  1801  3O21801     0.1468
     39  C22       42.9650   88.8500   81.8700 C.ar  1801  3O21801     0.0132
     40  C23       41.7160   90.1170   80.2760 C.ar  1801  3O21801     0.0132
     41  C24       41.6820   91.1890   81.1410 C.ar  1801  3O21801     0.0379
     42  C25       42.9300   89.9190   82.7400 C.ar  1801  3O21801     0.0379
     43  C26       41.0360   92.2890   83.9500 C.3   1801  3O21801     0.5753
@<TRIPOS>BOND
     1     9     5    2
     2    13     5    2
     3    14    10    1
     4    14     1    1
     5     5     1    1
     6     5    27    1
     7    25     4    1
     8    25    23    1
     9    10     3    1
    10     4    26    1
    11     1    17    1
    12     1    20    1
    13     3    23    1
    14     3     6    1
    15    27    29   ar
    16    27    30   ar
    17    17     6    1
    18    29    32   ar
    19     8    20   am
    20     8    22    1
    21    30    31   ar
    22    20    19    2
    23    32    28   ar
    24    31    28   ar
    25    28    16    1
    26    16    33    1
    27    33    34    1
    28    34    35    1
    29    15    18    1
    30    15    12    1
    31    35    12    1
    32    18    36    2
    33    12    21    1
    34    36    21    2
    35    36    37    1
    36    40    37   ar
    37    40    41   ar
    38    37    39   ar
    39    41    38   ar
    40    39    42   ar
    41    38    42   ar
    42    38    24    1
    43    11    43    1
    44    24    43    1
    45    43     7    1
    46    43     2    1
