@<TRIPOS>MOLECULE
3o31_3O3_A_1.pdb
 17 16 0 0 0
SMALL
GASTEIGER

@<TRIPOS>ATOM
      1  N2        31.7870   -0.8390   -6.7500 N.3     1  3O31       -0.1208
      2  N3        30.3430   -3.1540   -3.3450 N.3     1  3O31       -0.2083
      3  O3        28.4290    0.3400   -6.6830 O.co2   1  3O31       -0.2441
      4  C4        30.3690   -0.9490   -6.4670 C.3     1  3O31        0.1958
      5  OXT       30.3470    1.4330   -6.6730 O.co2   1  3O31       -0.2441
      6  C5        29.6710    0.3720   -6.6230 C.2     1  3O31        0.3819
      7  O5        29.0640   -4.1040   -1.2570 O.co2   1  3O31       -0.2441
      8  C6        30.1720   -1.3640   -5.0140 C.3     1  3O31        0.0494
      9  O6        30.3140   -5.9080   -1.0380 O.co2   1  3O31       -0.2441
     10  C7        30.5200   -2.8260   -4.7560 C.3     1  3O31        0.0913
     11  O7        32.4740   -1.9440   -2.0820 O.co2   1  3O31       -0.2457
     12  C8        30.7190   -4.4990   -2.8800 C.3     1  3O31        0.1763
     13  O8        33.1520   -2.3110   -0.0150 O.co2   1  3O31       -0.2457
     14  C9        32.2430   -4.6750   -2.7340 C.3     1  3O31        0.0407
     15  C10       32.8890   -4.2240   -1.4130 C.3     1  3O31        0.1161
     16  C11       29.9670   -4.8740   -1.6380 C.2     1  3O31        0.3803
     17  C12       32.8420   -2.7230   -1.1640 C.2     1  3O31        0.3649
@<TRIPOS>BOND
     1     1     4    1
     2     3     6   ar
     3     5     6   ar
     4     6     4    1
     5     4     8    1
     6     8    10    1
     7    10     2    1
     8     2    12    1
     9    12    14    1
    10    12    16    1
    11    14    15    1
    12    11    17   ar
    13    16     7   ar
    14    16     9   ar
    15    15    17    1
    16    17    13   ar
