@<TRIPOS>MOLECULE
3o32_35C_A_1.pdb
 10 10 0 0 0
SMALL
GASTEIGER

@<TRIPOS>ATOM
      1  C1        24.4190   60.8050  295.5900 C.ar  258  35C258      0.2360
      2  C2        24.9620   59.7290  296.4160 C.ar  258  35C258      0.2447
      3  C3        26.1170   59.0810  295.9900 C.ar  258  35C258      0.1006
      4  C4        26.7430   59.4710  294.8150 C.ar  258  35C258      0.0262
      5  C5        26.2200   60.4990  294.0590 C.ar  258  35C258      0.0619
      6  C6        25.0670   61.1610  294.4370 C.ar  258  35C258      0.0568
      7  O7        23.3020   61.4340  295.9930 O.3   258  35C258     -0.2831
      8  O8        24.2810   59.4190  297.5530 O.3   258  35C258     -0.2822
      9 CL9        26.8570   57.7480  296.9490 Cl    258  35C258     -0.0788
     10 CL10       27.0200   60.9940  292.5390 Cl    258  35C258     -0.0821
@<TRIPOS>BOND
     1    10     5    1
     2     5     6   ar
     3     5     4   ar
     4     6     1   ar
     5     4     3   ar
     6     1     7    1
     7     1     2   ar
     8     3     2   ar
     9     3     9    1
    10     2     8    1
