@<TRIPOS>MOLECULE
3o3c_UDP_A_1.pdb
 25 26 0 0 0
SMALL
GASTEIGER

@<TRIPOS>ATOM
      1  N1        45.4810  -24.7200   35.0050 N.am  901  UDP901     -0.1766
      2  C2        44.2960  -24.2540   34.4500 C.1   901  UDP901      0.2845
      3  N3        43.2860  -23.8040   35.2700 N.2   901  UDP901     -0.2452
      4  C4        43.4400  -23.8370   36.6330 C.1   901  UDP901      0.2182
      5  C5        44.6160  -24.3300   37.1730 C.2   901  UDP901      0.1242
      6  C6        45.6750  -24.6830   36.3500 C.2   901  UDP901      0.0929
      7  O2        44.1280  -24.2160   33.2230 O.2   901  UDP901     -0.1918
      8  O4        42.5320  -23.4290   37.3580 O.2   901  UDP901     -0.2085
      9  C1'       46.5620  -25.2290   34.1390 C.3   901  UDP901      0.2401
     10  C2'       47.7810  -24.3380   33.9960 C.3   901  UDP901      0.2319
     11  O2'       47.9020  -23.9430   32.6500 O.3   901  UDP901     -0.2157
     12  C3'       48.9530  -25.2120   34.3640 C.3   901  UDP901      0.2158
     13  C4'       48.3880  -26.5820   34.6080 C.3   901  UDP901      0.1799
     14  O4'       47.0020  -26.4450   34.6840 O.3   901  UDP901     -0.3320
     15  O3'       49.7800  -25.3740   33.2460 O.3   901  UDP901     -0.2175
     16  C5'       48.8810  -27.1740   35.9080 C.3   901  UDP901      0.1813
     17  O5'       50.1100  -27.8100   35.6780 O.3   901  UDP901     -0.3111
     18  PA        50.3280  -29.3010   36.2090 P.3   901  UDP901      0.2231
     19  O1A       50.4660  -29.2270   37.6730 O.3   901  UDP901     -0.4370
     20  O2A       49.2220  -30.2080   35.8510 O.2   901  UDP901     -0.5169
     21  O3A       51.7080  -29.7760   35.5300 O.3   901  UDP901     -0.2261
     22  PB        53.1640  -29.2780   36.0080 P.3   901  UDP901      0.5373
     23  O1B       53.8730  -28.8010   34.8070 O.2   901  UDP901     -0.2221
     24  O2B       53.9230  -30.4110   36.5840 O.3   901  UDP901     -0.1143
     25  O3B       53.0390  -28.1960   37.0110 O.3   901  UDP901     -0.1143
@<TRIPOS>BOND
     1    11    10    1
     2     7     2    2
     3    15    12    1
     4    10     9    1
     5    10    12    1
     6     9    14    1
     7     9     1    1
     8    12    13    1
     9     2     1   am
    10     2     3    2
    11    13    14    1
    12    13    16    1
    13    23    22    2
    14     1     6    1
    15     3     4    2
    16    21    22    1
    17    21    18    1
    18    17    16    1
    19    17    18    1
    20    20    18    2
    21    22    24    1
    22    22    25    1
    23    18    19    1
    24     6     5    2
    25     4     5    1
    26     4     8    2
