@<TRIPOS>MOLECULE
3o3j_BB4_A_1.pdb
 15 16 0 0 0
SMALL
GASTEIGER

@<TRIPOS>ATOM
      1 BR          2.1850   21.7530  -28.9070 Br    300  BB4300     -0.0720
      2  N1        -1.2370   16.7720  -26.3670 N.am  300  BB4300     -0.2026
      3  O2        -3.4880   17.4590  -26.4460 O.2   300  BB4300     -0.5392
      4  N3        -3.5430   20.3570  -30.8070 N.2   300  BB4300     -0.2442
      5  C4        -3.6020   19.1170  -30.1800 C.2   300  BB4300      0.0950
      6  C5        -2.5230   18.7330  -29.4810 C.2   300  BB4300      0.0045
      7  C6        -1.7070   19.8610  -29.6930 C.2   300  BB4300      0.0124
      8  C7        -0.3930   20.2040  -29.2340 C.2   300  BB4300     -0.0095
      9  C8         0.2750   21.4740  -29.5900 C.3   300  BB4300      0.1009
     10  C9        -0.4890   22.3880  -30.4460 C.2   300  BB4300     -0.0092
     11  C10       -1.7900   22.0610  -30.9410 C.2   300  BB4300      0.0157
     12  C11       -2.3730   20.8570  -30.5490 C.2   300  BB4300      0.0805
     13  C12       -2.3520   17.3750  -28.7310 C.3   300  BB4300      0.0791
     14  C13       -2.4190   17.2110  -27.0600 C.2   300  BB4300      0.0913
     15  O14       -1.0400   16.5700  -24.9850 O.3   300  BB4300     -0.4026
@<TRIPOS>BOND
     1    11    12    1
     2    11    10    2
     3     4    12    2
     4     4     5    1
     5    12     7    1
     6    10     9    1
     7     5     6    2
     8     7     6    1
     9     7     8    2
    10     9     8    1
    11     9     1    1
    12     6    13    1
    13    13    14    1
    14    14     3    2
    15    14     2   am
    16     2    15    1
