@<TRIPOS>MOLECULE
3o3l_4IP_A_1.pdb
 28 28 0 0 0
SMALL
GASTEIGER

@<TRIPOS>ATOM
      1  C1        -3.6690   -4.0460   16.3750 C.3   1900  4IP1900     0.1917
      2  O1        -2.3930   -3.6020   16.5130 O.3   1900  4IP1900    -0.2673
      3  C2        -3.7370   -5.6560   16.4260 C.3   1900  4IP1900     0.2120
      4  O2        -2.7710   -6.2240   15.5440 O.3   1900  4IP1900    -0.2177
      5  C3        -5.1440   -6.1480   15.9980 C.3   1900  4IP1900     0.1890
      6  O3        -5.1800   -7.6020   15.8870 O.3   1900  4IP1900    -0.2674
      7  C4        -5.5750   -5.5590   14.6380 C.3   1900  4IP1900     0.1865
      8  O4        -6.9480   -5.9230   14.4240 O.3   1900  4IP1900    -0.2675
      9  C5        -5.4800   -4.0210   14.6260 C.3   1900  4IP1900     0.1890
     10  O5        -5.8740   -3.5390   13.3640 O.3   1900  4IP1900    -0.2674
     11  C6        -4.0710   -3.5390   14.9620 C.3   1900  4IP1900     0.2120
     12  O6        -4.0440   -2.0270   14.9850 O.3   1900  4IP1900    -0.2177
     13  P1        -1.6090   -3.3980   17.8370 P.3   1900  4IP1900     0.5327
     14  O1P       -1.5630   -4.7230   18.5940 O.3   1900  4IP1900    -0.1145
     15  O2P       -0.2000   -2.9640   17.4370 O.2   1900  4IP1900    -0.2224
     16  O3P       -2.2450   -2.3160   18.6660 O.3   1900  4IP1900    -0.1145
     17  P3        -5.4890   -8.5790   17.2030 P.3   1900  4IP1900     0.5327
     18  O4P       -5.6580  -10.0000   16.6850 O.2   1900  4IP1900    -0.2224
     19  O5P       -4.4000   -8.4910   18.2650 O.3   1900  4IP1900    -0.1145
     20  O6P       -6.8170   -8.1670   17.8250 O.3   1900  4IP1900    -0.1145
     21  P4        -7.3400   -7.0840   13.2930 P.3   1900  4IP1900     0.5327
     22  O7P       -8.7810   -7.4930   13.5480 O.3   1900  4IP1900    -0.1145
     23  O8P       -7.1580   -6.5310   11.8680 O.2   1900  4IP1900    -0.2224
     24  O9P       -6.4100   -8.2810   13.4840 O.3   1900  4IP1900    -0.1145
     25  P5        -7.4810   -3.1450   13.1230 P.3   1900  4IP1900     0.5327
     26  OPF       -7.4750   -1.6210   13.1680 O.3   1900  4IP1900    -0.1145
     27  OPG       -8.3580   -3.6840   14.2190 O.3   1900  4IP1900    -0.1145
     28  OPH       -7.9940   -3.6890   11.7750 O.2   1900  4IP1900    -0.2224
@<TRIPOS>BOND
     1    28    25    2
     2    23    21    2
     3    25    26    1
     4    25    10    1
     5    25    27    1
     6    21    24    1
     7    21    22    1
     8    21     8    1
     9    10     9    1
    10     8     7    1
    11     9     7    1
    12     9    11    1
    13     7     5    1
    14    11    12    1
    15    11     1    1
    16     4     3    1
    17     6     5    1
    18     6    17    1
    19     5     3    1
    20     1     3    1
    21     1     2    1
    22     2    13    1
    23    18    17    2
    24    17    20    1
    25    17    19    1
    26    15    13    2
    27    13    14    1
    28    13    16    1
