@<TRIPOS>MOLECULE
3o3p_GDP_B_1.pdb
 40 42 0 0 0
SMALL
GASTEIGER

@<TRIPOS>ATOM
      1  PB        22.4940  -28.8920   15.1130 P.3   336  GDP336      0.5373
      2  O1B       21.6840  -28.1120   14.1170 O.2   336  GDP336     -0.2221
      3  O2B       22.9230  -30.1780   14.4720 O.3   336  GDP336     -0.1143
      4  O3B       23.7060  -28.1000   15.5490 O.3   336  GDP336     -0.1143
      5  O3A       21.5600  -29.1940   16.3500 O.3   336  GDP336     -0.2261
      6  PA        22.0520  -29.4900   17.8220 P.3   336  GDP336      0.2224
      7  O1A       22.7620  -28.3240   18.4510 O.3   336  GDP336     -0.4370
      8  O2A       22.9270  -30.7150   17.8780 O.2   336  GDP336     -0.5170
      9  O5'       20.7180  -29.7280   18.6060 O.3   336  GDP336     -0.3245
     10  C5'       19.5980  -30.1480   17.8990 C.3   336  GDP336      0.0836
     11  C4'       18.5180  -30.4750   18.8960 C.3   336  GDP336      0.1131
     12  O4'       18.9860  -31.3380   19.8890 O.3   336  GDP336     -0.3474
     13  C3'       18.0610  -29.2620   19.6030 C.3   336  GDP336      0.1133
     14  O3'       16.7010  -29.3660   19.7500 O.3   336  GDP336     -0.3864
     15  C2'       18.8340  -29.2770   20.8800 C.3   336  GDP336      0.1266
     16  O2'       18.1930  -28.6440   21.9280 O.3   336  GDP336     -0.3849
     17  C1'       18.9630  -30.7270   21.1270 C.3   336  GDP336      0.1617
     18  N9        20.1440  -31.0730   21.9090 N.pl3 336  GDP336     -0.2241
     19  C8        21.4600  -30.7670   21.6410 C.2   336  GDP336      0.1451
     20  N7        22.2860  -31.2850   22.6110 N.2   336  GDP336     -0.3865
     21  C5        21.4620  -31.9560   23.5400 C.2   336  GDP336      0.2296
     22  C6        21.6620  -32.7140   24.7920 C.2   336  GDP336      0.2859
     23  O6        22.9310  -32.8700   25.2890 O.2   336  GDP336     -0.2668
     24  N1        20.5900  -33.2450   25.4490 N.am  336  GDP336     -0.2418
     25  C2        19.3120  -33.0750   24.9480 C.2   336  GDP336      0.2395
     26  N2        18.2120  -33.6430   25.6520 N.pl3 336  GDP336     -0.3206
     27  N3        19.0450  -32.3930   23.8080 N.2   336  GDP336     -0.3551
     28  C4        20.0920  -31.8160   23.0760 C.2   336  GDP336      0.2272
     29  H5'       19.2940  -29.4240   17.3190 H     336  GDP336      0.0591
     30 H5''       19.8100  -30.9320   17.3640 H     336  GDP336      0.0591
     31  H4'       17.7650  -30.8840   18.4390 H     336  GDP336      0.0647
     32  H3'       18.3070  -28.4740   19.0960 H     336  GDP336      0.0647
     33 HO3'       16.3330  -28.5630   19.6740 H     336  GDP336      0.2100
     34  H2'       19.6990  -28.8650   20.7540 H     336  GDP336      0.0663
     35 HO2'       17.4220  -28.3070   21.6430 H     336  GDP336      0.2101
     36  H1'       18.1690  -31.0150   21.6090 H     336  GDP336      0.0841
     37  H8        21.7610  -30.2570   20.8810 H     336  GDP336      0.1149
     38  HN1       20.7170  -33.7130   26.2180 H     336  GDP336      0.1589
     39 HN21       18.3590  -34.1580   26.3880 H     336  GDP336      0.1459
     40 HN22       17.3590  -33.4870   25.3670 H     336  GDP336      0.1459
@<TRIPOS>BOND
     1     2     1    2
     2     3     1    1
     3     1     4    1
     4     1     5    1
     5     5     6    1
     6    29    10    1
     7    30    10    1
     8     6     8    2
     9     6     7    1
    10     6     9    1
    11    10     9    1
    12    10    11    1
    13    31    11    1
    14    11    13    1
    15    11    12    1
    16    32    13    1
    17    13    14    1
    18    13    15    1
    19    33    14    1
    20    12    17    1
    21    34    15    1
    22    15    17    1
    23    15    16    1
    24    37    19    1
    25    17    36    1
    26    17    18    1
    27    19    18    1
    28    19    20    2
    29    35    16    1
    30    18    28    1
    31    20    21    2
    32    28    21    1
    33    28    27    2
    34    21    22    1
    35    27    25    2
    36    22    23    2
    37    22    24   am
    38    25    24    1
    39    25    26    1
    40    40    26    1
    41    24    38    1
    42    26    39    1
