@<TRIPOS>MOLECULE
3o3p_GDD_A_1.pdb
 39 42 0 0 0
SMALL
GASTEIGER

@<TRIPOS>ATOM
      1  N2        47.4150  -23.9290  -12.8100 N.pl3 340  GDD340     -0.0226
      2  C2        46.2390  -24.2110  -12.0340 C.1   340  GDD340      0.2531
      3  N1        45.3850  -25.1640  -12.4150 N.2   340  GDD340     -0.2485
      4  N3        46.0000  -23.4680  -10.9020 N.2   340  GDD340     -0.3074
      5  C4        44.8770  -23.6970  -10.1460 C.2   340  GDD340      0.2300
      6  C5        43.9810  -24.6750  -10.5150 C.2   340  GDD340      0.2182
      7  C6        44.2600  -25.4290  -11.7030 C.1   340  GDD340      0.2372
      8  O6        43.5000  -26.2820  -12.0620 O.2   340  GDD340     -0.2069
      9  N7        42.9800  -24.6670   -9.5870 N.2   340  GDD340     -0.2322
     10  C8        43.2700  -23.6830   -8.6510 C.3   340  GDD340      0.2246
     11  N9        44.3940  -23.0950   -8.9780 N.pl3 340  GDD340     -0.2354
     12  C1'       45.0600  -22.0440   -8.2750 C.3   340  GDD340      0.2293
     13  C2'       44.2000  -20.8920   -7.9520 C.3   340  GDD340      0.2310
     14  O2'       44.1890  -20.0330   -9.0470 O.3   340  GDD340     -0.2158
     15  C3'       44.8300  -20.3350   -6.7380 C.3   340  GDD340      0.2158
     16  O3'       45.8440  -19.4880   -7.0640 O.3   340  GDD340     -0.2175
     17  C4'       45.3710  -21.5150   -6.0170 C.3   340  GDD340      0.1799
     18  O4'       45.6080  -22.4970   -6.9850 O.3   340  GDD340     -0.3326
     19  C5'       44.4390  -21.9210   -4.8380 C.3   340  GDD340      0.1813
     20  O5'       43.4500  -22.6950   -5.3010 O.3   340  GDD340     -0.3112
     21  PA        41.9910  -22.4940   -4.7020 P.3   340  GDD340      0.2189
     22  O1A       40.9180  -23.1010   -5.6410 O.2   340  GDD340     -0.5170
     23  O2A       41.7680  -20.9950   -4.5190 O.3   340  GDD340     -0.4371
     24  O3A       41.9700  -23.2180   -3.3140 O.3   340  GDD340     -0.2703
     25  PB        41.2230  -22.6100   -1.9980 P.3   340  GDD340      0.2208
     26  O2B       41.8550  -21.2500   -1.6070 O.3   340  GDD340     -0.4371
     27  O3B       39.7170  -22.3840   -2.3260 O.2   340  GDD340     -0.5170
     28  O1B       41.3370  -23.6190   -0.8200 O.3   340  GDD340     -0.2857
     29  C11       42.5320  -23.9950   -0.1920 C.3   340  GDD340      0.2742
     30  O51       42.5840  -25.4360    0.1610 O.3   340  GDD340     -0.3254
     31  C51       43.0170  -26.2800   -0.8630 C.3   340  GDD340      0.1835
     32  C61       43.1400  -27.7360   -0.3890 C.3   340  GDD340      0.2142
     33  O6A       44.1590  -28.3710   -0.9700 O.3   340  GDD340     -0.2176
     34  C21       43.7780  -23.4970   -0.8720 C.3   340  GDD340      0.2409
     35  O21       44.7170  -23.2990    0.1760 O.3   340  GDD340     -0.2149
     36  C31       44.3630  -24.3990   -1.8390 C.3   340  GDD340      0.2198
     37  O31       45.7240  -24.0510   -2.0790 O.3   340  GDD340     -0.2174
     38  C41       44.3360  -25.8180   -1.5070 C.3   340  GDD340      0.2144
     39  O41       44.6930  -26.5440   -2.6840 O.3   340  GDD340     -0.2176
@<TRIPOS>BOND
     1     1     2    1
     2     3     2    2
     3     3     7    2
     4     8     7    2
     5     2     4    2
     6     7     6    1
     7     4     5    2
     8     6     5    1
     9     6     9    2
    10     5    11    1
    11     9    10    1
    12    14    13    1
    13    11    10    1
    14    11    12    1
    15    12    13    1
    16    12    18    1
    17    13    15    1
    18    16    15    1
    19    18    17    1
    20    15    17    1
    21    17    19    1
    22    22    21    2
    23    20    19    1
    24    20    21    1
    25    21    23    1
    26    21    24    1
    27    24    25    1
    28    39    38    1
    29    27    25    2
    30    37    36    1
    31    25    26    1
    32    25    28    1
    33    36    38    1
    34    36    34    1
    35    38    31    1
    36    33    32    1
    37    34    29    1
    38    34    35    1
    39    31    32    1
    40    31    30    1
    41    28    29    1
    42    29    30    1
