@<TRIPOS>MOLECULE
3o3r_NAP_A_1.pdb
 48 52 0 0 0
SMALL
GASTEIGER

@<TRIPOS>ATOM
      1  PA        -8.8720    8.8160   38.6400 P.3   317  NAP317      0.2189
      2  O1A       -7.5930    8.3370   38.9120 O.3   317  NAP317     -0.4371
      3  O2A       -9.7230    8.0870   37.7700 O.2   317  NAP317     -0.5170
      4  O5B       -8.5320   10.2160   38.0690 O.3   317  NAP317     -0.3112
      5  C5B       -9.4810   11.0780   37.5240 C.3   317  NAP317      0.1813
      6  C4B       -8.8920   12.4150   37.1190 C.3   317  NAP317      0.1820
      7  O4B       -7.9370   12.2810   36.1390 O.3   317  NAP317     -0.3136
      8  C3B       -9.9080   13.4540   36.6680 C.3   317  NAP317      0.2157
      9  O3B       -9.5450   14.7110   37.1420 O.3   317  NAP317     -0.2175
     10  C2B       -9.7260   13.4800   35.1760 C.3   317  NAP317      0.2314
     11  O2B      -10.0600   14.7120   34.5690 O.3   317  NAP317     -0.2630
     12  C1B       -8.2640   13.0450   35.0020 C.3   317  NAP317      0.3158
     13  N9A       -7.9880   12.2320   33.8140 N.pl3 317  NAP317     -0.1439
     14  C8A       -8.7000   11.2530   33.2920 C.3   317  NAP317      0.3377
     15  N7A       -8.1340   10.7680   32.2070 N.2   317  NAP317     -0.2095
     16  C5A       -7.0300   11.4100   32.0390 C.2   317  NAP317      0.2526
     17  C6A       -6.0100   11.3750   31.0980 C.2   317  NAP317      0.4393
     18  N6A       -5.9720   10.5170   30.1080 N.pl3 317  NAP317      0.2180
     19  N1A       -5.0150   12.2180   31.2250 N.2   317  NAP317      0.0021
     20  C2A       -4.9880   13.0740   32.1840 C.3   317  NAP317      0.5254
     21  N3A       -5.9220   13.1540   33.0730 N.2   317  NAP317     -0.0055
     22  C4A       -6.9540   12.3430   33.0430 C.2   317  NAP317      0.3518
     23  O3        -9.6360    9.1940   39.9560 O.3   317  NAP317     -0.2703
     24  PN       -11.0670    8.8360   40.6470 P.3   317  NAP317      0.2189
     25  O1N      -12.2350    9.4480   40.0320 O.2   317  NAP317     -0.5170
     26  O2N      -10.8790    9.1070   42.1020 O.3   317  NAP317     -0.4371
     27  O5D      -11.4270    7.2760   40.6710 O.3   317  NAP317     -0.3112
     28  C5D      -11.9220    6.5570   39.5440 C.3   317  NAP317      0.1813
     29  C4D      -13.3930    6.1140   39.8020 C.3   317  NAP317      0.1799
     30  O4D      -13.4580    5.0420   40.7360 O.3   317  NAP317     -0.3327
     31  C3D      -14.3180    7.1330   40.4280 C.3   317  NAP317      0.2158
     32  O3D      -14.8050    8.0840   39.5300 O.3   317  NAP317     -0.2175
     33  C2D      -15.4440    6.2400   40.8620 C.3   317  NAP317      0.2309
     34  O2D      -16.1840    5.7140   39.7550 O.3   317  NAP317     -0.2158
     35  C1D      -14.6450    5.1230   41.5120 C.3   317  NAP317      0.2263
     36  N1N      -14.3280    5.2900   42.9490 N.pl3 317  NAP317     -0.2787
     37  C2N      -14.7180    4.3910   43.8680 C.3   317  NAP317      0.1244
     38  C3N      -14.4010    4.6030   45.1940 C.2   317  NAP317      0.0544
     39  C7N      -14.7920    3.6640   46.2940 C.2   317  NAP317      0.2818
     40  O7N      -15.2630    2.6280   46.0860 O.2   317  NAP317     -0.2670
     41  N7N      -14.5720    4.0720   47.4980 N.am  317  NAP317     -0.0839
     42  C4N      -13.6760    5.7240   45.5680 C.2   317  NAP317      0.0033
     43  C5N      -13.2510    6.6450   44.6280 C.2   317  NAP317      0.0157
     44  C6N      -13.6250    6.3780   43.3200 C.2   317  NAP317      0.0633
     45  P2B      -11.0460   14.7580   33.3830 P.3   317  NAP317      0.5328
     46  O1X      -12.2970   14.4170   33.9480 O.3   317  NAP317     -0.1145
     47  O2X      -10.9700   16.0740   32.8650 O.3   317  NAP317     -0.1145
     48  O3X      -10.5410   13.8050   32.4800 O.2   317  NAP317     -0.2224
@<TRIPOS>BOND
     1    18    17    1
     2    17    19    2
     3    17    16    1
     4    19    20    1
     5    16    15    2
     6    16    22    1
     7    20    21    1
     8    15    14    1
     9    48    45    2
    10    47    45    1
    11    22    21    2
    12    22    13    1
    13    14    13    1
    14    45    46    1
    15    45    11    1
    16    13    12    1
    17    11    10    1
    18    12    10    1
    19    12     7    1
    20    10     8    1
    21     7     6    1
    22     8     6    1
    23     8     9    1
    24     6     5    1
    25     5     4    1
    26     3     1    2
    27     4     1    1
    28     1     2    1
    29     1    23    1
    30    32    31    1
    31    28    29    1
    32    28    27    1
    33    34    33    1
    34    29    31    1
    35    29    30    1
    36    23    24    1
    37    25    24    2
    38    31    33    1
    39    24    27    1
    40    24    26    1
    41    30    35    1
    42    33    35    1
    43    35    36    1
    44    36    44    1
    45    36    37    1
    46    44    43    2
    47    37    38    1
    48    43    42    1
    49    38    42    2
    50    38    39    1
    51    40    39    2
    52    39    41   am
