@<TRIPOS>MOLECULE
3o3u_MLR_N_1.pdb
 34 36 0 0 0
SMALL
GASTEIGER

@<TRIPOS>ATOM
      1  C1A       15.7610   17.0730   68.8650 C.3   2001  MLR2001     0.3023
      2  C2A       16.2430   16.9700   67.4320 C.3   2001  MLR2001     0.2433
      3  C3A       17.7070   17.3580   67.3220 C.3   2001  MLR2001     0.2168
      4  C4A       17.9380   18.7400   67.9130 C.3   2001  MLR2001     0.1804
      5  C5A       17.3940   18.7720   69.3370 C.3   2001  MLR2001     0.1804
      6  C6A       17.5240   20.1790   69.9060 C.3   2001  MLR2001     0.2141
      7  O1X       16.4310   16.1100   69.6910 O.3   2001  MLR2001    -0.1869
      8  O2A       16.0860   15.6010   67.0400 O.3   2001  MLR2001    -0.2148
      9  O3A       18.1120   17.3730   65.9530 O.3   2001  MLR2001    -0.2175
     10  O4A       19.3440   19.0130   67.9710 O.3   2001  MLR2001    -0.3257
     11  O5A       16.0220   18.3620   69.4120 O.3   2001  MLR2001    -0.3237
     12  O6A       17.3570   20.1440   71.3360 O.3   2001  MLR2001    -0.2176
     13  C1B       19.8400   19.8630   66.9380 C.3   2001  MLR2001     0.2695
     14  C2B       21.1620   19.3450   66.3950 C.3   2001  MLR2001     0.2404
     15  C3B       22.1570   19.2980   67.5410 C.3   2001  MLR2001     0.2167
     16  C4B       22.3520   20.6970   68.1110 C.3   2001  MLR2001     0.1804
     17  C5B       21.0000   21.2810   68.5180 C.3   2001  MLR2001     0.1803
     18  C6B       21.1250   22.7610   68.8890 C.3   2001  MLR2001     0.2141
     19  O2B       20.9120   18.0310   65.8750 O.3   2001  MLR2001    -0.2149
     20  O3B       23.4190   18.7480   67.1170 O.3   2001  MLR2001    -0.2175
     21  O4B       23.1660   20.5740   69.2860 O.3   2001  MLR2001    -0.3257
     22  O5B       20.0360   21.1830   67.4600 O.3   2001  MLR2001    -0.3257
     23  O6B       19.9550   23.1970   69.6120 O.3   2001  MLR2001    -0.2176
     24  C1C       24.4460   21.1810   69.2160 C.3   2001  MLR2001     0.2695
     25  C2C       25.5120   20.2200   69.7390 C.3   2001  MLR2001     0.2406
     26  C3C       25.2680   19.9260   71.2220 C.3   2001  MLR2001     0.2198
     27  C4C       25.1410   21.2030   72.0350 C.3   2001  MLR2001     0.2144
     28  C5C       24.1000   22.1180   71.4130 C.3   2001  MLR2001     0.1835
     29  C6C       24.0750   23.4380   72.1670 C.3   2001  MLR2001     0.2142
     30  O2C       25.4570   19.0040   68.9740 O.3   2001  MLR2001    -0.2149
     31  O3C       26.3210   19.1430   71.8040 O.3   2001  MLR2001    -0.2174
     32  O4C       24.7010   20.8750   73.3580 O.3   2001  MLR2001    -0.2176
     33  O5C       24.4100   22.3530   70.0410 O.3   2001  MLR2001    -0.3256
     34  O6C       22.8980   24.1520   71.7770 O.3   2001  MLR2001    -0.2176
@<TRIPOS>BOND
     1    19    14    1
     2     9     3    1
     3    14    13    1
     4    14    15    1
     5    13    22    1
     6    13    10    1
     7     8     2    1
     8    20    15    1
     9     3     2    1
    10     3     4    1
    11     2     1    1
    12    22    17    1
    13    15    16    1
    14     4    10    1
    15     4     5    1
    16    16    17    1
    17    16    21    1
    18    17    18    1
    19     1    11    1
    20     1     7    1
    21    18    23    1
    22    30    25    1
    23    24    21    1
    24    24    25    1
    25    24    33    1
    26     5    11    1
    27     5     6    1
    28    25    26    1
    29     6    12    1
    30    33    28    1
    31    26    31    1
    32    26    27    1
    33    28    27    1
    34    28    29    1
    35    34    29    1
    36    27    32    1
