@<TRIPOS>MOLECULE
3o47_GDP_A_1.pdb
 28 30 0 0 0
SMALL
GASTEIGER

@<TRIPOS>ATOM
      1  PB       -18.4550  -33.1720   61.5020 P.3   502  GDP502      0.5373
      2  O1B      -17.4860  -32.7330   60.5090 O.2   502  GDP502     -0.2221
      3  O2B      -18.8200  -31.8440   62.4200 O.3   502  GDP502     -0.1143
      4  O3B      -19.7730  -33.8480   60.8730 O.3   502  GDP502     -0.1143
      5  O3A      -17.8810  -34.3690   62.4270 O.3   502  GDP502     -0.2261
      6  PA       -16.2630  -34.6400   62.5390 P.3   502  GDP502      0.2231
      7  O1A      -15.7890  -35.3210   61.3130 O.2   502  GDP502     -0.5169
      8  O2A      -15.3670  -33.3440   62.8780 O.3   502  GDP502     -0.4370
      9  O5'      -16.1490  -35.7540   63.6310 O.3   502  GDP502     -0.3111
     10  C5'      -16.9170  -35.4110   64.7890 C.3   502  GDP502      0.1813
     11  C4'      -16.3950  -36.2450   65.9490 C.3   502  GDP502      0.1799
     12  O4'      -16.8630  -37.5970   65.7750 O.3   502  GDP502     -0.3326
     13  C3'      -14.8400  -36.3510   66.0560 C.3   502  GDP502      0.2158
     14  O3'      -14.5000  -36.4740   67.4280 O.3   502  GDP502     -0.2175
     15  C2'      -14.6300  -37.6670   65.3190 C.3   502  GDP502      0.2310
     16  O2'      -13.3810  -38.2850   65.3680 O.3   502  GDP502     -0.2158
     17  C1'      -15.7500  -38.5070   65.8510 C.3   502  GDP502      0.2293
     18  N9       -16.0880  -39.4870   64.8700 N.pl3 502  GDP502     -0.2354
     19  C8       -16.3510  -39.2990   63.5240 C.3   502  GDP502      0.2246
     20  N7       -16.6930  -40.4160   62.9850 N.2   502  GDP502     -0.2322
     21  C5       -16.6830  -41.3840   63.9430 C.2   502  GDP502      0.2182
     22  C6       -16.9530  -42.8200   63.9560 C.1   502  GDP502      0.2372
     23  O6       -17.2960  -43.4230   62.9310 O.2   502  GDP502     -0.2069
     24  N1       -16.8640  -43.4860   65.1680 N.2   502  GDP502     -0.2485
     25  C2       -16.4790  -42.8180   66.3480 C.1   502  GDP502      0.2531
     26  N2       -16.4190  -43.5560   67.5100 N.pl3 502  GDP502     -0.0226
     27  N3       -16.2000  -41.4880   66.3540 N.2   502  GDP502     -0.3074
     28  C4       -16.3020  -40.7690   65.1860 C.2   502  GDP502      0.2300
@<TRIPOS>BOND
     1     2     1    2
     2     4     1    1
     3     7     6    2
     4     1     3    1
     5     1     5    1
     6     5     6    1
     7     6     8    1
     8     6     9    1
     9    23    22    2
    10    20    19    1
    11    20    21    2
    12    19    18    1
    13     9    10    1
    14    21    22    1
    15    21    28    1
    16    22    24    2
    17    10    11    1
    18    18    28    1
    19    18    17    1
    20    24    25    2
    21    28    27    2
    22    15    16    1
    23    15    17    1
    24    15    13    1
    25    12    17    1
    26    12    11    1
    27    11    13    1
    28    13    14    1
    29    25    27    2
    30    25    26    1
