@<TRIPOS>MOLECULE
3o4q_FLC_A_1.pdb
 13 12 0 0 0
SMALL
GASTEIGER

@<TRIPOS>ATOM
      1  CAC       63.3310   46.6430   32.8670 C.2   2000  FLC2000     0.0988
      2  CA        64.8500   46.7410   33.1000 C.3   2000  FLC2000     0.0894
      3  CB        65.2100   47.7590   34.1820 C.3   2000  FLC2000     0.1780
      4  CBC       64.5320   47.4290   35.4900 C.2   2000  FLC2000     0.1249
      5  CG        66.6980   47.6430   34.5370 C.3   2000  FLC2000     0.0787
      6  CGC       67.6780   47.9490   33.4640 C.2   2000  FLC2000     0.0532
      7  OA1       62.5190   47.1110   33.6830 O.co2 2000  FLC2000    -0.3082
      8  OA2       62.9780   46.0070   31.8430 O.co2 2000  FLC2000    -0.8471
      9  OB1       64.0380   48.3470   36.1930 O.co2 2000  FLC2000    -0.3058
     10  OB2       64.6060   46.2420   35.8850 O.co2 2000  FLC2000    -0.8455
     11  OG1       67.5190   49.0150   32.8480 O.co2 2000  FLC2000    -0.5491
     12  OG2       68.6490   47.1310   33.3210 O.co2 2000  FLC2000    -0.5491
     13  OHB       64.8050   49.0750   33.8030 O.3   2000  FLC2000    -0.2183
@<TRIPOS>UNITY_ATOM_ATTR
8 1
charge -1
10 1
charge -1
12 1
charge -1
@<TRIPOS>BOND
     1     8     1   ar
     2    11     6   ar
     3     1     2    1
     4     1     7   ar
     5     2     3    1
     6    12     6   ar
     7     6     5    1
     8    13     3    1
     9     3     5    1
    10     3     4    1
    11     4    10   ar
    12     4     9   ar
