@<TRIPOS>MOLECULE
3o4r_NAP_A_1.pdb
 48 52 0 0 0
SMALL
GASTEIGER

@<TRIPOS>ATOM
      1  PA        27.3330    2.9300  -10.5750 P.3   601  NAP601      0.2189
      2  O1A       28.3470    1.8940  -10.9590 O.3   601  NAP601     -0.4371
      3  O2A       27.3870    4.2930  -11.2220 O.2   601  NAP601     -0.5170
      4  O5B       25.8580    2.3710  -10.8380 O.3   601  NAP601     -0.3112
      5  C5B       24.7250    3.1750  -10.5040 C.3   601  NAP601      0.1813
      6  C4B       23.5120    2.2970  -10.7860 C.3   601  NAP601      0.1820
      7  O4B       22.3320    2.8360  -10.1860 O.3   601  NAP601     -0.3136
      8  C3B       23.2180    2.1890  -12.2750 C.3   601  NAP601      0.2157
      9  O3B       22.8540    0.8410  -12.5430 O.3   601  NAP601     -0.2175
     10  C2B       22.0420    3.1210  -12.4730 C.3   601  NAP601      0.2314
     11  O2B       21.3360    2.7860  -13.6600 O.3   601  NAP601     -0.2630
     12  C1B       21.2890    2.8740  -11.1640 C.3   601  NAP601      0.3158
     13  N9A       20.3230    3.8830  -10.6800 N.pl3 601  NAP601     -0.1439
     14  C8A       20.5750    5.1820  -10.4600 C.3   601  NAP601      0.3377
     15  N7A       19.4510    5.7470   -9.9610 N.2   601  NAP601     -0.2095
     16  C5A       18.4930    4.8100   -9.8750 C.2   601  NAP601      0.2526
     17  C6A       17.1560    4.8200   -9.4420 C.2   601  NAP601      0.4393
     18  N6A       16.5700    5.9740   -9.0060 N.pl3 601  NAP601      0.2180
     19  N1A       16.4570    3.6790   -9.4660 N.2   601  NAP601      0.0021
     20  C2A       17.0380    2.5460   -9.8940 C.3   601  NAP601      0.5254
     21  N3A       18.3170    2.5040  -10.3020 N.2   601  NAP601     -0.0055
     22  C4A       19.0680    3.6270  -10.3080 C.2   601  NAP601      0.3518
     23  O3        27.2920    3.2050   -8.9920 O.3   601  NAP601     -0.2703
     24  PN        27.8350    2.2290   -7.8360 P.3   601  NAP601      0.2189
     25  O1N       28.0370    0.8050   -8.3310 O.2   601  NAP601     -0.5170
     26  O2N       28.9090    2.9940   -7.1030 O.3   601  NAP601     -0.4371
     27  O5D       26.5130    2.0240   -6.9500 O.3   601  NAP601     -0.3112
     28  C5D       25.9580    3.0500   -6.1680 C.3   601  NAP601      0.1813
     29  C4D       25.5300    2.4750   -4.8200 C.3   601  NAP601      0.1799
     30  O4D       26.6690    2.0540   -4.0480 O.3   601  NAP601     -0.3327
     31  C3D       24.8420    3.5790   -4.0480 C.3   601  NAP601      0.2158
     32  O3D       23.8970    3.0710   -3.0960 O.3   601  NAP601     -0.2175
     33  C2D       26.0160    4.1970   -3.3620 C.3   601  NAP601      0.2309
     34  O2D       25.6130    5.0000   -2.2560 O.3   601  NAP601     -0.2158
     35  C1D       26.8120    2.9650   -2.9610 C.3   601  NAP601      0.2263
     36  N1N       28.2090    3.2900   -2.6650 N.pl3 601  NAP601     -0.2787
     37  C2N       29.1150    3.5290   -3.6440 C.3   601  NAP601      0.1244
     38  C3N       30.4400    3.8170   -3.3100 C.2   601  NAP601      0.0544
     39  C7N       31.4910    4.1150   -4.3440 C.2   601  NAP601      0.2818
     40  O7N       31.3010    3.8290   -5.6390 O.2   601  NAP601     -0.2670
     41  N7N       32.6100    4.7050   -3.9220 N.am  601  NAP601     -0.0839
     42  C4N       30.8000    3.8830   -1.9730 C.2   601  NAP601      0.0033
     43  C5N       29.8560    3.6360   -0.9950 C.2   601  NAP601      0.0157
     44  C6N       28.5520    3.3450   -1.3700 C.2   601  NAP601      0.0633
     45  P2B       20.3600    3.8430  -14.3950 P.3   601  NAP601      0.5328
     46  O1X       19.1950    4.1230  -13.4610 O.3   601  NAP601     -0.1145
     47  O2X       19.9720    3.0180  -15.5750 O.2   601  NAP601     -0.2224
     48  O3X       21.1370    5.0930  -14.6490 O.3   601  NAP601     -0.1145
@<TRIPOS>BOND
     1    47    45    2
     2    48    45    1
     3    45    11    1
     4    45    46    1
     5    11    10    1
     6     9     8    1
     7    10     8    1
     8    10    12    1
     9     8     6    1
    10     3     1    2
    11    12    13    1
    12    12     7    1
    13     2     1    1
    14     4     1    1
    15     4     5    1
    16     6     5    1
    17     6     7    1
    18    13    14    1
    19    13    22    1
    20     1    23    1
    21    14    15    1
    22    22    21    2
    23    22    16    1
    24    21    20    1
    25    15    16    2
    26    20    19    1
    27    16    17    1
    28    19    17    2
    29    17    18    1
    30    23    24    1
    31    25    24    2
    32    24    26    1
    33    24    27    1
    34    27    28    1
    35    28    29    1
    36    40    39    2
    37    29    31    1
    38    29    30    1
    39    39    41   am
    40    39    38    1
    41    31    33    1
    42    31    32    1
    43    30    35    1
    44    37    38    1
    45    37    36    1
    46    33    35    1
    47    33    34    1
    48    38    42    2
    49    35    36    1
    50    36    44    1
    51    42    43    1
    52    44    43    2
