@<TRIPOS>MOLECULE
3o4v_4CT_A_1.pdb
 26 29 0 0 0
SMALL
GASTEIGER

@<TRIPOS>ATOM
      1  N1        53.2090   74.0110   20.3840 N.2   233  4CT233     -0.0278
      2 CL1        58.5440   63.4900   24.8090 Cl    233  4CT233     -0.0822
      3  C2        54.0860   74.2620   21.3950 C.3   233  4CT233      0.3922
      4  N3        55.4160   73.9520   21.2900 N.2   233  4CT233     -0.2171
      5  C4        55.9500   73.4260   20.1520 C.2   233  4CT233      0.1045
      6  C5        55.0830   73.1340   19.0920 C.2   233  4CT233      0.1884
      7  C6        53.7290   73.4580   19.2110 C.2   233  4CT233      0.4315
      8  N6        52.8630   73.1970   18.1710 N.pl3 233  4CT233      0.2177
      9  N7        55.8610   72.6300   18.0980 N.2   233  4CT233     -0.2350
     10  C8        57.1610   72.5260   18.5330 C.2   233  4CT233      0.0978
     11  C9        57.2540   73.0180   19.8850 C.2   233  4CT233      0.0321
     12  C1'       58.7360   70.7820   21.5870 C.3   233  4CT233      0.0759
     13  N1'       58.5900   72.2790   21.8390 N.3   233  4CT233     -0.2666
     14  C10       58.5620   73.2100   20.6850 C.3   233  4CT233      0.1023
     15  C11       57.6930   65.0540   24.5760 C.ar  233  4CT233      0.0577
     16  C13       58.2590   66.1710   25.1780 C.ar  233  4CT233      0.0119
     17  C14       57.5940   67.4290   25.0030 C.ar  233  4CT233      0.0070
     18  C2'       57.9790   72.7110   23.1270 C.3   233  4CT233      0.1057
     19  C3'       58.0390   71.3550   23.8870 C.3   233  4CT233      0.1700
     20  O3'       59.3510   71.3900   24.5290 O.3   233  4CT233     -0.2216
     21  C4'       58.0070   70.2010   22.8660 C.3   233  4CT233      0.0589
     22  C5'       56.5630   69.7610   22.5120 C.3   233  4CT233      0.0661
     23  S6'       55.6790   69.0940   23.9560 S.3   233  4CT233     -0.1135
     24  C7'       56.3510   67.5170   24.2810 C.ar  233  4CT233      0.0253
     25  C8'       55.8990   66.3530   23.5960 C.ar  233  4CT233      0.0070
     26  C9'       56.4500   65.0820   23.8650 C.ar  233  4CT233      0.0119
@<TRIPOS>BOND
     1     9    10    1
     2     9     6    2
     3     8     7    1
     4    10    11    2
     5     6     7    1
     6     6     5    1
     7     7     1    2
     8    11     5    1
     9    11    14    1
    10     5     4    2
    11     1     3    1
    12    14    13    1
    13     4     3    1
    14    12    13    1
    15    12    21    1
    16    13    18    1
    17    22    21    1
    18    22    23    1
    19    21    19    1
    20    18    19    1
    21    25    26   ar
    22    25    24   ar
    23    26    15   ar
    24    19    20    1
    25    23    24    1
    26    24    17   ar
    27    15     2    1
    28    15    16   ar
    29    17    16   ar
