@<TRIPOS>MOLECULE
3o50_LJE_A_1.pdb
 33 36 0 0 0
SMALL
GASTEIGER

@<TRIPOS>ATOM
      1  C1        64.1360   17.7190    1.2290 C.ar    1  LJE1        0.0001
      2  F1        66.5530   14.7400    2.9470 F       1  LJE1       -0.1659
      3  N1        64.2550   31.1840    4.5820 N.ar    1  LJE1       -0.2238
      4  O1        64.6870   26.9530    3.8150 O.3     1  LJE1       -0.4364
      5  C2        64.9100   16.7050    1.8950 C.ar    1  LJE1        0.0039
      6  F2        66.5210   15.9050    4.7480 F       1  LJE1       -0.1659
      7  N2        64.3950   32.1970    2.3750 N.ar    1  LJE1       -0.2224
      8  O2        67.1650   21.2090    2.1530 O.2     1  LJE1       -0.2680
      9  C3        66.0750   17.0280    2.7450 C.ar    1  LJE1        0.0716
     10  F3        68.2060   16.0990    3.3160 F       1  LJE1       -0.1659
     11  N3        65.3470   26.4770    6.1570 N.ar    1  LJE1       -0.2098
     12  C4        66.4410   18.4390    2.9080 C.ar    1  LJE1        0.0084
     13  N4        65.0010   21.5760    2.6970 N.am    1  LJE1       -0.1755
     14  C5        65.6460   19.4400    2.2230 C.ar    1  LJE1        0.0553
     15  C6        64.5350   19.0780    1.4150 C.ar    1  LJE1        0.0046
     16  C7        66.8890   15.9090    3.4550 C.3     1  LJE1        0.4186
     17  C8        66.0260   20.8180    2.3700 C.2     1  LJE1        0.2690
     18  C9        64.7430   29.8850    4.1870 C.ar    1  LJE1        0.0891
     19  C10       64.0820   32.3050    3.7270 C.ar    1  LJE1        0.1989
     20  C11       64.8730   30.9610    1.8960 C.ar    1  LJE1        0.1022
     21  C12       65.0710   29.7640    2.7470 C.ar    1  LJE1        0.0400
     22  C13       65.6210   28.2640    7.7230 C.ar    1  LJE1        0.0209
     23  C14       65.2750   29.1660    6.6410 C.ar    1  LJE1        0.0078
     24  C15       64.9590   28.7870    5.2670 C.ar    1  LJE1        0.0713
     25  C16       65.0130   27.3640    5.1090 C.ar    1  LJE1        0.2310
     26  C17       65.6590   26.8450    7.4590 C.ar    1  LJE1        0.1021
     27  C18       64.8240   25.6350    3.4260 C.ar    1  LJE1        0.1432
     28  C19       63.6880   24.8130    3.6770 C.ar    1  LJE1        0.0140
     29  C20       63.7180   23.4260    3.4060 C.ar    1  LJE1        0.0154
     30  C21       64.9330   22.9090    2.8660 C.ar    1  LJE1        0.0736
     31  C22       66.0670   23.7360    2.5900 C.ar    1  LJE1        0.0197
     32  C23       66.0460   25.1320    2.8670 C.ar    1  LJE1        0.0386
     33  C24       62.4420   25.4050    4.1840 C.3     1  LJE1        0.0343
@<TRIPOS>BOND
     1     1    15   ar
     2     1     5   ar
     3    15    14   ar
     4     5     9   ar
     5    20     7   ar
     6    20    21   ar
     7     8    17    2
     8    14    17    1
     9    14    12   ar
    10    17    13   am
    11     7    19   ar
    12    31    30   ar
    13    31    32   ar
    14    13    30    1
    15     9    12   ar
    16     9    16    1
    17    21    18   ar
    18    30    29   ar
    19    32    27   ar
    20     2    16    1
    21    10    16    1
    22    29    28   ar
    23    27    28   ar
    24    27     4    1
    25    16     6    1
    26    28    33    1
    27    19     3   ar
    28     4    25    1
    29    18     3   ar
    30    18    24    1
    31    25    24   ar
    32    25    11   ar
    33    24    23   ar
    34    11    26   ar
    35    23    22   ar
    36    26    22   ar
