@<TRIPOS>MOLECULE
3o51_LJF_A_1.pdb
 38 42 0 0 0
SMALL
GASTEIGER

@<TRIPOS>ATOM
      1  C10       26.8400   18.9080   24.8730 C.3     1  LJF1        0.1494
      2  N4        26.3120   19.0190   23.4990 N.pl3   1  LJF1       -0.1602
      3  C1        25.9200   17.9510   22.7940 C.1     1  LJF1        0.1654
      4  N1        25.5500   16.8030   23.4170 N.2     1  LJF1       -0.3339
      5  N2        25.8970   18.0480   21.4490 N.2     1  LJF1       -0.1662
      6  C4        25.5140   17.0220   20.7030 C.2     1  LJF1        0.1439
      7  C3        25.1290   15.8270   21.3130 C.2     1  LJF1        0.1904
      8  F1        24.7430   14.7890   20.5490 F       1  LJF1       -0.1998
      9  C2        25.1460   15.7250   22.7090 C.2     1  LJF1        0.1774
     10  C5        24.7840   14.5430   23.3800 C.ar    1  LJF1        0.0864
     11  C6        25.7100   13.9900   24.2660 C.ar    1  LJF1        0.0089
     12  C7        25.3890   12.8260   24.9580 C.ar    1  LJF1        0.0210
     13  C8        24.1490   12.2260   24.7460 C.ar    1  LJF1        0.1021
     14  N3        23.2760   12.7590   23.9000 N.ar    1  LJF1       -0.2098
     15  C9        23.5470   13.8840   23.2010 C.ar    1  LJF1        0.2321
     16  O1        22.5960   14.4050   22.3570 O.3     1  LJF1       -0.4360
     17  C11       21.9670   13.7180   21.3520 C.ar    1  LJF1        0.1473
     18  C16       20.6420   14.0410   21.0610 C.ar    1  LJF1        0.0389
     19  C15       19.9520   13.3980   20.0290 C.ar    1  LJF1        0.0197
     20  C12       22.6070   12.7480   20.5860 C.ar    1  LJF1        0.0389
     21  C13       21.9150   12.1100   19.5550 C.ar    1  LJF1        0.0197
     22  C14       20.5770   12.4080   19.2760 C.ar    1  LJF1        0.0739
     23  N5        19.9530   11.7990   18.2540 N.am    1  LJF1       -0.1754
     24  C17       19.9830   10.4850   18.0190 C.2     1  LJF1        0.2702
     25  O2        20.5660    9.6830   18.7420 O.2     1  LJF1       -0.2680
     26  C18       19.2670   10.0020   16.7340 C.ar    1  LJF1        0.0706
     27  C23       19.3180   10.8260   15.6060 C.ar    1  LJF1        0.0059
     28  C22       18.7190   10.4510   14.4060 C.ar    1  LJF1        0.0002
     29  C21       18.0660    9.2320   14.3080 C.ar    1  LJF1        0.0013
     30  C20       18.0210    8.3990   15.4190 C.ar    1  LJF1        0.0167
     31  C19       18.6180    8.7650   16.6290 C.ar    1  LJF1        0.0749
     32  N6        18.5570    7.9450   17.6810 N.pl3   1  LJF1       -0.2123
     33  C24       17.7350    6.8910   17.7890 C.ar    1  LJF1        0.0705
     34  C25       18.1820    5.7560   18.4700 C.ar    1  LJF1        0.0165
     35  C26       17.3530    4.6380   18.6050 C.ar    1  LJF1        0.0013
     36  C27       16.0650    4.6550   18.0640 C.ar    1  LJF1        0.0001
     37  C28       15.6030    5.7880   17.3880 C.ar    1  LJF1        0.0013
     38  C29       16.4360    6.9030   17.2600 C.ar    1  LJF1        0.0165
@<TRIPOS>BOND
     1    29    28   ar
     2    29    30   ar
     3    28    27   ar
     4    30    31   ar
     5    27    26   ar
     6    31    26   ar
     7    31    32    1
     8    26    24    1
     9    38    37   ar
    10    38    33   ar
    11    37    36   ar
    12    32    33    1
    13    33    34   ar
    14    24    23   am
    15    24    25    2
    16    36    35   ar
    17    23    22    1
    18    34    35   ar
    19    22    21   ar
    20    22    19   ar
    21    21    20   ar
    22    19    18   ar
    23     8     7    1
    24    20    17   ar
    25     6     7    2
    26     6     5    1
    27    18    17   ar
    28     7     9    1
    29    17    16    1
    30     5     3    2
    31    16    15    1
    32     9    10    1
    33     9     4    2
    34     3     4    2
    35     3     2    1
    36    15    10   ar
    37    15    14   ar
    38    10    11   ar
    39     2     1    1
    40    14    13   ar
    41    11    12   ar
    42    13    12   ar
