@<TRIPOS>MOLECULE
3o56_ZG1_A_1.pdb
 31 35 0 0 0
SMALL
GASTEIGER

@<TRIPOS>ATOM
      1  C1        41.0690   45.3350   63.2400 C.3   506  ZG1506      0.0285
      2  C2        41.7110   46.7100   63.2070 C.3   506  ZG1506      0.1292
      3  N3        43.1400   46.5630   62.9740 N.ar  506  ZG1506     -0.2340
      4  N4        43.6450   46.1870   61.7900 N.ar  506  ZG1506     -0.1663
      5  C5        44.9880   46.1480   61.9030 C.ar  506  ZG1506      0.1245
      6  C6        45.3860   46.5150   63.2590 C.ar  506  ZG1506      0.0714
      7  C7        46.5530   46.6680   63.9970 C.ar  506  ZG1506      0.0769
      8  N8        47.8370   46.4820   63.5420 N.pl3 506  ZG1506     -0.2388
      9  C9        48.2050   46.0200   62.2230 C.3   506  ZG1506      0.0975
     10  C10       49.3170   44.9960   62.4410 C.3   506  ZG1506      0.0537
     11  C11       49.7820   44.4730   61.0910 C.3   506  ZG1506      0.1439
     12  O12       50.2150   45.5920   60.3410 O.3   506  ZG1506     -0.3537
     13  C13       49.1600   46.4750   60.0070 C.3   506  ZG1506      0.1439
     14  C14       48.6390   47.1270   61.2830 C.3   506  ZG1506      0.0537
     15  C15       46.3990   47.0810   65.3490 C.ar  506  ZG1506      0.1033
     16  C16       45.1130   47.3080   65.8540 C.ar  506  ZG1506      0.1077
     17  N17       44.0060   47.1470   65.1410 N.ar  506  ZG1506     -0.2250
     18  C18       44.1240   46.7650   63.8520 C.ar  506  ZG1506      0.1621
     19  C19       47.5340   47.3270   66.2420 C.2   506  ZG1506      0.3193
     20  O20       47.5200   47.6320   67.5620 O.2   506  ZG1506     -0.3111
     21  N21       48.8670   47.7940   67.9440 N.2   506  ZG1506     -0.0108
     22  C22       49.5750   47.5960   66.8250 C.1   506  ZG1506      0.1133
     23  C23       51.0910   47.6450   66.7620 C.3   506  ZG1506      0.2000
     24  N24       48.7970   47.3110   65.7780 N.2   506  ZG1506     -0.3123
     25  N25       52.1540   45.8000   65.6030 N.am  506  ZG1506     -0.2786
     26  C26       51.5590   46.1870   66.7630 C.2   506  ZG1506      0.2420
     27  C27       52.3480   46.7000   64.4710 C.3   506  ZG1506      0.0935
     28  C28       52.6590   44.4460   65.3970 C.3   506  ZG1506      0.0935
     29  O29       51.3770   45.4470   67.7260 O.2   506  ZG1506     -0.2737
     30  C30       53.1010   45.8640   63.4260 C.3   506  ZG1506      0.0233
     31  C31       53.4980   44.5430   64.1150 C.3   506  ZG1506      0.0233
@<TRIPOS>BOND
     1    13    12    1
     2    13    14    1
     3    12    11    1
     4    11    10    1
     5    14     9    1
     6     4     5   ar
     7     4     3   ar
     8     5     6   ar
     9     9    10    1
    10     9     8    1
    11     3     2    1
    12     3    18   ar
    13     2     1    1
    14     6    18   ar
    15     6     7   ar
    16    30    31    1
    17    30    27    1
    18     8     7    1
    19    18    17   ar
    20     7    15   ar
    21    31    28    1
    22    27    25    1
    23    17    16   ar
    24    15    16   ar
    25    15    19    1
    26    28    25    1
    27    25    26   am
    28    24    19    2
    29    24    22    2
    30    19    20    1
    31    23    26    1
    32    23    22    1
    33    26    29    2
    34    22    21    2
    35    20    21    1
