@<TRIPOS>MOLECULE
3o57_ZG2_A_1.pdb
 38 43 0 0 0
SMALL
GASTEIGER

@<TRIPOS>ATOM
      1  C1        41.2450   45.5800   63.9860 C.3   506  ZG2506      0.0285
      2  C2        41.8630   46.8690   63.4410 C.3   506  ZG2506      0.1292
      3  N3        43.2860   46.6780   63.1510 N.ar  506  ZG2506     -0.2340
      4  N4        43.7810   46.3270   61.9410 N.ar  506  ZG2506     -0.1663
      5  C5        45.1260   46.2640   62.0690 C.ar  506  ZG2506      0.1245
      6  C6        45.5230   46.6230   63.4230 C.ar  506  ZG2506      0.0714
      7  C7        46.6960   46.7530   64.1480 C.ar  506  ZG2506      0.0768
      8  N8        47.9720   46.5270   63.6660 N.pl3 506  ZG2506     -0.2388
      9  C9        48.3540   46.0980   62.3310 C.3   506  ZG2506      0.0975
     10  C10       49.6030   45.2360   62.4950 C.3   506  ZG2506      0.0537
     11  C11       50.1330   44.7740   61.1370 C.3   506  ZG2506      0.1439
     12  O12       50.2970   45.8760   60.2340 O.3   506  ZG2506     -0.3537
     13  C13       49.2270   46.7890   60.0680 C.3   506  ZG2506      0.1439
     14  C14       48.6740   47.2480   61.4250 C.3   506  ZG2506      0.0537
     15  C18       46.5390   47.1240   65.5040 C.ar  506  ZG2506      0.1001
     16  C19       45.2650   47.3720   66.0190 C.ar  506  ZG2506      0.1076
     17  N20       44.1440   47.2300   65.3230 N.ar  506  ZG2506     -0.2250
     18  C21       44.2690   46.8580   64.0280 C.ar  506  ZG2506      0.1621
     19  C22       47.6710   47.4430   66.3900 C.2   506  ZG2506      0.2799
     20  N23       48.9570   47.3070   66.0210 N.2   506  ZG2506     -0.3724
     21  C24       49.7580   47.8100   67.1530 C.2   506  ZG2506      0.1394
     22  C25       51.2670   47.8220   67.1990 C.3   506  ZG2506      0.1433
     23  C26       51.8630   47.8060   65.7720 C.2   506  ZG2506      0.2326
     24  N27       52.4010   46.6180   65.3710 N.am  506  ZG2506     -0.2792
     25  C28       52.9980   46.4480   64.0400 C.3   506  ZG2506      0.0935
     26  C29       48.8630   48.2290   68.0540 C.3   506  ZG2506      0.2206
     27  O30       47.6010   48.0410   67.6090 O.2   506  ZG2506     -0.4481
     28  C31       49.0430   48.8510   69.4070 C.3   506  ZG2506      0.0770
     29  C32       48.7780   50.3420   69.3730 C.ar  506  ZG2506     -0.0181
     30  C33       49.7500   51.2480   68.9280 C.ar  506  ZG2506     -0.0041
     31  C34       49.4980   52.6230   68.9070 C.ar  506  ZG2506     -0.0003
     32  C35       48.2640   53.1180   69.3310 C.ar  506  ZG2506     -0.0000
     33  C36       47.5400   50.8560   69.7890 C.ar  506  ZG2506     -0.0041
     34  C37       47.2910   52.2290   69.7730 C.ar  506  ZG2506     -0.0003
     35  C38       52.4370   45.3830   66.1730 C.3   506  ZG2506      0.0935
     36  C39       53.0710   44.3300   65.2440 C.3   506  ZG2506      0.0233
     37  C40       52.9350   44.9250   63.8390 C.3   506  ZG2506      0.0233
     38  O41       51.8540   48.8050   65.0650 O.2   506  ZG2506     -0.2744
@<TRIPOS>BOND
     1    13    12    1
     2    13    14    1
     3    12    11    1
     4    11    10    1
     5    14     9    1
     6     4     5   ar
     7     4     3   ar
     8     5     6   ar
     9     9    10    1
    10     9     8    1
    11     3     2    1
    12     3    18   ar
    13     6    18   ar
    14     6     7   ar
    15     2     1    1
    16     8     7    1
    17    37    25    1
    18    37    36    1
    19    18    17   ar
    20    25    24    1
    21     7    15   ar
    22    38    23    2
    23    36    35    1
    24    17    16   ar
    25    24    23   am
    26    24    35    1
    27    15    16   ar
    28    15    19    1
    29    23    22    1
    30    20    19    2
    31    20    21    2
    32    19    27    1
    33    21    22    1
    34    21    26    1
    35    27    26    1
    36    26    28    1
    37    31    30   ar
    38    31    32   ar
    39    30    29   ar
    40    32    34   ar
    41    29    28    1
    42    29    33   ar
    43    34    33   ar
