@<TRIPOS>MOLECULE
3o5a_MGD_A_1.pdb
 47 52 0 0 0
SMALL
GASTEIGER

@<TRIPOS>ATOM
      1  PB        26.9020  -16.2880   21.5340 P.3   1803  MGD1803     0.2189
      2  O1B       26.6500  -15.6500   22.8850 O.3   1803  MGD1803    -0.4371
      3  O2B       26.9250  -17.8160   21.5280 O.2   1803  MGD1803    -0.5170
      4  O3B       25.7350  -15.9500   20.5180 O.3   1803  MGD1803    -0.2703
      5  O3A       23.8600  -14.5340   19.7470 O.3   1803  MGD1803    -0.3109
      6  PA        25.4630  -14.5370   19.8010 P.3   1803  MGD1803     0.2189
      7  O1A       25.8700  -14.6440   18.3420 O.2   1803  MGD1803    -0.5170
      8  O2A       26.0260  -13.5590   20.7160 O.3   1803  MGD1803    -0.4371
      9  O5'       28.2190  -15.7710   20.8190 O.3   1803  MGD1803    -0.3112
     10  C5'       29.2790  -15.3770   21.6650 C.3   1803  MGD1803     0.1813
     11  C4'       30.5310  -15.9120   20.9890 C.3   1803  MGD1803     0.1799
     12  O4'       31.6250  -15.2560   21.6950 O.3   1803  MGD1803    -0.3326
     13  C3'       30.7310  -17.4250   21.0100 C.3   1803  MGD1803     0.2158
     14  O3'       30.9950  -17.8740   19.6790 O.3   1803  MGD1803    -0.2175
     15  C2'       31.9200  -17.5640   21.9790 C.3   1803  MGD1803     0.2310
     16  O2'       32.7400  -18.7110   21.6960 O.3   1803  MGD1803    -0.2158
     17  C1'       32.6400  -16.2510   21.7200 C.3   1803  MGD1803     0.2293
     18  N9        33.6910  -15.9170   22.7350 N.pl3 1803  MGD1803    -0.2354
     19  C8        33.5540  -15.9810   24.1260 C.3   1803  MGD1803     0.2246
     20  N7        34.3440  -15.0530   24.7040 N.2   1803  MGD1803    -0.2322
     21  C5        34.9360  -14.2850   23.7480 C.2   1803  MGD1803     0.2182
     22  C6        35.7920  -13.1190   23.7290 C.1   1803  MGD1803     0.2372
     23  O6        36.0800  -12.5320   24.8560 O.2   1803  MGD1803    -0.2069
     24  N1        36.1790  -12.7170   22.4830 N.2   1803  MGD1803    -0.2485
     25  C2        35.7360  -13.3170   21.3330 C.1   1803  MGD1803     0.2531
     26  N2        36.1390  -12.7680   20.1780 N.pl3 1803  MGD1803    -0.0226
     27  N3        34.9210  -14.4240   21.2840 N.2   1803  MGD1803    -0.3074
     28  C4        34.5310  -14.8760   22.5010 C.2   1803  MGD1803     0.2300
     29  C10       23.0120  -13.9890   20.8150 C.3   1803  MGD1803     0.1837
     30  C11       21.8320  -13.3760   20.0840 C.3   1803  MGD1803     0.1762
     31  O11       21.1190  -14.4480   19.4770 O.3   1803  MGD1803    -0.3271
     32  C12       20.9070  -12.6520   21.0680 C.2   1803  MGD1803     0.0473
     33  S12       21.5420  -11.8290   22.4530 S.3   1803  MGD1803    -0.0526
     34  C13       19.5610  -12.7340   20.9030 C.2   1803  MGD1803     0.0449
     35  S13       18.5480  -11.9550   22.0960 S.3   1803  MGD1803    -0.0530
     36  C14       18.9040  -13.5520   19.8150 C.3   1803  MGD1803     0.1850
     37  N15       18.2400  -14.6920   20.4850 N.2   1803  MGD1803    -0.2411
     38  C16       17.7410  -15.6180   19.5890 C.2   1803  MGD1803     0.2467
     39  C17       16.5250  -16.3700   19.8210 C.1   1803  MGD1803     0.2441
     40  O17       15.8810  -16.2150   20.9140 O.2   1803  MGD1803    -0.2063
     41  N18       16.1310  -17.2780   18.8400 N.2   1803  MGD1803    -0.2474
     42  C19       16.8650  -17.4790   17.7040 C.1   1803  MGD1803     0.2608
     43  N19       16.4400  -18.3710   16.7800 N.pl3 1803  MGD1803    -0.0220
     44  N20       17.9860  -16.7750   17.4360 N.2   1803  MGD1803    -0.2682
     45  C21       18.4570  -15.8320   18.2880 C.1   1803  MGD1803     0.1293
     46  N22       19.5330  -15.1120   17.9450 N.2   1803  MGD1803    -0.1763
     47  C23       19.9450  -13.9770   18.7550 C.3   1803  MGD1803     0.2573
@<TRIPOS>BOND
     1    43    42    1
     2    44    42    2
     3    44    45    2
     4    42    41    2
     5    46    45    2
     6    46    47    1
     7    45    38    1
     8     7     6    2
     9    47    31    1
    10    47    36    1
    11    41    39    2
    12    31    30    1
    13    38    39    1
    14    38    37    2
    15    14    13    1
    16     5     6    1
    17     5    29    1
    18     6     4    1
    19     6     8    1
    20    36    37    1
    21    36    34    1
    22    39    40    2
    23    30    29    1
    24    30    32    1
    25    26    25    1
    26     4     1    1
    27     9     1    1
    28     9    10    1
    29    34    32    2
    30    34    35    1
    31    11    13    1
    32    11    10    1
    33    11    12    1
    34    13    15    1
    35    32    33    1
    36    27    25    2
    37    27    28    2
    38    25    24    2
    39     3     1    2
    40     1     2    1
    41    12    17    1
    42    16    15    1
    43    17    15    1
    44    17    18    1
    45    24    22    2
    46    28    18    1
    47    28    21    1
    48    18    19    1
    49    22    21    1
    50    22    23    2
    51    21    20    2
    52    19    20    1
