@<TRIPOS>MOLECULE
3o5a_HEC_B_1.pdb
 43 50 0 0 0
SMALL
GASTEIGER

@<TRIPOS>ATOM
      1 FE         21.7820  -27.7510   46.4720 Fe    1129  HEC1129     0.0000
      2  CHA       24.8170  -28.9630   47.6780 C.2   1129  HEC1129     0.0000
      3  CHB       20.3430  -30.6900   47.1210 C.2   1129  HEC1129     0.0000
      4  CHC       18.6800  -26.3450   45.7220 C.2   1129  HEC1129     0.0000
      5  CHD       23.3330  -25.0340   45.1680 C.2   1129  HEC1129     0.0000
      6  NA        22.4820  -29.4900   47.2660 N.2   1129  HEC1129     0.0000
      7  C1A       23.7050  -29.7750   47.7000 C.2   1129  HEC1129     0.0000
      8  C2A       23.6640  -31.1390   48.1940 C.2   1129  HEC1129     0.0000
      9  C3A       22.4480  -31.5990   48.0450 C.2   1129  HEC1129     0.0000
     10  C4A       21.6640  -30.5720   47.4230 C.2   1129  HEC1129     0.0000
     11  CMA       21.8920  -32.9850   48.4020 C.3   1129  HEC1129     0.0000
     12  CAA       24.8900  -31.8440   48.8110 C.3   1129  HEC1129     0.0000
     13  CBA       24.9120  -31.4710   50.3370 C.3   1129  HEC1129     0.0000
     14  CGA       26.2170  -31.8890   51.0060 C.2   1129  HEC1129     0.0000
     15  O1A       27.2320  -32.0850   50.3660 O.co2 1129  HEC1129     0.0000
     16  O2A       26.3100  -32.0490   52.2410 O.co2 1129  HEC1129     0.0000
     17  NB        19.9480  -28.3170   46.4730 N.ar  1129  HEC1129     0.0000
     18  C1B       19.5320  -29.6100   46.7960 C.ar  1129  HEC1129     0.0000
     19  C2B       18.0780  -29.6140   46.8370 C.ar  1129  HEC1129     0.0000
     20  C3B       17.6320  -28.4150   46.4180 C.ar  1129  HEC1129     0.0000
     21  C4B       18.7920  -27.6290   46.2080 C.ar  1129  HEC1129     0.0000
     22  CMB       17.1740  -30.8580   46.9870 C.3   1129  HEC1129     0.0000
     23  CAB       16.1650  -27.9600   46.2130 C.3   1129  HEC1129     0.0000
     24  CBB       15.3720  -27.9280   47.5560 C.3   1129  HEC1129     0.0000
     25  NC        21.1150  -26.0590   45.6080 N.2   1129  HEC1129     0.0000
     26  C1C       19.8460  -25.6500   45.3270 C.2   1129  HEC1129     0.0000
     27  C2C       19.8520  -24.3780   44.7140 C.2   1129  HEC1129     0.0000
     28  C3C       21.1280  -24.0500   44.5100 C.2   1129  HEC1129     0.0000
     29  C4C       21.9680  -25.1080   45.0830 C.2   1129  HEC1129     0.0000
     30  CMC       18.5180  -23.7100   44.2360 C.3   1129  HEC1129     0.0000
     31  CAC       21.7840  -22.7490   43.9070 C.3   1129  HEC1129     0.0000
     32  CBC       21.2000  -21.3520   44.2220 C.3   1129  HEC1129     0.0000
     33  ND        23.6700  -27.1400   46.4380 N.ar  1129  HEC1129     0.0000
     34  C1D       24.1170  -25.9500   45.8340 C.ar  1129  HEC1129     0.0000
     35  C2D       25.5580  -25.8470   45.9560 C.ar  1129  HEC1129     0.0000
     36  C3D       26.0030  -27.0290   46.7250 C.ar  1129  HEC1129     0.0000
     37  C4D       24.7810  -27.7900   46.9640 C.ar  1129  HEC1129     0.0000
     38  CMD       26.4520  -24.7320   45.3910 C.3   1129  HEC1129     0.0000
     39  CAD       27.4450  -27.2720   47.1620 C.3   1129  HEC1129     0.0000
     40  CBD       27.7780  -26.2590   48.2970 C.3   1129  HEC1129     0.0000
     41  CGD       26.7750  -26.2290   49.4520 C.2   1129  HEC1129     0.0000
     42  O1D       26.1660  -25.1660   49.7310 O.co2 1129  HEC1129     0.0000
     43  O2D       26.6060  -27.2630   50.1300 O.co2 1129  HEC1129     0.0000
@<TRIPOS>BOND
     1    31    32    1
     2    31    28    1
     3    30    27    1
     4    28    27    2
     5    28    29    1
     6    27    26    1
     7    29     5    1
     8    29    25    2
     9     5    34    2
    10    26    25    1
    11    26     4    2
    12    38    35    1
    13    25     1    1
    14     4    21    1
    15    34    35   ar
    16    34    33   ar
    17    35    36   ar
    18    21    20   ar
    19    21    17   ar
    20    23    20    1
    21    23    24    1
    22    20    19   ar
    23    33     1    1
    24    33    37   ar
    25     1    17    1
    26     1     6    1
    27    17    18   ar
    28    36    37   ar
    29    36    39    1
    30    18    19   ar
    31    18     3    1
    32    19    22    1
    33    37     2    2
    34     3    10    2
    35    39    40    1
    36     6    10    1
    37     6     7    2
    38    10     9    1
    39     2     7    1
    40     7     8    1
    41     9     8    2
    42     9    11    1
    43     8    12    1
    44    40    41    1
    45    12    13    1
    46    41    42   ar
    47    41    43   ar
    48    13    14    1
    49    15    14   ar
    50    14    16   ar
