@<TRIPOS>MOLECULE
3o5b_BGC_A_1.pdb
 12 12 0 0 0
SMALL
GASTEIGER

@<TRIPOS>ATOM
      1  C2        12.0110  -24.2420   -2.1330 C.3   486  BGC486      0.2434
      2  C3        12.0700  -22.8390   -2.7200 C.3   486  BGC486      0.2199
      3  C4        13.0040  -22.9790   -3.9370 C.3   486  BGC486      0.2144
      4  C5        12.3050  -23.8180   -5.0090 C.3   486  BGC486      0.1836
      5  C6        13.3540  -24.7340   -5.6420 C.3   486  BGC486      0.2142
      6  C1        11.0360  -24.9590   -3.0890 C.3   486  BGC486      0.3024
      7  O1        10.9500  -26.3620   -2.9200 O.3   486  BGC486     -0.1869
      8  O2        11.6450  -24.2080   -0.7560 O.3   486  BGC486     -0.2148
      9  O3        12.3810  -21.8000   -1.7920 O.3   486  BGC486     -0.2174
     10  O4        13.4580  -21.7540   -4.4820 O.3   486  BGC486     -0.2176
     11  O5        11.2310  -24.6210   -4.4860 O.3   486  BGC486     -0.3236
     12  O6        13.1440  -24.9140   -7.0360 O.3   486  BGC486     -0.2176
@<TRIPOS>BOND
     1    12     5    1
     2     5     4    1
     3     4    11    1
     4     4     3    1
     5    11     6    1
     6    10     3    1
     7     3     2    1
     8     6     7    1
     9     6     1    1
    10     2     1    1
    11     2     9    1
    12     1     8    1
