@<TRIPOS>MOLECULE
3o5c_HEM_A_1.pdb
 43 50 0 0 0
SMALL
GASTEIGER

@<TRIPOS>ATOM
      1  CHA       -0.7640   -4.3810   -4.8890 C.2   401  HEM401      0.0000
      2  CHB        1.7380   -0.9910   -7.2690 C.2   401  HEM401      0.0000
      3  CHC       -1.2360   -1.7770  -10.9910 C.2   401  HEM401      0.0000
      4  CHD       -4.5340   -3.3350   -7.8510 C.2   401  HEM401      0.0000
      5  C1A        0.2170   -3.4510   -5.1780 C.2   401  HEM401      0.0000
      6  C2A        1.3770   -3.1100   -4.3740 C.2   401  HEM401      0.0000
      7  C3A        2.0770   -2.1740   -5.0360 C.2   401  HEM401      0.0000
      8  C4A        1.3790   -1.8740   -6.2640 C.2   401  HEM401      0.0000
      9  CMA        3.3850   -1.5140   -4.5720 C.3   401  HEM401      0.0000
     10  CAA        1.7320   -3.7890   -3.0350 C.3   401  HEM401      0.0000
     11  CBA        1.6570   -2.8640   -1.8360 C.3   401  HEM401      0.0000
     12  CGA        1.4250   -3.6580   -0.5710 C.2   401  HEM401      0.0000
     13  O1A        1.5830   -3.0650    0.5130 O.co2 401  HEM401      0.0000
     14  O2A        1.0680   -4.8640   -0.6150 O.co2 401  HEM401      0.0000
     15  C1B        1.2740   -1.0560   -8.5680 C.ar  401  HEM401      0.0000
     16  C2B        1.9510   -0.6670   -9.7960 C.ar  401  HEM401      0.0000
     17  C3B        1.1130   -0.8870  -10.8140 C.ar  401  HEM401      0.0000
     18  C4B       -0.1140   -1.4370  -10.2790 C.ar  401  HEM401      0.0000
     19  CMB        3.3870   -0.0880   -9.8760 C.3   401  HEM401      0.0000
     20  CAB        1.3600   -0.6910  -12.3330 C.2   401  HEM401      0.0000
     21  CBB        2.4130   -1.3180  -12.8830 C.2   401  HEM401      0.0000
     22  C1C       -2.4570   -2.1360  -10.4710 C.2   401  HEM401      0.0000
     23  C2C       -3.7400   -2.1140  -11.1410 C.2   401  HEM401      0.0000
     24  C3C       -4.6640   -2.5700  -10.2780 C.2   401  HEM401      0.0000
     25  C4C       -3.9910   -2.8690   -9.0260 C.2   401  HEM401      0.0000
     26  CMC       -3.9290   -1.6480  -12.6010 C.3   401  HEM401      0.0000
     27  CAC       -6.1870   -2.7550  -10.4840 C.2   401  HEM401      0.0000
     28  CBC       -6.6620   -3.3280  -11.6030 C.2   401  HEM401      0.0000
     29  C1D       -3.8080   -3.9290   -6.8450 C.ar  401  HEM401      0.0000
     30  C2D       -4.2840   -4.9720   -5.9710 C.ar  401  HEM401      0.0000
     31  C3D       -3.0980   -5.2940   -5.0620 C.ar  401  HEM401      0.0000
     32  C4D       -2.0200   -4.4370   -5.4610 C.ar  401  HEM401      0.0000
     33  CMD       -5.6900   -5.6230   -5.9610 C.3   401  HEM401      0.0000
     34  CAD       -3.0640   -6.3580   -3.9490 C.3   401  HEM401      0.0000
     35  CBD       -2.9990   -7.7240   -4.6450 C.3   401  HEM401      0.0000
     36  CGD       -2.5170   -8.8260   -3.7310 C.2   401  HEM401      0.0000
     37  O1D       -2.3540   -9.9820   -4.2100 O.co2 401  HEM401      0.0000
     38  O2D       -2.2780   -8.5760   -2.5330 O.co2 401  HEM401      0.0000
     39  NA         0.2510   -2.6620   -6.3020 N.2   401  HEM401      0.0000
     40  NB         0.0280   -1.5170   -8.9190 N.ar  401  HEM401      0.0000
     41  NC        -2.6540   -2.5800   -9.1810 N.2   401  HEM401      0.0000
     42  ND        -2.4780   -3.6510   -6.5070 N.ar  401  HEM401      0.0000
     43 FE         -1.1940   -2.5790   -7.7050 Fe    401  HEM401      0.0000
@<TRIPOS>BOND
     1    21    20    2
     2    26    23    1
     3    20    17    1
     4    28    27    2
     5    23    22    1
     6    23    24    2
     7     3    22    2
     8     3    18    1
     9    17    18   ar
    10    17    16   ar
    11    27    24    1
    12    22    41    1
    13    18    40   ar
    14    24    25    1
    15    19    16    1
    16    16    15   ar
    17    41    25    2
    18    41    43    1
    19    25     4    1
    20    40    15   ar
    21    40    43    1
    22    15     2    1
    23     4    29    2
    24    43    42    1
    25    43    39    1
    26     2     8    2
    27    29    42   ar
    28    29    30   ar
    29    42    32   ar
    30    39     8    1
    31    39     5    2
    32     8     7    1
    33    30    33    1
    34    30    31   ar
    35    32    31   ar
    36    32     1    2
    37     5     1    1
    38     5     6    1
    39    31    34    1
    40     7     9    1
    41     7     6    2
    42    35    34    1
    43    35    36    1
    44     6    10    1
    45    37    36   ar
    46    36    38   ar
    47    10    11    1
    48    11    12    1
    49    14    12   ar
    50    12    13   ar
