@<TRIPOS>MOLECULE
3o5n_BR0_E_1.pdb
 22 24 0 0 0
SMALL
GASTEIGER

@<TRIPOS>ATOM
      1  C         51.7950  -20.5690   89.8930 C.2     1  BR01        0.3866
      2  N         54.1240  -21.1790   89.6590 N.2     1  BR01       -0.2646
      3  O         51.9170  -21.3220   90.8810 O.co2   1  BR01       -0.2435
      4  CA        53.0840  -20.2900   89.1060 C.3     1  BR01        0.2052
      5  CB        53.5030  -18.7880   89.1680 C.3     1  BR01        0.0342
      6  CG        54.8740  -18.4990   89.8280 C.3     1  BR01        0.0137
      7  OAA       55.1270  -23.7560   90.2080 O.co2   1  BR01       -0.2405
      8  OAC       59.2950  -18.0330   89.7190 O.2     1  BR01       -0.1264
      9  OAD       56.0180  -24.1100   88.2120 O.co2   1  BR01       -0.2405
     10  OAF       57.2130  -16.8960   89.2460 O.2     1  BR01       -0.1264
     11  CAG       57.7000  -21.7260   89.0990 C.2     1  BR01        0.0091
     12  CAH       58.1640  -20.4120   89.1650 C.2     1  BR01        0.0202
     13  CAI       53.0480  -18.1950   91.4570 C.3     1  BR01        0.0001
     14  CAK       52.5660  -17.9430   90.0280 C.3     1  BR01        0.0025
     15  CAM       55.7880  -23.3920   89.2110 C.2     1  BR01        0.3889
     16  CAO       56.3470  -21.9730   89.2620 C.2     1  BR01        0.0933
     17  CAP       57.3110  -19.3330   89.3990 C.2     1  BR01        0.1257
     18  CAQ       55.4810  -20.9120   89.4960 C.2     1  BR01        0.0660
     19  NAT       57.8960  -18.1170   89.4490 N.pl3   1  BR01        0.0539
     20  CD1       54.5580  -18.4050   91.3270 C.3     1  BR01        0.0008
     21  CD2       55.9350  -19.5950   89.5660 C.3     1  BR01        0.0851
     22  OXT       50.7220  -20.0610   89.4940 O.co2   1  BR01       -0.2435
@<TRIPOS>BOND
     1     9    15   ar
     2    11    12    1
     3    11    16    2
     4     4     5    1
     5     4     2    1
     6     4     1    1
     7    12    17    2
     8     5     6    1
     9     5    14    1
    10    15    16    1
    11    15     7   ar
    12    10    19    2
    13    16    18    1
    14    17    19    1
    15    17    21    1
    16    19     8    2
    17    22     1   ar
    18    18    21    1
    19    18     2    2
    20    21     6    1
    21     6    20    1
    22     1     3   ar
    23    14    13    1
    24    20    13    1
