@<TRIPOS>MOLECULE
3o5x_JZG_A_1.pdb
 42 47 0 0 0
SMALL
GASTEIGER

@<TRIPOS>ATOM
      1  C1        27.7690    3.8870   -0.0110 C.ar    1  JZG1        0.0632
      2  N1        28.6990    4.5120    0.8080 N.ar    1  JZG1       -0.3250
      3  O1        24.3590    2.6430   -0.5970 O.3     1  JZG1       -0.2863
      4  C2        26.3930    3.5860    0.2170 C.ar    1  JZG1        0.0594
      5  N2        31.7020    2.9690   -2.1170 N.2     1  JZG1       -0.1496
      6  O2        24.6490    2.3840   -3.5750 O.co2   1  JZG1       -0.2404
      7  C3        25.6650    2.9240   -0.8190 C.ar    1  JZG1        0.2035
      8  N3        32.3380    3.3190   -3.2660 N.pl3   1  JZG1       -0.0628
      9  O3        26.0570    0.7180   -3.4810 O.co2   1  JZG1       -0.2404
     10  C4        26.3060    2.5600   -2.0610 C.ar    1  JZG1        0.1187
     11  N4        31.8530    4.3730   -3.9570 N.3     1  JZG1       -0.1625
     12  O4        34.6400    6.8730   -6.1510 O.2     1  JZG1       -0.2729
     13  C5        27.6870    2.8790   -2.2630 C.ar    1  JZG1        0.0113
     14  N5        34.9450    6.7200   -3.9340 N.am    1  JZG1       -0.1792
     15  C6        28.4300    3.5510   -1.2270 C.ar    1  JZG1        0.0188
     16  C7        25.6260    1.9080   -3.0620 C.2     1  JZG1        0.3909
     17  C8        29.7770    4.0070   -1.1150 C.ar    1  JZG1        0.0337
     18  C9        29.9300    4.5960    0.1530 C.ar    1  JZG1        0.0611
     19  C10       28.4050    5.0160    2.1800 C.3     1  JZG1        0.1304
     20  C11       31.0640    5.1560    0.6610 C.ar    1  JZG1        0.0158
     21  C12       31.3840    6.5210    0.3760 C.ar    1  JZG1        0.0014
     22  C13       32.5680    7.1010    0.9080 C.ar    1  JZG1        0.0000
     23  C14       33.4350    6.3230    1.7280 C.ar    1  JZG1        0.0000
     24  C15       33.1190    4.9640    2.0150 C.ar    1  JZG1        0.0000
     25  C16       31.9390    4.3810    1.4830 C.ar    1  JZG1        0.0014
     26  C17       30.7260    3.8840   -2.0750 C.2     1  JZG1        0.0986
     27  C18       30.8210    4.7300   -3.1880 C.3     1  JZG1        0.1426
     28  C19       32.3230    4.9810   -5.2180 C.3     1  JZG1        0.1055
     29  C20       32.6520    6.4550   -4.9720 C.3     1  JZG1        0.1063
     30  C21       34.1450    6.6910   -5.0700 C.2     1  JZG1        0.2470
     31  C22       35.2070    5.5980   -3.1990 C.ar    1  JZG1        0.0734
     32  C23       34.6840    5.4850   -1.8800 C.ar    1  JZG1        0.0166
     33  C24       34.9450    4.3230   -1.1040 C.ar    1  JZG1        0.0013
     34  C25       35.7330    3.2630   -1.6420 C.ar    1  JZG1        0.0001
     35  C26       36.2620    3.3760   -2.9670 C.ar    1  JZG1        0.0013
     36  C27       36.0010    4.5370   -3.7410 C.ar    1  JZG1        0.0166
     37  C28       35.9730    2.1600   -0.9010 C.ar    1  JZG1        0.0000
     38  C29       36.9560    2.1840    0.1370 C.ar    1  JZG1        0.0000
     39  C30       37.1980    1.0140    0.9110 C.ar    1  JZG1        0.0000
     40  C31       36.4620   -0.1790    0.6530 C.ar    1  JZG1        0.0000
     41  C32       35.4840   -0.2040   -0.3770 C.ar    1  JZG1        0.0000
     42  C33       35.2360    0.9570   -1.1540 C.ar    1  JZG1        0.0000
@<TRIPOS>BOND
     1    12    30    2
     2    28    29    1
     3    28    11    1
     4    30    29    1
     5    30    14   am
     6    11     8    1
     7    11    27    1
     8    14    31    1
     9    36    31   ar
    10    36    35   ar
    11     6    16   ar
    12     9    16   ar
    13     8     5    1
    14    31    32   ar
    15    27    26    1
    16    16    10    1
    17    35    34   ar
    18    13    10   ar
    19    13    15   ar
    20     5    26    2
    21    26    17    1
    22    10     7   ar
    23    32    33   ar
    24    34    33   ar
    25    34    37    1
    26    15    17   ar
    27    15     1   ar
    28    42    37   ar
    29    42    41   ar
    30    17    18   ar
    31    37    38   ar
    32     7     3    1
    33     7     4   ar
    34    41    40   ar
    35     1     4   ar
    36     1     2   ar
    37    38    39   ar
    38    18    20    1
    39    18     2   ar
    40    21    20   ar
    41    21    22   ar
    42    40    39   ar
    43    20    25   ar
    44     2    19    1
    45    22    23   ar
    46    25    24   ar
    47    23    24   ar
