@<TRIPOS>MOLECULE
3o61_GDD_A_1.pdb
 39 42 0 0 0
SMALL
GASTEIGER

@<TRIPOS>ATOM
      1  N2        36.9570   31.1160   94.6530 N.pl3 3846  GDD3846    -0.0226
      2  C2        35.6810   30.8910   95.0880 C.1   3846  GDD3846     0.2531
      3  N1        34.7170   30.4550   94.2200 N.2   3846  GDD3846    -0.2485
      4  N3        35.4040   31.1190   96.4000 N.2   3846  GDD3846    -0.3074
      5  C4        34.1590   30.9280   96.9400 C.2   3846  GDD3846     0.2300
      6  C5        33.0800   30.4610   96.0420 C.2   3846  GDD3846     0.2182
      7  C6        33.4310   30.2330   94.6030 C.1   3846  GDD3846     0.2372
      8  O6        32.5790   29.8150   93.7840 O.2   3846  GDD3846    -0.2069
      9  N7        31.9840   30.3510   96.8170 N.2   3846  GDD3846    -0.2322
     10  C8        32.3190   30.7170   98.0820 C.3   3846  GDD3846     0.2246
     11  N9        33.6150   31.0680   98.1710 N.pl3 3846  GDD3846    -0.2354
     12  C1'       34.3110   31.5230   99.4280 C.3   3846  GDD3846     0.2293
     13  C2'       34.5890   33.0310   99.4440 C.3   3846  GDD3846     0.2310
     14  O2'       35.7560   33.3160  100.2320 O.3   3846  GDD3846    -0.2158
     15  C3'       33.3480   33.6140  100.1010 C.3   3846  GDD3846     0.2158
     16  O3'       33.5960   34.8860  100.7430 O.3   3846  GDD3846    -0.2175
     17  C4'       32.9120   32.5050  101.0620 C.3   3846  GDD3846     0.1799
     18  O4'       33.4700   31.2710  100.5590 O.3   3846  GDD3846    -0.3326
     19  C5'       31.3920   32.3860  101.2350 C.3   3846  GDD3846     0.1813
     20  O5'       31.1130   31.8710  102.5550 O.3   3846  GDD3846    -0.3112
     21  PA        29.6220   31.6830  103.1770 P.3   3846  GDD3846     0.2189
     22  O1A       29.1890   32.9240  103.9500 O.3   3846  GDD3846    -0.4371
     23  O2A       29.6320   30.3220  103.8550 O.2   3846  GDD3846    -0.5170
     24  O3A       28.7700   31.5720  101.7740 O.3   3846  GDD3846    -0.2703
     25  PB        27.3110   32.2000  101.3970 P.3   3846  GDD3846     0.2208
     26  O2B       26.7530   33.2160  102.4060 O.3   3846  GDD3846    -0.4371
     27  O3B       27.4460   32.6030   99.9290 O.2   3846  GDD3846    -0.5170
     28  O1B       26.4310   30.8520  101.4720 O.3   3846  GDD3846    -0.2857
     29  C11       25.1830   30.6340  102.1340 C.3   3846  GDD3846     0.2742
     30  O51       24.0640   31.2020  101.4190 O.3   3846  GDD3846    -0.3254
     31  C51       23.7900   30.6440  100.1160 C.3   3846  GDD3846     0.1835
     32  C61       22.6540   31.3920   99.3970 C.3   3846  GDD3846     0.2142
     33  O6A       21.3570   30.7840   99.6130 O.3   3846  GDD3846    -0.2176
     34  C21       25.0490   29.1070  102.2360 C.3   3846  GDD3846     0.2409
     35  O21       24.0160   28.7880  103.1620 O.3   3846  GDD3846    -0.2149
     36  C31       24.7410   28.4540  100.8740 C.3   3846  GDD3846     0.2198
     37  O31       24.5070   27.0590  101.0990 O.3   3846  GDD3846    -0.2174
     38  C41       23.5280   29.1260  100.2240 C.3   3846  GDD3846     0.2144
     39  O41       23.1960   28.6340   98.9070 O.3   3846  GDD3846    -0.2176
@<TRIPOS>BOND
     1     8     7    2
     2     3     7    2
     3     3     2    2
     4     7     6    1
     5     1     2    1
     6     2     4    2
     7     6     9    2
     8     6     5    1
     9     4     5    2
    10     9    10    1
    11     5    11    1
    12    10    11    1
    13    11    12    1
    14    39    38    1
    15    32    33    1
    16    32    31    1
    17    12    13    1
    18    12    18    1
    19    13    15    1
    20    13    14    1
    21    27    25    2
    22    15    16    1
    23    15    17    1
    24    31    38    1
    25    31    30    1
    26    38    36    1
    27    18    17    1
    28    36    37    1
    29    36    34    1
    30    17    19    1
    31    19    20    1
    32    25    28    1
    33    25    24    1
    34    25    26    1
    35    30    29    1
    36    28    29    1
    37    24    21    1
    38    29    34    1
    39    34    35    1
    40    20    21    1
    41    21    23    2
    42    21    22    1
