@<TRIPOS>MOLECULE
3o64_INN_A_1.pdb
 29 28 0 0 0
SMALL
GASTEIGER

@<TRIPOS>ATOM
      1  C0         6.1360    9.3980   24.2420 C.3     9  INN9        0.0603
      2  C          6.8860   10.5940   24.3010 C.2     9  INN9        0.0873
      3  O          8.1040   10.4750   24.0610 O.2     9  INN9       -0.5395
      4  N          6.1150   11.5740   24.7550 N.am    9  INN9       -0.2030
      5  O4         6.6740   12.6630   25.2080 O.3     9  INN9       -0.4026
      6  C4         6.0180    7.0640   24.9860 C.2     9  INN9        0.2417
      7  O1         4.7880    7.0360   25.2050 O.2     9  INN9       -0.2733
      8  CA         6.6970    8.3840   25.2900 C.3     9  INN9        0.0845
      9  CB         6.6510    8.7860   26.7570 C.3     9  INN9        0.0095
     10  C1         7.3840    7.8360   27.7030 C.3     9  INN9        0.0005
     11  C2         8.9400    7.8340   27.5130 C.3     9  INN9        0.0000
     12  C3         7.0820    8.3370   29.1310 C.3     9  INN9        0.0000
     13  N1         6.7640    6.0720   24.5170 N.am    9  INN9       -0.1978
     14  C5         6.1860    4.7540   24.1670 C.3     9  INN9        0.1726
     15  C6         6.4030    4.4810   22.6120 C.3     9  INN9        0.0270
     16  C7         5.7750    3.1370   22.1060 C.3     9  INN9        0.0022
     17  C8         5.6180    5.5520   21.8090 C.3     9  INN9        0.0022
     18  C9         7.9080    4.4900   22.2180 C.3     9  INN9        0.0022
     19  C10        6.6160    3.6410   25.0970 C.2     9  INN9        0.2616
     20  O2         7.7880    3.4360   25.1980 O.2     9  INN9       -0.2715
     21  N2         5.6320    2.9430   25.7380 N.am    9  INN9       -0.1963
     22  C11        5.8150    1.6800   26.4410 C.3     9  INN9        0.1728
     23  C13        5.2460    0.5660   25.7020 C.2     9  INN9        0.2613
     24  O3         4.1210    0.6130   25.7470 O.2     9  INN9       -0.2715
     25  C12        5.2230    1.6770   27.8570 C.3     9  INN9        0.0334
     26  N4         6.2190   -2.1660   21.8100 N.3     9  INN9       -0.1294
     27  C15        6.6140   -1.7500   23.1660 C.3     9  INN9        0.1327
     28  C14        5.8060   -0.5260   23.6190 C.3     9  INN9        0.1356
     29  N3         5.9140   -0.3630   25.0590 N.am    9  INN9       -0.2024
@<TRIPOS>BOND
     1    17    15    1
     2    26    27    1
     3    16    15    1
     4    18    15    1
     5    15    14    1
     6    27    28    1
     7    28    29    1
     8     3     2    2
     9    14    13    1
    10    14    19    1
    11     1     2    1
    12     1     8    1
    13     2     4   am
    14    13     6   am
    15     4     5    1
    16     6     7    2
    17     6     8    1
    18    29    23   am
    19    19    20    2
    20    19    21   am
    21     8     9    1
    22    23    24    2
    23    23    22    1
    24    21    22    1
    25    22    25    1
    26     9    10    1
    27    11    10    1
    28    10    12    1
