@<TRIPOS>MOLECULE
3o64_786_B_1.pdb
 38 41 0 0 0
SMALL
GASTEIGER

@<TRIPOS>ATOM
      1  C1        49.1300   34.7210   36.7950 C.3     2  7862        0.0939
      2  N2        50.4790   35.1680   37.2090 N.am    2  7862       -0.2729
      3  C3        51.2810   35.3960   35.9750 C.3     2  7862        0.1261
      4  C4        50.3740   35.3450   34.7750 C.3     2  7862        0.0286
      5  C5        49.0530   34.7020   35.2340 C.3     2  7862        0.0236
      6  C6        50.9450   35.3250   38.3890 C.2     2  7862        0.2595
      7  O7        52.1250   35.7140   38.5950 O.2     2  7862       -0.2720
      8  C8        50.0500   35.0120   39.6090 C.3     2  7862        0.2665
      9  C9        50.1900   33.4520   39.7620 C.3     2  7862        0.2680
     10  C10       49.1620   33.0060   40.7920 C.2     2  7862        0.2753
     11  O11       50.7130   35.6130   40.6930 O.3     2  7862       -0.2099
     12  O12       47.9420   32.9010   40.4720 O.2     2  7862       -0.2705
     13  N13       49.6120   32.7700   42.0450 N.am    2  7862       -0.2005
     14  O14       51.5840   33.2440   40.2350 O.3     2  7862       -0.2098
     15  C15       48.7390   32.3410   43.1710 C.3     2  7862        0.1176
     16  C16       49.5510   31.5300   44.1850 C.ar    2  7862       -0.0025
     17  C17       48.9270   31.1400   45.4290 C.ar    2  7862       -0.0011
     18  C18       49.6830   30.4070   46.3800 C.ar    2  7862        0.0189
     19  C19       51.0150   30.0310   46.1250 C.ar    2  7862        0.0828
     20  C20       51.6340   30.3890   44.9090 C.ar    2  7862        0.0189
     21  C21       50.9000   31.1520   43.9490 C.ar    2  7862       -0.0011
     22  N22       51.7540   29.2610   47.0750 N.ar    2  7862       -0.2281
     23  C23       52.2620   34.1990   35.8250 C.2     2  7862        0.1393
     24  N24       51.1560   28.2120   47.8410 N.ar    2  7862       -0.1635
     25  C25       52.1090   27.7200   48.6010 C.ar    2  7862        0.1221
     26  C26       53.3570   28.4400   48.3260 C.ar    2  7862        0.0431
     27  C27       53.0710   29.3530   47.4110 C.ar    2  7862        0.1020
     28  N28       51.9600   32.8990   36.2830 N.2     2  7862       -0.3838
     29  C29       52.8490   31.9010   36.1040 C.2     2  7862        0.2276
     30  S30       54.1990   32.6630   35.3060 S.3     2  7862       -0.0359
     31  C31       53.4660   34.2730   35.2410 C.3     2  7862        0.2329
     32  N32       52.8120   30.5620   36.4460 N.pl3   2  7862       -0.2025
     33  C33       51.4700   30.2370   36.9190 C.3     2  7862        0.1387
     34  C34       48.0630   33.5780   43.8260 C.3     2  7862        0.0283
     35  S35       54.2870   35.7030   34.5090 S.O2    2  7862        0.0062
     36  O36       54.5430   35.2880   33.1410 O.2     2  7862       -0.1718
     37  O37       55.5760   35.9060   35.1580 O.2     2  7862       -0.1718
     38  C38       53.4180   37.2770   34.6170 C.3     2  7862        0.1775
@<TRIPOS>BOND
     1    36    35    2
     2    35    38    1
     3    35    37    2
     4    35    31    1
     5     4     5    1
     6     4     3    1
     7     5     1    1
     8    31    30    1
     9    31    23    1
    10    30    29    1
    11    23     3    1
    12    23    28    2
    13     3     2    1
    14    29    28    2
    15    29    32    1
    16    32    33    1
    17     1     2    1
    18     2     6   am
    19     6     7    2
    20     6     8    1
    21     8     9    1
    22     8    11    1
    23     9    14    1
    24     9    10    1
    25    12    10    2
    26    10    13   am
    27    13    15    1
    28    15    34    1
    29    15    16    1
    30    21    16   ar
    31    21    20   ar
    32    16    17   ar
    33    20    19   ar
    34    17    18   ar
    35    19    18   ar
    36    19    22    1
    37    22    27   ar
    38    22    24   ar
    39    27    26   ar
    40    24    25   ar
    41    26    25   ar
