@<TRIPOS>MOLECULE
3o6d_PXP_A_1.pdb
 16 16 0 0 0
SMALL
GASTEIGER

@<TRIPOS>ATOM
      1  N1        17.1070   40.5360   17.6990 N.ar  801  PXP801     -0.2452
      2  C2        15.8460   40.1890   17.3870 C.ar  801  PXP801      0.0979
      3  C2A       15.0440   39.4080   18.4360 C.3   801  PXP801      0.0555
      4  C3        15.3230   40.5210   16.1260 C.ar  801  PXP801      0.2073
      5  O3        14.0450   40.1600   15.7800 O.3   801  PXP801     -0.2856
      6  C4        16.0950   41.2290   15.2050 C.ar  801  PXP801      0.0506
      7  C4A       15.4890   41.5500   13.8420 C.3   801  PXP801      0.2116
      8  O4A       14.5160   42.6100   13.8610 O.3   801  PXP801     -0.2151
      9  C5        17.4000   41.5740   15.5540 C.ar  801  PXP801      0.0286
     10  C6        17.8680   41.2460   16.8250 C.ar  801  PXP801      0.0966
     11  C5A       18.3200   42.3640   14.6290 C.3   801  PXP801      0.1816
     12  O4P       17.7870   43.6800   14.5590 O.3   801  PXP801     -0.2653
     13  P         18.3440   44.7190   13.5140 P.3   801  PXP801      0.5329
     14  O1P       17.6580   46.0030   13.8180 O.3   801  PXP801     -0.1145
     15  O2P       18.0770   44.2090   12.1160 O.2   801  PXP801     -0.2224
     16  O3P       19.8200   44.8440   13.8220 O.3   801  PXP801     -0.1145
@<TRIPOS>BOND
     1    15    13    2
     2    13    14    1
     3    13    16    1
     4    13    12    1
     5     7     8    1
     6     7     6    1
     7    12    11    1
     8    11     9    1
     9     6     9   ar
    10     6     4   ar
    11     9    10   ar
    12     5     4    1
    13     4     2   ar
    14    10     1   ar
    15     2     1   ar
    16     2     3    1
