@<TRIPOS>MOLECULE
3o6g_GLU_A_1.pdb
 10 9 0 0 0
SMALL
GASTEIGER

@<TRIPOS>ATOM
      1  N         13.6690    2.4250   16.3120 N.3   264  GLU264     -0.1208
      2  CA        14.8000    1.4970   16.5630 C.3   264  GLU264      0.1949
      3  C         14.9740    1.2430   18.0440 C.2   264  GLU264      0.3819
      4  O         15.9050    0.5170   18.4290 O.co2 264  GLU264     -0.2441
      5  CB        16.1040    2.0630   15.9820 C.3   264  GLU264      0.0424
      6  CG        16.2400    1.9130   14.4700 C.3   264  GLU264      0.1161
      7  CD        16.5470    0.4900   14.0130 C.2   264  GLU264      0.3649
      8  OE1       16.4600    0.2530   12.7870 O.co2 264  GLU264     -0.2457
      9  OE2       16.8610   -0.3930   14.8530 O.co2 264  GLU264     -0.2457
     10  OXT       14.1920    1.7470   18.8560 O.co2 264  GLU264     -0.2441
@<TRIPOS>BOND
     1     8     7   ar
     2     7     6    1
     3     7     9   ar
     4     6     5    1
     5     5     2    1
     6     1     2    1
     7     2     3    1
     8     3     4   ar
     9     3    10   ar
