@<TRIPOS>MOLECULE
3o6g_O27_A_1.pdb
 34 38 0 0 0
SMALL
GASTEIGER

@<TRIPOS>ATOM
      1  F1         2.9940   -1.9430   20.0540 F     268  O27268     -0.1644
      2  C2         3.5280   -2.6780   19.0490 C.3   268  O27268      0.4362
      3  F3         4.7610   -2.1680   18.8560 F     268  O27268     -0.1644
      4  F4         3.7280   -3.9230   19.5550 F     268  O27268     -0.1644
      5  C5         2.7040   -2.6130   17.7870 C.ar  268  O27268      0.1693
      6  N6         2.3910   -1.4310   17.2240 N.ar  268  O27268     -0.1655
      7  N7         1.6730   -1.7540   16.1270 N.ar  268  O27268     -0.2458
      8  C8         1.4950   -3.0860   15.9710 C.ar  268  O27268      0.0535
      9  C9         2.1530   -3.6810   17.0220 C.ar  268  O27268      0.0144
     10  C10        2.1920   -5.1520   17.1860 C.3   268  O27268      0.0291
     11  C11        1.2070   -5.9130   16.2690 C.3   268  O27268      0.0052
     12  C12        1.0600   -5.2950   14.8640 C.3   268  O27268      0.0066
     13  C13        0.7660   -3.7860   14.8870 C.3   268  O27268      0.0452
     14  C14        1.2070   -0.6180   15.3560 C.3   268  O27268      0.2135
     15  C15       -0.1930   -0.2560   15.7890 C.2   268  O27268      0.2709
     16  O16       -0.9550   -1.1230   16.1700 O.2   268  O27268     -0.2708
     17  C22       -1.3480    3.2930   16.4520 C.ar  268  O27268      0.0727
     18  O28        0.4060    3.5930   14.8840 O.2   268  O27268     -0.2683
     19  S19       -2.3900    1.1940   17.5300 S.2   268  O27268     -0.0750
     20  C27       -0.4610    4.0870   15.5860 C.2   268  O27268      0.2662
     21  N17       -0.4560    1.0990   15.6790 N.am  268  O27268     -0.1708
     22  C21       -2.3560    3.7570   17.4020 C.ar  268  O27268     -0.0140
     23  C20       -2.9760    2.6890   18.0250 C.ar  268  O27268      0.0047
     24  C18       -1.2910    1.8990   16.4460 C.ar  268  O27268      0.1066
     25  C23       -2.7810    5.1610   17.7720 C.3   268  O27268      0.0268
     26  C24       -3.7050    5.2620   19.0060 C.3   268  O27268      0.0050
     27  C25       -4.7440    4.1340   19.0150 C.3   268  O27268      0.0055
     28  C26       -4.0600    2.7660   19.0530 C.3   268  O27268      0.0327
     29  N29       -0.6450    5.4320   15.6440 N.am  268  O27268     -0.2019
     30  C30       -1.3040    6.2410   14.6350 C.3   268  O27268      0.1144
     31  C31       -1.0350    7.7180   14.9050 C.3   268  O27268      0.1103
     32  N32       -1.3840    8.3770   13.6410 N.3   268  O27268     -0.2162
     33  C33       -1.0890    7.4050   12.5730 C.3   268  O27268      0.0906
     34  C34       -0.6660    6.1050   13.2610 C.3   268  O27268      0.0419
@<TRIPOS>BOND
     1    33    34    1
     2    33    32    1
     3    34    30    1
     4    32    31    1
     5    30    31    1
     6    30    29    1
     7    12    13    1
     8    12    11    1
     9    18    20    2
    10    13     8    1
    11    14    15    1
    12    14     7    1
    13    20    29   am
    14    20    17    1
    15    21    15   am
    16    21    24    1
    17    15    16    2
    18     8     7   ar
    19     8     9   ar
    20     7     6   ar
    21    11    10    1
    22    24    17   ar
    23    24    19   ar
    24    17    22   ar
    25     9    10    1
    26     9     5   ar
    27     6     5   ar
    28    22    25    1
    29    22    23   ar
    30    19    23   ar
    31    25    26    1
    32     5     2    1
    33    23    28    1
    34     3     2    1
    35    26    27    1
    36    27    28    1
    37     2     4    1
    38     2     1    1
