@<TRIPOS>MOLECULE
3o6h_GLU_A_1.pdb
 10 9 0 0 0
SMALL
GASTEIGER

@<TRIPOS>ATOM
      1  N         13.6980    2.5230   16.2290 N.3   264  GLU264     -0.1208
      2  CA        14.7760    1.5190   16.3960 C.3   264  GLU264      0.1949
      3  C         14.9720    1.2090   17.8640 C.2   264  GLU264      0.3819
      4  O         15.8780    0.4570   18.2160 O.co2 264  GLU264     -0.2441
      5  CB        16.0900    2.0260   15.7760 C.3   264  GLU264      0.0424
      6  CG        16.1360    1.8920   14.2760 C.3   264  GLU264      0.1161
      7  CD        16.4240    0.4650   13.8000 C.2   264  GLU264      0.3649
      8  OE1       16.2890    0.2230   12.5850 O.co2 264  GLU264     -0.2457
      9  OE2       16.7800   -0.4100   14.6260 O.co2 264  GLU264     -0.2457
     10  OXT       14.2190    1.6800   18.7040 O.co2 264  GLU264     -0.2441
@<TRIPOS>BOND
     1     8     7   ar
     2     7     6    1
     3     7     9   ar
     4     6     5    1
     5     5     2    1
     6     1     2    1
     7     2     3    1
     8     3     4   ar
     9     3    10   ar
