@<TRIPOS>MOLECULE
3o6h_O25_A_1.pdb
 29 31 0 0 0
SMALL
GASTEIGER

@<TRIPOS>ATOM
      1  C1         1.9970   -3.1030   16.5370 C.ar  268  O25268      0.0373
      2  C2         1.9800   -4.5830   16.3950 C.3   268  O25268      0.1180
      3  N5         3.0250   -5.1360   17.2330 N.3   268  O25268     -0.2132
      4  C10        2.6250   -6.2660   18.0660 C.3   268  O25268      0.0891
      5  C13        3.5160   -6.3450   19.2940 C.3   268  O25268      0.0203
      6  C14        1.4650   -2.2200   15.6340 C.ar  268  O25268      0.0942
      7  N16        1.6870   -0.9810   16.1280 N.ar  268  O25268     -0.2403
      8  C17        1.3020    0.2780   15.5500 C.3   268  O25268      0.2139
      9  C20       -0.1940    0.3630   15.6030 C.2   268  O25268      0.2709
     10  N21       -0.6530    1.6330   15.3440 N.am  268  O25268     -0.1708
     11  C23       -1.3730    2.4250   16.2050 C.ar  268  O25268      0.1066
     12  C24       -1.5310    3.7910   16.3390 C.ar  268  O25268      0.0743
     13  C25       -0.8180    4.7010   15.4570 C.2   268  O25268      0.2856
     14  N26       -1.0890    6.0330   15.5600 N.am  268  O25268     -0.0837
     15  O29        0.0160    4.2650   14.6720 O.2   268  O25268     -0.2666
     16  C30       -2.4330    4.0830   17.4460 C.ar  268  O25268     -0.0139
     17  C31       -2.8750    5.4270   17.9610 C.3   268  O25268      0.0268
     18  C34       -3.9960    5.3130   19.0060 C.3   268  O25268      0.0050
     19  C37       -3.8800    4.1210   19.9540 C.3   268  O25268      0.0055
     20  C40       -3.8220    2.7900   19.1920 C.3   268  O25268      0.0327
     21  C43       -2.8850    2.9140   18.0380 C.ar  268  O25268      0.0047
     22  S44       -2.2620    1.5200   17.3260 S.2   268  O25268     -0.0750
     23  O45       -0.8680   -0.6300   15.8550 O.2   268  O25268     -0.2708
     24  N46        2.3180   -0.9660   17.3070 N.ar  268  O25268     -0.1651
     25  C47        2.5380   -2.2590   17.5720 C.ar  268  O25268      0.1710
     26  C48        3.2260   -2.6240   18.8510 C.3   268  O25268      0.4363
     27  F49        4.5240   -3.0230   18.7460 F     268  O25268     -0.1644
     28  F50        2.4710   -3.5600   19.4740 F     268  O25268     -0.1644
     29  F51        3.2990   -1.5680   19.6880 F     268  O25268     -0.1644
@<TRIPOS>BOND
     1    15    13    2
     2    10     9   am
     3    10    11    1
     4    13    14   am
     5    13    12    1
     6     8     9    1
     7     8     7    1
     8     9    23    2
     9     6     7   ar
    10     6     1   ar
    11     7    24   ar
    12    11    12   ar
    13    11    22   ar
    14    12    16   ar
    15     2     1    1
    16     2     3    1
    17     1    25   ar
    18     3     4    1
    19    24    25   ar
    20    22    21   ar
    21    16    17    1
    22    16    21   ar
    23    25    26    1
    24    17    18    1
    25    21    20    1
    26     4     5    1
    27    27    26    1
    28    26    28    1
    29    26    29    1
    30    18    19    1
    31    20    19    1
