@<TRIPOS>MOLECULE
3o6i_O26_A_1.pdb
 28 30 0 0 0
SMALL
GASTEIGER

@<TRIPOS>ATOM
      1  C1         2.1700   -3.4480   16.3140 C.ar  265  O26265      0.0292
      2  C2         2.7040   -2.6880   17.4290 C.ar  265  O26265      0.0767
      3  C3         3.3330   -3.1850   18.6750 C.3   265  O26265      0.0369
      4  C4         3.3260   -2.0700   19.7520 C.3   265  O26265      0.0060
      5  C5         2.5980   -4.4530   19.2300 C.3   265  O26265      0.0060
      6  C6         4.7150   -3.5660   18.4590 C.3   265  O26265      0.0060
      7  N7         2.5960   -1.3620   17.1210 N.ar  265  O26265     -0.1735
      8  N8         2.0130   -1.2810   15.8930 N.ar  265  O26265     -0.2406
      9  C9         1.7110    0.0240   15.2840 C.3   265  O26265      0.2139
     10  C10        0.2410    0.2850   15.5700 C.2   265  O26265      0.2709
     11  O11       -0.3970   -0.6700   15.9210 O.2   265  O26265     -0.2708
     12  N12       -0.3530    1.5260   15.4210 N.am  265  O26265     -0.1708
     13  C13       -1.1940    2.2370   16.2720 C.ar  265  O26265      0.1066
     14  S14       -2.2790    1.3620   17.2770 S.2   265  O26265     -0.0750
     15  C15       -2.9050    2.7940   17.9620 C.ar  265  O26265      0.0047
     16  C16       -3.9670    2.7690   19.0210 C.3   265  O26265      0.0327
     17  C17       -4.6780    4.1210   19.1080 C.3   265  O26265      0.0055
     18  C18       -3.6970    5.3020   19.1340 C.3   265  O26265      0.0050
     19  C19       -2.7710    5.3130   17.8940 C.3   265  O26265      0.0268
     20  C20       -2.3390    3.9400   17.4240 C.ar  265  O26265     -0.0139
     21  C21       -1.3330    3.6020   16.4130 C.ar  265  O26265      0.0743
     22  C22       -0.5040    4.5110   15.6270 C.2   265  O26265      0.2856
     23  O23        0.5380    4.1270   15.0890 O.2   265  O26265     -0.2666
     24  N24       -0.9330    5.8090   15.5190 N.am  265  O26265     -0.0837
     25  C25        1.7460   -2.5090   15.3860 C.ar  265  O26265      0.0939
     26  C26        2.0800   -4.9290   16.1080 C.3   265  O26265      0.1178
     27  N27        0.7990   -5.4870   16.5340 N.3   265  O26265     -0.2117
     28  C28        0.9400   -6.9160   16.7220 C.3   265  O26265      0.1079
@<TRIPOS>BOND
     1    23    22    2
     2     9    10    1
     3     9     8    1
     4    25     8   ar
     5    25     1   ar
     6    12    10   am
     7    12    13    1
     8    24    22   am
     9    10    11    2
    10    22    21    1
    11     8     7   ar
    12    26     1    1
    13    26    27    1
    14    13    21   ar
    15    13    14   ar
    16     1     2   ar
    17    21    20   ar
    18    27    28    1
    19     7     2   ar
    20    14    15   ar
    21    20    19    1
    22    20    15   ar
    23     2     3    1
    24    19    18    1
    25    15    16    1
    26     6     3    1
    27     3     5    1
    28     3     4    1
    29    16    17    1
    30    17    18    1
