@<TRIPOS>MOLECULE
3o6i_GLU_A_1.pdb
 10 9 0 0 0
SMALL
GASTEIGER

@<TRIPOS>ATOM
      1  N         13.6920    2.4590   16.1700 N.3   264  GLU264     -0.1208
      2  CA        14.8300    1.5140   16.3750 C.3   264  GLU264      0.1949
      3  C         15.0450    1.2040   17.8590 C.2   264  GLU264      0.3819
      4  O         15.9860    0.4870   18.2440 O.co2 264  GLU264     -0.2441
      5  CB        16.1400    2.0790   15.7920 C.3   264  GLU264      0.0424
      6  CG        16.2450    1.9690   14.2880 C.3   264  GLU264      0.1161
      7  CD        16.5420    0.5470   13.8100 C.2   264  GLU264      0.3649
      8  OE1       16.4160    0.3170   12.5770 O.co2 264  GLU264     -0.2457
      9  OE2       16.9010   -0.3250   14.6470 O.co2 264  GLU264     -0.2457
     10  OXT       14.2700    1.6890   18.6610 O.co2 264  GLU264     -0.2441
@<TRIPOS>BOND
     1     8     7   ar
     2     7     6    1
     3     7     9   ar
     4     6     5    1
     5     5     2    1
     6     1     2    1
     7     2     3    1
     8     3     4   ar
     9     3    10   ar
