@<TRIPOS>MOLECULE
3o6o_94M_A_1.pdb
 22 24 0 0 0
SMALL
GASTEIGER

@<TRIPOS>ATOM
      1  N1         7.3900   15.0890    7.2820 N.2   214  94M214     -0.3123
      2  C2         6.1700   14.6930    7.7080 C.1   214  94M214      0.2436
      3  N2         5.0960   15.4090    7.3580 N.pl3 214  94M214     -0.0232
      4  N3         6.0360   13.5610    8.4330 N.2   214  94M214     -0.3087
      5  C4         7.1270   12.8570    8.8150 C.2   214  94M214      0.2196
      6  C5         8.3840   13.2440    8.3760 C.2   214  94M214      0.1642
      7  C6         8.4930   14.3850    7.5940 C.2   214  94M214      0.2235
      8 CL6        10.0410   14.8460    6.9790 Cl    214  94M214     -0.0455
      9  N7         9.2800   12.3920    8.8690 N.2   214  94M214     -0.2406
     10  C8         8.6260   11.4480    9.5470 C.3   214  94M214      0.2223
     11  N9         7.3260   11.7460    9.5060 N.pl3 214  94M214     -0.2550
     12  CAA        6.4870    7.6010    5.5680 C.3   214  94M214      0.2524
     13  CAB        6.6450    5.4220    8.0970 C.3   214  94M214      0.0358
     14  CAC        5.2550   10.2320    7.2830 C.3   214  94M214      0.0355
     15  CAF        6.9510    7.2540    9.8590 C.ar  214  94M214      0.0972
     16  CAH        6.2640   10.9110   10.1040 C.3   214  94M214      0.1406
     17  NAI        6.8620    8.5250   10.2600 N.ar  214  94M214     -0.2469
     18  OAM        5.4770    7.4820    6.5370 O.3   214  94M214     -0.4720
     19  CAN        6.5120    6.8740    8.5890 C.ar  214  94M214      0.0309
     20  CAP        5.8900    9.1710    8.1960 C.ar  214  94M214      0.0270
     21  CAR        6.3330    9.5010    9.4870 C.ar  214  94M214      0.0780
     22  CAS        5.9610    7.8420    7.7570 C.ar  214  94M214      0.1333
@<TRIPOS>BOND
     1    12    18    1
     2    18    22    1
     3     8     7    1
     4     1     7    2
     5     1     2    2
     6    14    20    1
     7     3     2    1
     8     7     6    1
     9     2     4    2
    10    22    20   ar
    11    22    19   ar
    12    13    19    1
    13    20    21   ar
    14     6     5    1
    15     6     9    2
    16     4     5    2
    17    19    15   ar
    18     5    11    1
    19     9    10    1
    20    21    16    1
    21    21    17   ar
    22    11    10    1
    23    11    16    1
    24    15    17   ar
