@<TRIPOS>MOLECULE
3o6t_PX5_A_1.pdb
 17 19 0 0 0
SMALL
GASTEIGER

@<TRIPOS>ATOM
      1  C1        30.0440  -20.2990   20.5180 C.2   117  PX5117      0.0020
      2  C2        30.8020  -21.0290   19.6680 C.2   117  PX5117      0.0287
      3  C3        30.3330  -21.3120   18.4280 C.2   117  PX5117      0.1234
      4  C4        29.0970  -20.8860   18.0320 C.3   117  PX5117      0.1280
      5  C5        28.3380  -20.1420   18.9180 C.2   117  PX5117     -0.0082
      6  C6        28.8100  -19.8460   20.1550 C.2   117  PX5117     -0.0032
      7  S7        28.6660  -21.2860   16.5120 S.3   117  PX5117     -0.0736
      8  C8        30.1510  -22.0540   16.3840 C.2   117  PX5117      0.1620
      9  N9        30.8950  -21.9940   17.4620 N.2   117  PX5117     -0.4007
     10  C10       30.7240  -22.8440   15.2840 C.3   117  PX5117      0.1786
     11  C11       32.1960  -22.6720   15.3820 C.3   117  PX5117      0.0456
     12  C12       33.0650  -23.6350   15.5830 C.3   117  PX5117      0.0675
     13  C13       32.6070  -24.9110   16.0840 C.2   117  PX5117      0.1508
     14  C14       31.1410  -25.1140   16.3310 C.3   117  PX5117      0.0675
     15  C15       30.2380  -24.2680   15.4520 C.3   117  PX5117      0.0456
     16  O16       30.3210  -22.4100   14.0370 O.3   117  PX5117     -0.2179
     17  O17       33.3890  -25.7760   16.2880 O.2   117  PX5117     -0.2961
@<TRIPOS>BOND
     1    16    10    1
     2    10    11    1
     3    10    15    1
     4    10     8    1
     5    11    12    1
     6    15    14    1
     7    12    13    1
     8    13    17    2
     9    13    14    1
    10     8     7    1
    11     8     9    2
    12     7     4    1
    13     9     3    2
    14     4     3    1
    15     4     5    1
    16     3     2    1
    17     5     6    2
    18     2     1    2
    19     6     1    1
