@<TRIPOS>MOLECULE
3o6x_P3S_A_1.pdb
 15 14 0 0 0
SMALL
GASTEIGER

@<TRIPOS>ATOM
      1  O3A      122.0470   22.7780  214.1230 O.3   3001  P3S3001    -0.1237
      2  PA       120.7790   22.0240  214.2380 P.3   3001  P3S3001     0.4896
      3  O1A      120.0800   21.7720  212.8100 O.2   3001  P3S3001    -0.2328
      4  O2A      120.9730   20.5650  214.8910 O.3   3001  P3S3001    -0.1237
      5  NE       119.6730   22.7880  215.1460 N.3   3001  P3S3001    -0.0523
      6  SD       119.2660   21.9060  216.4580 S.3   3001  P3S3001     0.0022
      7  OE       120.2320   20.9060  217.0170 O.3   3001  P3S3001    -0.1552
      8  CE       117.5200   21.7060  216.7420 C.3   3001  P3S3001     0.0974
      9  CG       119.3670   23.2050  217.7440 C.3   3001  P3S3001     0.0859
     10  CB       119.2400   22.6710  219.1720 C.3   3001  P3S3001     0.0443
     11  CA       119.3030   23.8060  220.1970 C.3   3001  P3S3001     0.1953
     12  N        118.2510   24.7900  219.9060 N.3   3001  P3S3001    -0.1208
     13  C        120.6730   24.4860  220.1540 C.2   3001  P3S3001     0.3819
     14  OT       120.6850   25.7350  220.1210 O.co2 3001  P3S3001    -0.2441
     15  O        121.6800   23.7450  220.1660 O.co2 3001  P3S3001    -0.2441
@<TRIPOS>BOND
     1     3     2    2
     2     1     2    1
     3     2     4    1
     4     2     5    1
     5     5     6    1
     6     6     8    1
     7     6     7    1
     8     6     9    1
     9     9    10    1
    10    10    11    1
    11    12    11    1
    12    14    13   ar
    13    13    15   ar
    14    13    11    1
