@<TRIPOS>MOLECULE
3o6x_ADP_A_1.pdb
 27 29 0 0 0
SMALL
GASTEIGER

@<TRIPOS>ATOM
      1  PB       123.7510   19.8900  211.8150 P.3   4001  ADP4001     0.5373
      2  O1B      123.4730   20.0960  213.2520 O.3   4001  ADP4001    -0.1143
      3  O2B      125.2440   20.0170  211.2230 O.3   4001  ADP4001    -0.1143
      4  O3B      122.8100   18.9670  210.8890 O.2   4001  ADP4001    -0.2221
      5  PA       123.0420   21.6380  209.6640 P.3   4001  ADP4001     0.2231
      6  O1A      122.6490   20.4620  208.8560 O.2   4001  ADP4001    -0.5169
      7  O2A      121.9190   22.7900  209.5980 O.3   4001  ADP4001    -0.4370
      8  O3A      123.2210   21.2980  211.2310 O.3   4001  ADP4001    -0.2261
      9  O5'      124.4130   22.3230  209.1650 O.3   4001  ADP4001    -0.3111
     10  C5'      125.5440   21.5260  208.7970 C.3   4001  ADP4001     0.1813
     11  C4'      126.7950   22.3860  208.6000 C.3   4001  ADP4001     0.1821
     12  O4'      127.9570   21.5730  208.3540 O.3   4001  ADP4001    -0.3135
     13  C3'      126.6750   23.3310  207.4000 C.3   4001  ADP4001     0.2184
     14  O3'      126.9680   24.6690  207.8110 O.3   4001  ADP4001    -0.2174
     15  C2'      127.7930   22.8370  206.4840 C.3   4001  ADP4001     0.2570
     16  O2'      128.3190   23.9370  205.7370 O.3   4001  ADP4001    -0.2130
     17  C1'      128.7980   22.4170  207.5540 C.3   4001  ADP4001     0.3186
     18  N9       129.9150   21.6650  206.9400 N.pl3 4001  ADP4001    -0.1439
     19  C8       129.8010   20.5460  206.2280 C.3   4001  ADP4001     0.3377
     20  N7       131.0010   20.1570  205.8060 N.2   4001  ADP4001    -0.2095
     21  C5       131.8930   21.0350  206.2540 C.2   4001  ADP4001     0.2526
     22  C6       133.2720   21.1460  206.1510 C.2   4001  ADP4001     0.4393
     23  N6       133.9700   20.2550  205.4530 N.pl3 4001  ADP4001     0.2180
     24  N1       133.8870   22.1710  206.7570 N.2   4001  ADP4001     0.0021
     25  C2       133.1980   23.0670  207.4410 C.3   4001  ADP4001     0.5254
     26  N3       131.8840   22.9940  207.5570 N.2   4001  ADP4001    -0.0055
     27  C4       131.2020   21.9950  206.9800 C.2   4001  ADP4001     0.3518
@<TRIPOS>BOND
     1    23    22    1
     2    16    15    1
     3    20    19    1
     4    20    21    2
     5    22    21    1
     6    22    24    2
     7    19    18    1
     8    21    27    1
     9    15    13    1
    10    15    17    1
    11    24    25    1
    12    18    27    1
    13    18    17    1
    14    27    26    2
    15    13    14    1
    16    13    11    1
    17    25    26    1
    18    17    12    1
    19    12    11    1
    20    11    10    1
    21    10     9    1
    22     6     5    2
    23     9     5    1
    24     7     5    1
    25     5     8    1
    26     4     1    2
    27     3     1    1
    28     8     1    1
    29     1     2    1
