@<TRIPOS>MOLECULE
3o72_HEM_A_1.pdb
 43 50 0 0 0
SMALL
GASTEIGER

@<TRIPOS>ATOM
      1  CHA       20.0830  -17.7190   33.9200 C.2   500  HEM500      0.0000
      2  CHB       20.1140  -13.1640   35.6050 C.2   500  HEM500      0.0000
      3  CHC       21.1040  -14.8890   40.0480 C.2   500  HEM500      0.0000
      4  CHD       20.5510  -19.4290   38.4820 C.2   500  HEM500      0.0000
      5  C1A       20.0870  -16.3450   34.0020 C.ar  500  HEM500      0.0000
      6  C2A       20.0070  -15.4530   32.8650 C.ar  500  HEM500      0.0000
      7  C3A       20.0250  -14.2040   33.3310 C.ar  500  HEM500      0.0000
      8  C4A       20.0940  -14.2620   34.7740 C.ar  500  HEM500      0.0000
      9  CMA       19.9550  -12.9130   32.4900 C.3   500  HEM500      0.0000
     10  CAA       19.9490  -15.8650   31.3660 C.3   500  HEM500      0.0000
     11  CBA       18.5330  -16.0890   30.8570 C.3   500  HEM500      0.0000
     12  CGA       17.8990  -17.2920   31.5200 C.2   500  HEM500      0.0000
     13  O1A       17.0680  -17.0950   32.4540 O.co2 500  HEM500      0.0000
     14  O2A       18.2170  -18.4530   31.1230 O.co2 500  HEM500      0.0000
     15  C1B       20.4610  -13.2330   36.9300 C.2   500  HEM500      0.0000
     16  C2B       20.8180  -12.1160   37.7730 C.2   500  HEM500      0.0000
     17  C3B       21.1040  -12.6030   38.9790 C.2   500  HEM500      0.0000
     18  C4B       20.9230  -14.0410   38.9710 C.2   500  HEM500      0.0000
     19  CMB       20.8760  -10.6320   37.3280 C.3   500  HEM500      0.0000
     20  CAB       21.5370  -11.7580   40.1890 C.2   500  HEM500      0.0000
     21  CBB       22.4690  -12.2480   40.9980 C.2   500  HEM500      0.0000
     22  C1C       21.0050  -16.2610   40.0340 C.ar  500  HEM500      0.0000
     23  C2C       21.1760  -17.1650   41.1640 C.ar  500  HEM500      0.0000
     24  C3C       21.0150  -18.4140   40.7050 C.ar  500  HEM500      0.0000
     25  C4C       20.7780  -18.3430   39.2840 C.ar  500  HEM500      0.0000
     26  CMC       21.4630  -16.7570   42.6330 C.3   500  HEM500      0.0000
     27  CAC       21.1090  -19.7650   41.4440 C.2   500  HEM500      0.0000
     28  CBC       21.7210  -19.9430   42.6110 C.2   500  HEM500      0.0000
     29  C1D       20.3580  -19.4000   37.1190 C.2   500  HEM500      0.0000
     30  C2D       20.1820  -20.5630   36.2730 C.2   500  HEM500      0.0000
     31  C3D       20.0450  -20.0220   34.8600 C.2   500  HEM500      0.0000
     32  C4D       20.1430  -18.5920   34.9740 C.2   500  HEM500      0.0000
     33  CMD       20.1280  -22.0450   36.6990 C.3   500  HEM500      0.0000
     34  CAD       19.8280  -20.8580   33.5820 C.3   500  HEM500      0.0000
     35  CBD       21.2030  -21.1150   32.9760 C.3   500  HEM500      0.0000
     36  CGD       21.0400  -22.0690   31.8200 C.2   500  HEM500      0.0000
     37  O1D       21.5310  -21.7590   30.7060 O.co2 500  HEM500      0.0000
     38  O2D       20.3990  -23.1290   32.0260 O.co2 500  HEM500      0.0000
     39  NA        20.1360  -15.5930   35.1660 N.ar  500  HEM500      0.0000
     40  NB        20.5320  -14.3870   37.6920 N.2   500  HEM500      0.0000
     41  NC        20.7650  -17.0140   38.8930 N.ar  500  HEM500      0.0000
     42  ND        20.3380  -18.2630   36.3130 N.2   500  HEM500      0.0000
     43 FE         20.5870  -16.3250   37.0340 Fe    500  HEM500      0.0000
@<TRIPOS>BOND
     1    37    36   ar
     2    11    10    1
     3    11    12    1
     4    14    12   ar
     5    10     6    1
     6    12    13   ar
     7    36    38   ar
     8    36    35    1
     9     9     7    1
    10     6     7   ar
    11     6     5   ar
    12    35    34    1
    13     7     8   ar
    14    34    31    1
    15     1     5    2
    16     1    32    1
    17     5    39   ar
    18     8    39   ar
    19     8     2    2
    20    31    32    1
    21    31    30    2
    22    32    42    2
    23    39    43    1
    24     2    15    1
    25    30    33    1
    26    30    29    1
    27    42    43    1
    28    42    29    1
    29    15    40    2
    30    15    16    1
    31    43    40    1
    32    43    41    1
    33    29     4    2
    34    19    16    1
    35    40    18    1
    36    16    17    2
    37     4    25    1
    38    41    25   ar
    39    41    22   ar
    40    18    17    1
    41    18     3    2
    42    17    20    1
    43    25    24   ar
    44    22     3    1
    45    22    23   ar
    46    20    21    2
    47    24    23   ar
    48    24    27    1
    49    23    26    1
    50    27    28    2
