@<TRIPOS>MOLECULE
3o73_O73_A_1.pdb
 30 32 0 0 0
SMALL
GASTEIGER

@<TRIPOS>ATOM
      1  C1        -8.0370    4.5030   10.7590 C.ar  239  O73239      0.0272
      2  C2        -7.1240    5.1290   11.6260 C.ar  239  O73239      0.0386
      3  C3        -7.5130    6.3080   12.3130 C.ar  239  O73239      0.1392
      4  C4        -8.8080    6.8400   12.1330 C.ar  239  O73239      0.0386
      5  C5        -9.7010    6.2130   11.2620 C.ar  239  O73239      0.0272
      6  C6        -9.3330    5.0450   10.5670 C.ar  239  O73239      0.1431
      7  N7       -10.2840    4.4430    9.6910 N.pl3 239  O73239      0.0577
      8  O8       -11.4920    4.6160    9.8480 O.2   239  O73239     -0.1261
      9  O9        -9.9190    3.7500    8.7440 O.2   239  O73239     -0.1261
     10  O10       -6.6320    6.9340   13.1730 O.3   239  O73239     -0.4706
     11  C11       -6.3790    8.3500   13.1730 C.3   239  O73239      0.2332
     12  C12       -5.1780    8.6380   14.0590 C.ar  239  O73239      0.0374
     13  C13       -4.6410    9.9620   14.5160 C.ar  239  O73239      0.0372
     14  N14       -3.5610    9.7660   15.3190 N.ar  239  O73239     -0.3265
     15  C15       -3.3230    8.4410   15.4690 C.ar  239  O73239      0.0982
     16  C16       -4.2760    7.6420   14.6880 C.ar  239  O73239      0.0593
     17  C17       -2.2540    7.7460   16.2360 C.2   239  O73239      0.1948
     18  C18       -2.1810    6.3570   16.2320 C.3   239  O73239      0.1192
     19  C19       -3.0850    5.5570   15.5230 C.2   239  O73239      0.1003
     20  C20       -4.1660    6.1610   14.7150 C.2   239  O73239      0.2103
     21  C21       -5.2030   11.3190   14.1700 C.3   239  O73239      0.0498
     22  C22       -2.8170   10.9120   15.9070 C.3   239  O73239      0.1302
     23  O23       -1.4100    8.3760   16.8780 O.2   239  O73239     -0.2894
     24  O24       -4.9630    5.4100   14.0800 O.2   239  O73239     -0.2853
     25  N25       -3.0080    4.1930   15.5510 N.2   239  O73239     -0.2711
     26  C26       -2.0780    3.5170   16.4500 C.3   239  O73239      0.1253
     27  C27       -2.5170    2.1020   16.8160 C.3   239  O73239      0.0278
     28  C28       -1.5800    1.5860   17.9120 C.3   239  O73239      0.0226
     29  C29       -0.4480    0.6790   17.4190 C.3   239  O73239      0.1094
     30  N30        0.7320    0.7090   18.3090 N.3   239  O73239     -0.1314
@<TRIPOS>BOND
     1     9     7    2
     2     7     8    2
     3     7     6    1
     4     6     1   ar
     5     6     5   ar
     6     1     2   ar
     7     5     4   ar
     8     2     3   ar
     9     4     3   ar
    10     3    10    1
    11    10    11    1
    12    11    12    1
    13    12    13   ar
    14    12    16   ar
    15    24    20    2
    16    21    13    1
    17    13    14   ar
    18    16    20    1
    19    16    15   ar
    20    20    19    1
    21    14    15   ar
    22    14    22    1
    23    15    17    1
    24    19    25    2
    25    19    18    1
    26    25    26    1
    27    18    17    1
    28    17    23    2
    29    26    27    1
    30    27    28    1
    31    29    28    1
    32    29    30    1
