@<TRIPOS>MOLECULE
3o75_F1X_A_1.pdb
 16 16 0 0 0
SMALL
GASTEIGER

@<TRIPOS>ATOM
      1  C1        -0.8220    4.1160    4.3120 C.3     1  F1X1        0.2152
      2  O1        -1.1880    3.6710    3.0150 O.3     1  F1X1       -0.2648
      3  P1        -0.7150    4.5260    1.7380 P.3     1  F1X1        0.5328
      4  C2        -2.0280    4.7660    4.9670 C.3     1  F1X1        0.2780
      5  O2        -2.7270    5.5740    4.0110 O.3     1  F1X1       -0.1897
      6  C3        -1.5940    5.6210    6.1490 C.3     1  F1X1        0.2408
      7  O3        -1.1390    6.9090    5.7410 O.3     1  F1X1       -0.2149
      8  C4        -2.8640    5.6650    6.9610 C.3     1  F1X1        0.2168
      9  O4        -2.6680    6.0550    8.3230 O.3     1  F1X1       -0.2175
     10  C5        -3.2400    4.2010    6.8430 C.3     1  F1X1        0.1836
     11  O5        -2.9360    3.8020    5.5010 O.3     1  F1X1       -0.3254
     12  C6        -4.6840    3.9860    7.2240 C.3     1  F1X1        0.2142
     13  O6        -4.6470    3.7460    8.6250 O.3     1  F1X1       -0.2176
     14  O1P       -1.3060    5.8940    1.9590 O.3     1  F1X1       -0.1145
     15  O2P        0.7880    4.4910    1.8050 O.3     1  F1X1       -0.1145
     16  O3P       -1.3190    3.7870    0.5700 O.2     1  F1X1       -0.2224
@<TRIPOS>BOND
     1    16     3    2
     2     3    15    1
     3     3    14    1
     4     3     2    1
     5     2     1    1
     6     5     4    1
     7     1     4    1
     8     4    11    1
     9     4     6    1
    10    11    10    1
    11     7     6    1
    12     6     8    1
    13    10     8    1
    14    10    12    1
    15     8     9    1
    16    12    13    1
