@<TRIPOS>MOLECULE
3o76_GTB_A_1.pdb
 30 30 0 0 0
SMALL
GASTEIGER

@<TRIPOS>ATOM
      1  N1        64.8560   31.7350  106.1850 N.3   210  GTB210     -0.1208
      2  CA1       64.5520   30.3260  105.8900 C.3   210  GTB210      0.1948
      3  C1        64.2690   30.2130  104.4200 C.2   210  GTB210      0.3819
      4  O11       64.4620   29.0410  103.7930 O.co2 210  GTB210     -0.2441
      5  O12       63.8660   31.1810  103.8150 O.co2 210  GTB210     -0.2441
      6  CB1       63.3110   29.9070  106.6760 C.3   210  GTB210      0.0402
      7  CG1       63.0070   28.4130  106.4810 C.3   210  GTB210      0.0889
      8  CD1       62.1960   27.8770  107.6230 C.2   210  GTB210      0.2418
      9  OE1       61.6050   28.6350  108.3720 O.2   210  GTB210     -0.2733
     10  N2        62.1330   26.5440  107.8080 N.am  210  GTB210     -0.1969
     11  CA2       61.3520   26.0200  108.9390 C.3   210  GTB210      0.1834
     12  C2        61.9530   24.7240  109.4240 C.2   210  GTB210      0.2626
     13  O2        62.7010   24.0850  108.7020 O.2   210  GTB210     -0.2714
     14  CB2       59.8560   25.9160  108.6160 C.3   210  GTB210      0.0889
     15  SG2       59.5530   24.6780  107.3260 S.3   210  GTB210     -0.1331
     16  N3        61.6500   24.3120  110.6740 N.am  210  GTB210     -0.1917
     17  CA3       62.2200   23.0710  111.2050 C.3   210  GTB210      0.2285
     18  C3        63.1200   23.3830  112.3790 C.2   210  GTB210      0.3865
     19  O31       63.5320   22.3780  113.1600 O.co2 210  GTB210     -0.2437
     20  O32       63.4730   24.5240  112.6310 O.co2 210  GTB210     -0.2437
     21  C'        57.7600   24.8650  107.0960 C.3   210  GTB210      0.0838
     22  C1'       56.9730   24.2060  108.1990 C.ar  210  GTB210     -0.0112
     23  C2'       56.4810   22.9170  108.0360 C.ar  210  GTB210     -0.0017
     24  C3'       55.7510   22.3200  109.0550 C.ar  210  GTB210      0.0238
     25  C4'       55.5120   23.0160  110.2330 C.ar  210  GTB210      0.1429
     26  N41       54.7290   22.3990  111.3290 N.pl3 210  GTB210      0.0577
     27  O41       53.8490   23.0430  111.8800 O.2   210  GTB210     -0.1261
     28  O42       54.9500   21.2500  111.6810 O.2   210  GTB210     -0.1261
     29  C5'       56.0040   24.3030  110.3900 C.ar  210  GTB210      0.0238
     30  C6'       56.7260   24.9000  109.3710 C.ar  210  GTB210     -0.0017
@<TRIPOS>BOND
     1     4     3   ar
     2     5     3   ar
     3     3     2    1
     4     2     1    1
     5     2     6    1
     6     7     6    1
     7     7     8    1
     8    21    15    1
     9    21    22    1
    10    15    14    1
    11     8    10   am
    12     8     9    2
    13    10    11    1
    14    23    22   ar
    15    23    24   ar
    16    22    30   ar
    17    14    11    1
    18    13    12    2
    19    11    12    1
    20    24    25   ar
    21    30    29   ar
    22    12    16   am
    23    25    29   ar
    24    25    26    1
    25    16    17    1
    26    17    18    1
    27    26    28    2
    28    26    27    2
    29    18    20   ar
    30    18    19   ar
