@<TRIPOS>MOLECULE
3o7b_SAH_A_1.pdb
 25 27 0 0 0
SMALL
GASTEIGER

@<TRIPOS>ATOM
      1  N         -4.9870   44.8400   19.6180 N.3   301  SAH301     -0.1245
      2  CA        -5.7840   43.8530   20.4040 C.3   301  SAH301      0.1570
      3  CB        -5.6530   42.4730   19.7730 C.3   301  SAH301      0.0387
      4  CG        -6.6100   42.2540   18.6040 C.3   301  SAH301      0.0596
      5  SD        -8.3570   42.4670   19.0630 S.3   301  SAH301     -0.1375
      6  C         -5.3710   43.8170   21.8720 C.2   301  SAH301      0.2261
      7  O         -4.5480   44.6240   22.3110 O.2   301  SAH301     -0.2867
      8  C5'       -9.2260   42.2050   17.4930 C.3   301  SAH301      0.0899
      9  C4'       -9.6090   43.4300   16.6700 C.3   301  SAH301      0.1630
     10  O4'      -10.7890   44.0430   17.1550 O.3   301  SAH301     -0.3153
     11  C3'       -8.5920   44.5560   16.6830 C.3   301  SAH301      0.2168
     12  O3'       -7.5040   44.2870   15.8340 O.3   301  SAH301     -0.2175
     13  C2'       -9.4340   45.7180   16.2250 C.3   301  SAH301      0.2569
     14  O2'       -9.6130   45.6810   14.8060 O.3   301  SAH301     -0.2130
     15  C1'      -10.7750   45.4340   16.8760 C.3   301  SAH301      0.3185
     16  N9       -11.0360   46.1290   18.1650 N.pl3 301  SAH301     -0.1439
     17  C8       -10.7700   45.6670   19.4340 C.3   301  SAH301      0.3377
     18  N7       -11.2050   46.5940   20.3280 N.2   301  SAH301     -0.2095
     19  C5       -11.7680   47.6140   19.6480 C.2   301  SAH301      0.2526
     20  C6       -12.3590   48.8070   20.0470 C.2   301  SAH301      0.4393
     21  N6       -12.4680   49.1320   21.3460 N.pl3 301  SAH301      0.2180
     22  N1       -12.8560   49.6690   19.0980 N.2   301  SAH301      0.0021
     23  C2       -12.7460   49.3720   17.7520 C.3   301  SAH301      0.5254
     24  N3       -12.1520   48.1920   17.3640 N.2   301  SAH301     -0.0055
     25  C4       -11.6610   47.3350   18.2860 C.2   301  SAH301      0.3518
@<TRIPOS>BOND
     1    14    13    1
     2    12    11    1
     3    13    11    1
     4    13    15    1
     5     9    11    1
     6     9    10    1
     7     9     8    1
     8    15    10    1
     9    15    16    1
    10    24    23    1
    11    24    25    2
    12     8     5    1
    13    23    22    1
    14    16    25    1
    15    16    17    1
    16    25    19    1
    17     4     5    1
    18     4     3    1
    19    22    20    2
    20    17    18    1
    21     1     2    1
    22    19    20    1
    23    19    18    2
    24     3     2    1
    25    20    21    1
    26     2     6    1
    27     6     7    2
