@<TRIPOS>MOLECULE
3o7b_TYR_A_1.pdb
 13 13 0 0 0
SMALL
GASTEIGER

@<TRIPOS>ATOM
      1  N        -20.0860   53.9230   22.7480 N.3   220  TYR220     -0.1205
      2  CA       -19.1890   54.9280   23.3890 C.3   220  TYR220      0.1986
      3  C        -20.0220   56.0000   24.0940 C.2   220  TYR220      0.3822
      4  O        -21.1390   56.3130   23.6710 O.co2 220  TYR220     -0.2440
      5  CB       -18.2790   55.5740   22.3370 C.3   220  TYR220      0.0569
      6  CG       -16.8390   55.7840   22.7720 C.ar  220  TYR220     -0.0200
      7  CD1      -16.5300   56.4440   23.9640 C.ar  220  TYR220     -0.0009
      8  CD2      -15.7810   55.3410   21.9740 C.ar  220  TYR220     -0.0009
      9  CE1      -15.2080   56.6450   24.3570 C.ar  220  TYR220      0.0417
     10  CE2      -14.4530   55.5370   22.3580 C.ar  220  TYR220      0.0417
     11  CZ       -14.1760   56.1910   23.5500 C.ar  220  TYR220      0.1957
     12  OH       -12.8690   56.3900   23.9390 O.3   220  TYR220     -0.2866
     13  OXT      -19.6050   56.5820   25.1020 O.co2 220  TYR220     -0.2440
@<TRIPOS>BOND
     1     8    10   ar
     2     8     6   ar
     3     5     6    1
     4     5     2    1
     5    10    11   ar
     6     1     2    1
     7     6     7   ar
     8     2     3    1
     9    11    12    1
    10    11     9   ar
    11     4     3   ar
    12     7     9   ar
    13     3    13   ar
