@<TRIPOS>MOLECULE
3o7j_2AL_A_1.pdb
 11 11 0 0 0
SMALL
GASTEIGER

@<TRIPOS>ATOM
      1  C4        35.0070   -4.4340  -30.1350 C.2   451  2AL451      0.3182
      2  C5        34.9480   -3.0470  -30.0870 C.1   451  2AL451      0.2650
      3  O5        34.6170   -2.3680  -29.1150 O.2   451  2AL451     -0.2044
      4  N7        35.3040   -2.5650  -31.2720 N.2   451  2AL451     -0.2288
      5  C8        35.5800   -3.6300  -32.0270 C.1   451  2AL451      0.3676
      6  O8        35.9420   -3.5500  -33.1990 O.2   451  2AL451     -0.1744
      7  N9        35.4090   -4.7770  -31.3580 N.2   451  2AL451     -0.2772
      8  N3        34.7230   -5.2520  -29.1080 N.am  451  2AL451     -0.1175
      9  C2        34.6900   -6.5890  -29.1770 C.2   451  2AL451      0.3659
     10  N1        34.4060   -7.2310  -28.0440 N.am  451  2AL451     -0.0675
     11  O2        34.8930   -7.2060  -30.2230 O.2   451  2AL451     -0.2470
@<TRIPOS>BOND
     1     6     5    2
     2     5     7    2
     3     5     4    2
     4     7     1    2
     5     4     2    2
     6    11     9    2
     7     1     2    1
     8     1     8    1
     9     2     3    2
    10     9     8   am
    11     9    10   am
