@<TRIPOS>MOLECULE
3o7l_ANP_B_1.pdb
 27 29 0 0 0
SMALL
GASTEIGER

@<TRIPOS>ATOM
      1  PB        -3.4370   23.8530    5.7590 P.3   354  ANP354      0.4738
      2  O1B       -4.8200   23.8320    6.6750 O.3   354  ANP354     -0.1247
      3  O2B       -3.1650   22.1920    5.4030 O.2   354  ANP354     -0.2343
      4  N3B       -2.0530   24.8750    6.1280 N.3   354  ANP354     -0.0178
      5  PA        -5.3050   25.2250    3.9480 P.3   354  ANP354      0.2220
      6  O1A       -6.6400   24.5900    3.5760 O.2   354  ANP354     -0.5170
      7  O2A       -5.0850   26.6170    5.2410 O.3   354  ANP354     -0.4370
      8  O3A       -4.5220   23.8140    4.4310 O.3   354  ANP354     -0.2354
      9  O5'       -4.2730   25.8460    3.0090 O.3   354  ANP354     -0.3111
     10  C5'       -3.2570   25.1070    2.4390 C.3   354  ANP354      0.1813
     11  C4'       -2.8060   26.3920    1.6580 C.3   354  ANP354      0.1821
     12  O4'       -2.6910   26.3040    0.2450 O.3   354  ANP354     -0.3135
     13  C3'       -3.5850   27.7540    1.8270 C.3   354  ANP354      0.2184
     14  O3'       -2.6230   28.4920    2.6860 O.3   354  ANP354     -0.2174
     15  C2'       -3.7270   28.3950    0.4060 C.3   354  ANP354      0.2570
     16  O2'       -2.5560   28.9980   -0.1170 O.3   354  ANP354     -0.2130
     17  C1'       -3.5360   27.2150   -0.4100 C.3   354  ANP354      0.3186
     18  N9        -4.9390   26.8890   -0.7500 N.pl3 354  ANP354     -0.1439
     19  C8        -5.8790   26.1740   -0.1040 C.3   354  ANP354      0.3377
     20  N7        -7.1080   26.2190   -0.7310 N.2   354  ANP354     -0.2095
     21  C5        -6.9300   26.9530   -1.8520 C.2   354  ANP354      0.2526
     22  C6        -7.8270   27.3570   -3.0190 C.2   354  ANP354      0.4393
     23  N6        -9.1940   26.9650   -3.0740 N.pl3 354  ANP354      0.2180
     24  N1        -7.2470   28.1040   -3.9950 N.2   354  ANP354      0.0021
     25  C2        -5.9190   28.4890   -3.9090 C.3   354  ANP354      0.5254
     26  N3        -5.0170   28.1280   -2.9810 N.2   354  ANP354     -0.0055
     27  C4        -5.4940   27.3380   -1.9050 C.2   354  ANP354      0.3518
@<TRIPOS>BOND
     1    24    25    1
     2    24    22    2
     3    25    26    1
     4    23    22    1
     5    22    21    1
     6    26    27    2
     7    27    21    1
     8    27    18    1
     9    21    20    2
    10    18    17    1
    11    18    19    1
    12    20    19    1
    13    17    12    1
    14    17    15    1
    15    16    15    1
    16    12    11    1
    17    15    13    1
    18    11    13    1
    19    11    10    1
    20    13    14    1
    21    10     9    1
    22     9     5    1
    23     6     5    2
    24     5     8    1
    25     5     7    1
    26     8     1    1
    27     3     1    2
    28     1     4    1
    29     1     2    1
