@<TRIPOS>MOLECULE
3o7n_HEM_A_1.pdb
 43 50 0 0 0
SMALL
GASTEIGER

@<TRIPOS>ATOM
      1  CHA        7.4450    4.7770  -11.9840 C.2   139  HEM139      0.0000
      2  CHB        8.6060    0.2490  -10.4510 C.2   139  HEM139      0.0000
      3  CHC        4.5450   -1.4740  -12.4870 C.2   139  HEM139      0.0000
      4  CHD        3.4290    2.8960  -14.1910 C.2   139  HEM139      0.0000
      5  C1A        8.1280    3.6920  -11.4560 C.2   139  HEM139      0.0000
      6  C2A        9.4400    3.7500  -10.8420 C.2   139  HEM139      0.0000
      7  C3A        9.7760    2.4970  -10.4430 C.2   139  HEM139      0.0000
      8  C4A        8.6850    1.6280  -10.7670 C.2   139  HEM139      0.0000
      9  CMA       11.1190    2.1150   -9.7560 C.3   139  HEM139      0.0000
     10  CAA       10.3040    5.0200  -10.7230 C.3   139  HEM139      0.0000
     11  CBA       11.1200    5.0950  -12.0310 C.3   139  HEM139      0.0000
     12  CGA       11.6830    6.4700  -12.3570 C.3   139  HEM139      0.0000
     13  O1A       12.9260    6.5400  -12.5670 O.3   139  HEM139      0.0000
     14  O2A       12.9910    6.5630  -11.0750 O.3   139  HEM139      0.0000
     15  C1B        7.6190   -0.6000  -10.8760 C.ar  139  HEM139      0.0000
     16  C2B        7.5830   -2.0050  -10.6720 C.ar  139  HEM139      0.0000
     17  C3B        6.4730   -2.5080  -11.2030 C.ar  139  HEM139      0.0000
     18  C4B        5.7470   -1.4090  -11.7870 C.ar  139  HEM139      0.0000
     19  CMB        8.6860   -2.7840   -9.9730 C.3   139  HEM139      0.0000
     20  CAB        6.0090   -3.9740  -11.3110 C.2   139  HEM139      0.0000
     21  CBB        6.3960   -5.0070  -10.5410 C.2   139  HEM139      0.0000
     22  C1C        3.9240   -0.4510  -13.1640 C.2   139  HEM139      0.0000
     23  C2C        2.7330   -0.6060  -13.9760 C.2   139  HEM139      0.0000
     24  C3C        2.4350    0.6090  -14.4300 C.2   139  HEM139      0.0000
     25  C4C        3.3870    1.5350  -13.9550 C.2   139  HEM139      0.0000
     26  CMC        1.9930   -1.9570  -14.1840 C.3   139  HEM139      0.0000
     27  CAC        1.2870    1.0840  -15.3560 C.2   139  HEM139      0.0000
     28  CBC        0.6950    0.2450  -16.1690 C.2   139  HEM139      0.0000
     29  C1D        4.3790    3.7710  -13.6920 C.ar  139  HEM139      0.0000
     30  C2D        4.3560    5.1740  -13.9520 C.ar  139  HEM139      0.0000
     31  C3D        5.5590    5.7960  -13.2810 C.ar  139  HEM139      0.0000
     32  C4D        6.2840    4.6730  -12.6840 C.ar  139  HEM139      0.0000
     33  CMD        3.2790    5.9230  -14.7410 C.3   139  HEM139      0.0000
     34  CAD        5.9570    7.2630  -13.2880 C.3   139  HEM139      0.0000
     35  CBD        6.2250    7.8890  -14.6320 C.3   139  HEM139      0.0000
     36  CGD        7.4260    7.2460  -15.2430 C.2   139  HEM139      0.0000
     37  O1D        8.3490    6.8190  -14.5120 O.co2 139  HEM139      0.0000
     38  O2D        7.4000    7.1510  -16.4900 O.co2 139  HEM139      0.0000
     39  NA         7.6370    2.3820  -11.3310 N.2   139  HEM139      0.0000
     40  NB         6.4450   -0.2690  -11.5270 N.ar  139  HEM139      0.0000
     41  NC         4.2980    0.8680  -13.1470 N.2   139  HEM139      0.0000
     42  ND         5.5110    3.5040  -12.9050 N.ar  139  HEM139      0.0000
     43 FE          5.8950    1.6690  -12.1670 Fe    139  HEM139      0.0000
@<TRIPOS>BOND
     1    38    36   ar
     2    28    27    2
     3    27    24    1
     4    36    35    1
     5    36    37   ar
     6    33    30    1
     7    35    34    1
     8    24    23    2
     9    24    25    1
    10     4    25    1
    11     4    29    2
    12    26    23    1
    13    23    22    1
    14    25    41    2
    15    30    29   ar
    16    30    31   ar
    17    29    42   ar
    18    34    31    1
    19    31    32   ar
    20    22    41    1
    21    22     3    2
    22    41    43    1
    23    42    32   ar
    24    42    43    1
    25    32     1    2
    26    13    12    1
    27    13    14    1
    28     3    18    1
    29    12    11    1
    30    43    40    1
    31    43    39    1
    32    11    10    1
    33     1     5    1
    34    18    40   ar
    35    18    17   ar
    36    40    15   ar
    37     5    39    2
    38     5     6    1
    39    39     8    1
    40    20    17    1
    41    20    21    2
    42    17    16   ar
    43    15    16   ar
    44    15     2    1
    45     6    10    1
    46     6     7    2
    47     8     2    2
    48     8     7    1
    49    16    19    1
    50     7     9    1
