@<TRIPOS>MOLECULE
3o7s_MML_A_1.pdb
 10 10 0 0 0
SMALL
GASTEIGER

@<TRIPOS>ATOM
      1  C1        16.9320    4.7050   30.7710 C.3   179  MML179      0.0310
      2  C2        16.8780    3.2120   30.5590 C.ar  179  MML179     -0.0219
      3  C3        18.0490    2.4440   30.6250 C.ar  179  MML179     -0.0046
      4  C4        17.9840    1.0590   30.4280 C.ar  179  MML179     -0.0046
      5  C5        16.7530    0.4400   30.1640 C.ar  179  MML179     -0.0225
      6  C6        16.7100   -1.0330   29.9670 C.3   179  MML179      0.0224
      7  C7        16.0590   -1.4020   28.6350 C.3   179  MML179      0.0047
      8  C8        15.9810   -1.6930   31.1370 C.3   179  MML179      0.0047
      9  C9        15.5830    1.2150   30.1020 C.ar  179  MML179     -0.0046
     10  C10       15.6470    2.5980   30.2970 C.ar  179  MML179     -0.0046
@<TRIPOS>BOND
     1     7     6    1
     2     6     5    1
     3     6     8    1
     4     9     5   ar
     5     9    10   ar
     6     5     4   ar
     7    10     2   ar
     8     4     3   ar
     9     2     3   ar
    10     2     1    1
