@<TRIPOS>MOLECULE
3o7u_PXN_A_1.pdb
 25 24 0 0 0
SMALL
GASTEIGER

@<TRIPOS>ATOM
      1  CAA      -62.3470   -5.2410   -7.3070 C.3   427  PXN427      0.0382
      2  CAB      -55.1450   -3.2700   -5.8730 C.3   427  PXN427      0.0382
      3  CAC      -59.6170   -3.3510   -9.7530 C.3   427  PXN427      0.1494
      4  OAD      -60.8520   -4.0040   -9.6030 O.3   427  PXN427     -0.3508
      5  CAE      -61.9040   -3.3510   -8.9490 C.3   427  PXN427      0.1748
      6  CAF      -62.9230   -4.2180   -8.2650 C.3   427  PXN427      0.1815
      7  OAG      -63.9920   -3.4820   -7.7870 O.3   427  PXN427     -0.2205
      8  OAH      -56.5890   -4.6340   -4.4590 O.3   427  PXN427     -0.2205
      9  CAI      -56.4370   -4.0310   -5.6920 C.3   427  PXN427      0.1815
     10  CAJ      -56.7700   -4.9310   -6.8580 C.3   427  PXN427      0.1748
     11  OAK      -57.6430   -4.3550   -7.7940 O.3   427  PXN427     -0.3508
     12  CAL      -58.0680   -5.0870   -8.9120 C.3   427  PXN427      0.1494
     13  CAM      -58.4140   -4.2270  -10.1090 C.3   427  PXN427      0.1092
     14  CAN      -57.2230   -3.3510  -10.4400 C.3   427  PXN427      0.1494
     15  OAO      -56.2670   -3.8610  -11.3210 O.3   427  PXN427     -0.3508
     16  CAP      -55.3830   -4.8970  -10.9470 C.3   427  PXN427      0.1748
     17  CAQ      -54.2240   -4.4880  -10.0710 C.3   427  PXN427      0.1815
     18  OAR      -53.6590   -3.3120  -10.4930 O.3   427  PXN427     -0.2205
     19  OAS      -60.7080   -2.6300  -14.7980 O.3   427  PXN427     -0.2205
     20  CAT      -59.6020   -3.4100  -14.5250 C.3   427  PXN427      0.1815
     21  CAU      -59.7510   -4.2770  -13.3010 C.3   427  PXN427      0.1748
     22  OAV      -58.6020   -4.5600  -12.5580 O.3   427  PXN427     -0.3508
     23  CAW      -58.7800   -5.1020  -11.2850 C.3   427  PXN427      0.1494
     24  CAX      -53.2330   -5.6010   -9.7760 C.3   427  PXN427      0.0382
     25  CAY      -59.0550   -4.1470  -15.7090 C.3   427  PXN427      0.0382
@<TRIPOS>BOND
     1    25    20    1
     2    19    20    1
     3    20    21    1
     4    21    22    1
     5    22    23    1
     6    15    16    1
     7    15    14    1
     8    23    13    1
     9    16    17    1
    10    18    17    1
    11    14    13    1
    12    13     3    1
    13    13    12    1
    14    17    24    1
    15     3     4    1
    16     4     5    1
    17     5     6    1
    18    12    11    1
    19     6     7    1
    20     6     1    1
    21    11    10    1
    22    10     9    1
    23     2     9    1
    24     9     8    1
