@<TRIPOS>MOLECULE
3o7w_SAM_A_1.pdb
 27 29 0 0 0
SMALL
GASTEIGER

@<TRIPOS>ATOM
      1  N         26.2390   -4.0220   -1.0480 N.3   801  SAM801     -0.1208
      2  CA        26.1280   -5.0860    0.0340 C.3   801  SAM801      0.1952
      3  C         25.7930   -4.4350    1.3760 C.2   801  SAM801      0.3819
      4  O         26.1480   -3.2560    1.5930 O.co2 801  SAM801     -0.2441
      5  OXT       25.1860   -5.0860    2.2700 O.co2 801  SAM801     -0.2441
      6  CB        27.3990   -5.9400    0.2110 C.3   801  SAM801      0.0414
      7  CG        28.6740   -5.1370    0.5520 C.3   801  SAM801      0.0503
      8  SD        30.1330   -6.2410    0.6840 S.3   801  SAM801     -0.1761
      9  CE        31.3200   -5.1550    1.5370 C.3   801  SAM801      0.0590
     10  C5'       30.8530   -6.0300   -0.9610 C.3   801  SAM801      0.0806
     11  C4'       30.3160   -7.0220   -1.9620 C.3   801  SAM801      0.1622
     12  O4'       30.9640   -6.6370   -3.1450 O.3   801  SAM801     -0.3153
     13  C3'       30.6600   -8.4900   -1.6950 C.3   801  SAM801      0.2168
     14  O3'       29.4830   -9.2930   -1.7860 O.3   801  SAM801     -0.2175
     15  C2'       31.6870   -8.7850   -2.7870 C.3   801  SAM801      0.2569
     16  O2'       31.6540  -10.1200   -3.2510 O.3   801  SAM801     -0.2130
     17  C1'       31.2870   -7.7910   -3.8650 C.3   801  SAM801      0.3185
     18  N9        32.3970   -7.5120   -4.7710 N.pl3 801  SAM801     -0.1439
     19  C8        33.6130   -6.9240   -4.4730 C.3   801  SAM801      0.3377
     20  N7        34.3190   -6.8470   -5.6420 N.2   801  SAM801     -0.2095
     21  C5        33.6020   -7.4310   -6.6290 C.2   801  SAM801      0.2526
     22  C6        33.8840   -7.7140   -7.9640 C.2   801  SAM801      0.4393
     23  N6        35.0400   -7.3230   -8.5090 N.pl3 801  SAM801      0.2180
     24  N1        32.9120   -8.2900   -8.7400 N.2   801  SAM801      0.0021
     25  C2        31.7170   -8.6810   -8.2020 C.3   801  SAM801      0.5254
     26  N3        31.4470   -8.4120   -6.8750 N.2   801  SAM801     -0.0055
     27  C4        32.3800   -7.8250   -6.1020 C.2   801  SAM801      0.3518
@<TRIPOS>BOND
     1    24    25    1
     2    24    22    2
     3    23    22    1
     4    25    26    1
     5    22    21    1
     6    26    27    2
     7    21    27    1
     8    21    20    2
     9    27    18    1
    10    20    19    1
    11    18    19    1
    12    18    17    1
    13    17    12    1
    14    17    15    1
    15    16    15    1
    16    12    11    1
    17    15    13    1
    18    11    13    1
    19    11    10    1
    20    14    13    1
    21     1     2    1
    22    10     8    1
    23     2     6    1
    24     2     3    1
    25     6     7    1
    26     7     8    1
    27     8     9    1
    28     3     4   ar
    29     3     5   ar
