@<TRIPOS>MOLECULE
3o80_ANP_A_1.pdb
 23 25 0 0 0
SMALL
GASTEIGER

@<TRIPOS>ATOM
      1  PA         7.2320   45.6570   15.5260 P.3   486  ANP486      0.5327
      2  O1A        5.8510   44.9930   15.5830 O.2   486  ANP486     -0.2224
      3  O2A        8.4870   44.9440   16.0760 O.3   486  ANP486     -0.1145
      4  O3A        7.1550   47.2290   15.9970 O.3   486  ANP486     -0.1145
      5  O5'        7.3780   45.7980   13.8920 O.3   486  ANP486     -0.2675
      6  C5'        8.5380   45.3750   13.1920 C.3   486  ANP486      0.1860
      7  C4'        8.2910   45.0830   11.7060 C.3   486  ANP486      0.1823
      8  O4'        9.6590   44.7580   11.3890 O.3   486  ANP486     -0.3135
      9  C3'        7.5160   43.7480   11.4940 C.3   486  ANP486      0.2184
     10  O3'        7.2320   43.3810   10.1290 O.3   486  ANP486     -0.2174
     11  C2'        8.5330   42.7080   11.9140 C.3   486  ANP486      0.2570
     12  O2'        8.1350   41.4000   11.4490 O.3   486  ANP486     -0.2130
     13  C1'        9.8880   43.3120   11.4710 C.3   486  ANP486      0.3186
     14  N9        10.9790   42.9090   12.4390 N.pl3 486  ANP486     -0.1439
     15  C8        11.0070   43.1170   13.7980 C.3   486  ANP486      0.3377
     16  N7        12.1470   42.5470   14.3250 N.2   486  ANP486     -0.2095
     17  C5        12.8430   41.9840   13.2840 C.2   486  ANP486      0.2526
     18  C6        14.0430   41.2790   13.1970 C.2   486  ANP486      0.4393
     19  N6        14.7920   41.0320   14.3230 N.pl3 486  ANP486      0.2180
     20  N1        14.4530   40.8340   11.9790 N.2   486  ANP486      0.0021
     21  C2        13.7470   41.0760   10.8530 C.3   486  ANP486      0.5254
     22  N3        12.5920   41.7660   10.9360 N.2   486  ANP486     -0.0055
     23  C4        12.1010   42.2000   12.1180 C.2   486  ANP486      0.3518
@<TRIPOS>BOND
     1    10     9    1
     2    21    22    1
     3    21    20    1
     4    22    23    2
     5     8    13    1
     6     8     7    1
     7    12    11    1
     8    13    11    1
     9    13    14    1
    10     9     7    1
    11     9    11    1
    12     7     6    1
    13    20    18    2
    14    23    14    1
    15    23    17    1
    16    14    15    1
    17     6     5    1
    18    18    17    1
    19    18    19    1
    20    17    16    2
    21    15    16    1
    22     5     1    1
    23     1     2    2
    24     1     4    1
    25     1     3    1
