@<TRIPOS>MOLECULE
3o82_HP8_A_1.pdb
 33 36 0 0 0
SMALL
GASTEIGER

@<TRIPOS>ATOM
      1  S        -20.0940   -6.5240   13.3820 S.3   601  HP8601      0.0854
      2  N1       -26.0680   -2.1030    6.7360 N.2   601  HP8601      0.0021
      3  C2       -24.8370   -1.6890    6.4630 C.3   601  HP8601      0.5254
      4  N3       -23.7830   -2.0000    7.2410 N.2   601  HP8601     -0.0055
      5  C4       -23.9260   -2.7540    8.3630 C.2   601  HP8601      0.3518
      6  C5       -25.2070   -3.1790    8.6960 C.2   601  HP8601      0.2526
      7  C6       -26.2760   -2.8290    7.8640 C.2   601  HP8601      0.4393
      8  N6       -27.5380   -3.2040    8.1330 N.pl3 601  HP8601      0.2180
      9  N7       -25.0650   -3.8880    9.8430 N.2   601  HP8601     -0.2095
     10  C8       -23.7580   -3.9050   10.2310 C.3   601  HP8601      0.3377
     11  N9       -23.0540   -3.2150    9.3030 N.pl3 601  HP8601     -0.1439
     12  O9       -22.2450   -6.6080   11.6630 O.2   601  HP8601     -0.2666
     13  C1'      -21.5800   -2.9550    9.3550 C.3   601  HP8601      0.3186
     14  C1S      -23.9800   -6.7250   13.2740 C.ar  601  HP8601      0.0988
     15  C2'      -21.4060   -1.6170   10.0750 C.3   601  HP8601      0.2570
     16  O2'      -20.3170   -0.9580    9.5190 O.3   601  HP8601     -0.2130
     17  C21      -22.5430   -6.6780   12.8510 C.2   601  HP8601      0.2889
     18  C2S      -24.3330   -6.8390   14.6050 C.ar  601  HP8601      0.2386
     19  O2S      -23.4010   -6.9100   15.6120 O.3   601  HP8601     -0.2830
     20  C3'      -21.0120   -1.9530   11.5010 C.3   601  HP8601      0.2185
     21  O3'      -20.0820   -1.0330   12.0450 O.3   601  HP8601     -0.2174
     22  C3S      -25.6600   -6.9080   14.9180 C.ar  601  HP8601      0.2344
     23  O3S      -25.9950   -7.0120   16.2070 O.3   601  HP8601     -0.2831
     24  C4'      -20.3510   -3.2960   11.3510 C.3   601  HP8601      0.1842
     25  O4'      -20.9740   -3.8960   10.2360 O.3   601  HP8601     -0.3135
     26  C4S      -26.6740   -6.8860   14.0050 C.ar  601  HP8601      0.0454
     27  C5'      -20.6240   -4.1340   12.5410 C.3   601  HP8601      0.2064
     28  O5'      -19.8950   -5.3530   12.3910 O.3   601  HP8601     -0.2230
     29  C5S      -26.3090   -6.7800   12.6750 C.ar  601  HP8601      0.0036
     30  C6S      -24.9650   -6.7140   12.3080 C.ar  601  HP8601      0.0081
     31  NHS      -21.6090   -6.7100   13.7850 N.am  601  HP8601     -0.0549
     32  OS1      -19.4630   -6.0050   14.5530 O.3   601  HP8601     -0.0508
     33  OS2      -19.6100   -7.7600   12.8680 O.3   601  HP8601     -0.0508
@<TRIPOS>BOND
     1     3     2    1
     2     3     4    1
     3     2     7    2
     4     4     5    2
     5     7     8    1
     6     7     6    1
     7     5     6    1
     8     5    11    1
     9     6     9    2
    10    11    13    1
    11    11    10    1
    12    13    15    1
    13    13    25    1
    14    16    15    1
    15     9    10    1
    16    15    20    1
    17    25    24    1
    18    24    20    1
    19    24    27    1
    20    20    21    1
    21    12    17    2
    22    30    29   ar
    23    30    14   ar
    24    28    27    1
    25    28     1    1
    26    29    26   ar
    27    17    14    1
    28    17    31   am
    29    33     1    1
    30    14    18   ar
    31     1    31    1
    32     1    32    1
    33    26    22   ar
    34    18    22   ar
    35    18    19    1
    36    22    23    1
