@<TRIPOS>MOLECULE
3o83_IXN_A_1.pdb
 46 50 0 0 0
SMALL
GASTEIGER

@<TRIPOS>ATOM
      1  S        -20.6350   -6.3270   13.2890 S.3   800  IXN800      0.0854
      2  N1       -26.2850   -1.7590    6.7510 N.2   800  IXN800     -0.3067
      3  C2       -25.0090   -1.3680    6.4900 C.1   800  IXN800      0.2251
      4  N3       -24.0140   -1.7240    7.3210 N.2   800  IXN800     -0.3098
      5  C4       -24.2880   -2.4900    8.4160 C.2   800  IXN800      0.2215
      6  C5       -25.5840   -2.9090    8.6930 C.2   800  IXN800      0.1706
      7  C6       -26.6100   -2.5230    7.8240 C.2   800  IXN800      0.2537
      8  N6       -27.9140   -2.8700    8.0450 N.pl3 800  IXN800     -0.0904
      9  N7       -25.5310   -3.6370    9.8340 N.2   800  IXN800     -0.2401
     10  C8       -24.2340   -3.6710   10.2400 C.3   800  IXN800      0.2238
     11  N9       -23.4860   -2.9650    9.3690 N.pl3 800  IXN800     -0.2359
     12  O9       -23.0270   -6.4810   11.5680 O.2   800  IXN800     -0.2666
     13  C1'      -22.0160   -2.7380    9.3730 C.3   800  IXN800      0.2293
     14  O1P      -19.8900   -6.0060   14.4800 O.3   800  IXN800     -0.0508
     15  C1S      -24.5700   -6.5640   13.3550 C.ar  800  IXN800      0.0955
     16  C2'      -21.6810   -1.3770    9.9480 C.3   800  IXN800      0.2310
     17  O2'      -20.4840   -0.8900    9.3100 O.3   800  IXN800     -0.2158
     18  C21      -23.1850   -6.4630   12.7910 C.2   800  IXN800      0.2888
     19  O2P      -20.1700   -7.5710   12.7340 O.3   800  IXN800     -0.0508
     20  C2S      -24.7870   -6.6680   14.7390 C.ar  800  IXN800      0.2001
     21  O2S      -23.7360   -6.6680   15.6170 O.3   800  IXN800     -0.2864
     22  C3'      -21.4310   -1.7170   11.4030 C.3   800  IXN800      0.2159
     23  O3'      -20.5780   -0.7780   12.0530 O.3   800  IXN800     -0.2175
     24  N33      -24.7610   -0.6190    5.3990 N.pl3 800  IXN800     -0.1204
     25  N34      -25.8150   -0.2450    4.5800 N.pl3 800  IXN800     -0.0344
     26  N35      -25.1760    0.4890    3.5860 N.2   800  IXN800     -0.1498
     27  C36      -23.8370    0.5240    3.8240 C.2   800  IXN800      0.0801
     28  C37      -23.5560   -0.1930    4.9960 C.3   800  IXN800      0.1714
     29  C38      -22.8810    1.2770    2.9170 C.3   800  IXN800      0.0449
     30  C39      -21.5550    0.5790    2.6470 C.3   800  IXN800      0.0061
     31  C3S      -26.0840   -6.7620   15.2550 C.ar  800  IXN800      0.0422
     32  C4'      -20.7300   -3.0660   11.2820 C.3   800  IXN800      0.1820
     33  O4'      -21.3680   -3.7180   10.1880 O.3   800  IXN800     -0.3325
     34  C40      -20.8170    1.2540    1.4820 C.3   800  IXN800      0.0004
     35  C41      -21.3740    0.8820    0.1050 C.3   800  IXN800      0.0000
     36  C42      -20.3810    1.1500   -1.0320 C.3   800  IXN800      0.0000
     37  C43      -20.9760    0.7090   -2.3750 C.3   800  IXN800      0.0000
     38  C44      -20.1260    1.1400   -3.5710 C.3   800  IXN800      0.0000
     39  C45      -20.8740    2.1020   -4.4980 C.3   800  IXN800      0.0000
     40  C46      -21.6800    1.3760   -5.5790 C.3   800  IXN800      0.0000
     41  C4S      -27.1760   -6.7660   14.3810 C.ar  800  IXN800      0.0033
     42  C5'      -20.8360   -3.9140   12.5320 C.3   800  IXN800      0.2063
     43  O5'      -20.3560   -5.2360   12.2360 O.3   800  IXN800     -0.2230
     44  C5S      -26.9540   -6.6730   13.0000 C.ar  800  IXN800      0.0004
     45  C6S      -25.6640   -6.5620   12.4890 C.ar  800  IXN800      0.0078
     46  NHS      -22.1830   -6.3650   13.6720 N.am  800  IXN800     -0.0549
@<TRIPOS>BOND
     1    40    39    1
     2    39    38    1
     3    38    37    1
     4    37    36    1
     5    36    35    1
     6    35    34    1
     7    34    30    1
     8    30    29    1
     9    29    27    1
    10    26    27    2
    11    26    25    1
    12    27    28    1
    13    25    24    1
    14    28    24    1
    15    24     3    1
    16     3     2    2
    17     3     4    2
    18     2     7    2
    19     4     5    2
    20     7     8    1
    21     7     6    1
    22     5     6    1
    23     5    11    1
    24     6     9    2
    25    17    16    1
    26    11    13    1
    27    11    10    1
    28    13    16    1
    29    13    33    1
    30     9    10    1
    31    16    22    1
    32    33    32    1
    33    32    22    1
    34    32    42    1
    35    22    23    1
    36    12    18    2
    37    43    42    1
    38    43     1    1
    39    45    44   ar
    40    45    15   ar
    41    19     1    1
    42    18    15    1
    43    18    46   am
    44    44    41   ar
    45     1    46    1
    46     1    14    1
    47    15    20   ar
    48    41    31   ar
    49    20    31   ar
    50    20    21    1
