@<TRIPOS>MOLECULE
3o84_HTJ_A_1.pdb
 25 28 0 0 0
SMALL
GASTEIGER

@<TRIPOS>ATOM
      1  C1       -26.0130   -6.7110   15.7700 C.ar  995  HTJ995      0.0986
      2  C2       -26.5260   -6.6180   14.4700 C.ar  995  HTJ995      0.0183
      3  C3       -25.6570   -6.4870   13.3840 C.ar  995  HTJ995      0.0053
      4  C4       -24.2820   -6.4540   13.6650 C.ar  995  HTJ995      0.0183
      5  C5       -23.8100   -6.5470   14.9800 C.ar  995  HTJ995      0.0986
      6  N6       -24.6870   -6.6630   15.9970 N.ar  995  HTJ995     -0.2423
      7  C7       -26.1860   -6.3840   11.9390 C.3   995  HTJ995      0.1565
      8  N8       -25.0660   -5.8580   11.1550 N.ar  995  HTJ995     -0.2197
      9  C9       -24.0360   -6.4940   10.5960 C.ar  995  HTJ995      0.2119
     10  C10      -23.2420   -5.4840   10.0760 C.ar  995  HTJ995      0.0715
     11  C11      -23.8160   -4.1910   10.3520 C.ar  995  HTJ995      0.1242
     12  N12      -24.9560   -4.4560   11.0390 N.ar  995  HTJ995     -0.1653
     13  N13      -23.7340   -7.7900   10.4820 N.2   995  HTJ995     -0.3869
     14  C14      -22.6230   -8.1920    9.8480 C.2   995  HTJ995      0.1155
     15  C15      -21.7670   -7.2370    9.2810 C.3   995  HTJ995      0.0922
     16  C16      -22.0760   -5.8720    9.3910 C.2   995  HTJ995      0.0701
     17  C18      -21.1610   -4.8390    8.7880 C.2   995  HTJ995      0.3844
     18  O19      -20.3330   -5.1930    7.9310 O.co2 995  HTJ995     -0.2409
     19  O20      -21.2200   -3.6420    9.1530 O.co2 995  HTJ995     -0.2409
     20  C21      -22.3660   -9.6560    9.7730 C.ar  995  HTJ995      0.0258
     21  C22      -23.1510  -10.5250   10.5450 C.ar  995  HTJ995      0.0022
     22  C23      -22.9350  -11.9050   10.4880 C.ar  995  HTJ995      0.0001
     23  C24      -21.9410  -12.4240    9.6560 C.ar  995  HTJ995      0.0000
     24  C25      -21.1480  -11.5670    8.8880 C.ar  995  HTJ995      0.0001
     25  C26      -21.3680  -10.1790    8.9390 C.ar  995  HTJ995      0.0022
@<TRIPOS>BOND
     1    18    17   ar
     2    17    19   ar
     3    17    16    1
     4    24    25   ar
     5    24    23   ar
     6    25    20   ar
     7    15    16    1
     8    15    14    1
     9    16    10    2
    10    23    22   ar
    11    20    14    1
    12    20    21   ar
    13    14    13    2
    14    10    11   ar
    15    10     9   ar
    16    11    12   ar
    17    13     9    2
    18    22    21   ar
    19     9     8   ar
    20    12     8   ar
    21     8     7    1
    22     7     3    1
    23     3     4   ar
    24     3     2   ar
    25     4     5   ar
    26     2     1   ar
    27     5     6   ar
    28     1     6   ar
