@<TRIPOS>MOLECULE
3o86_BSF_A_1.pdb
 15 15 0 0 0
SMALL
GASTEIGER

@<TRIPOS>ATOM
      1  OAA       23.2060    8.1130   13.9990 O.2     1  BSF1        0.0000
      2  OAB       25.0920    7.4110   12.5410 O.2     1  BSF1        0.0000
      3  OAC       25.5620    4.0940   16.5910 O.3     1  BSF1        0.0000
      4  OAD       26.7640    5.9530   17.5360 O.3     1  BSF1        0.0000
      5  CAF       21.0720    5.7270    9.7450 C.ar    1  BSF1        0.0000
      6  CAG       22.3930    5.3150    9.7020 C.ar    1  BSF1        0.0000
      7  CAH       20.4720    6.0410   10.9660 C.ar    1  BSF1        0.0000
      8  CAI       23.1210    5.2410   10.8760 C.ar    1  BSF1        0.0000
      9  CAJ       21.2030    5.9660   12.1460 C.ar    1  BSF1        0.0000
     10  CAK       26.2610    5.9550   14.9110 C.3     1  BSF1        0.0000
     11  CAL       23.3440    5.4830   13.3490 C.3     1  BSF1        0.0000
     12  NAM       25.0140    6.6900   15.1170 N.3     1  BSF1        0.0000
     13  CAN       22.5290    5.5640   12.0830 C.ar    1  BSF1        0.0000
     14  SAP       24.2280    7.0380   13.7130 S.O2    1  BSF1        0.0000
     15  BOR       26.6420    5.1450   16.2600 B       1  BSF1        0.0000
@<TRIPOS>BOND
     1     6     5   ar
     2     6     8   ar
     3     5     7   ar
     4     8    13   ar
     5     7     9   ar
     6    13     9   ar
     7    13    11    1
     8     2    14    2
     9    11    14    1
    10    14     1    2
    11    14    12    1
    12    10    12    1
    13    10    15    1
    14    15     3    1
    15    15     4    1
