@<TRIPOS>MOLECULE
3o87_BSG_A_1.pdb
 18 18 0 0 0
SMALL
GASTEIGER

@<TRIPOS>ATOM
      1  OAA       20.2640    3.4890    7.7590 O.co2   1  BSG1        0.0000
      2  OAB       23.3110    7.5490   13.6990 O.2     1  BSG1        0.0000
      3  OAC       25.0880    6.4700   12.2740 O.2     1  BSG1        0.0000
      4  OAD       18.7330    4.5790    8.9100 O.co2   1  BSG1        0.0000
      5  OAE       26.8370    5.5020   17.4030 O.3     1  BSG1        0.0000
      6  OAF       25.5960    3.5700   16.5190 O.3     1  BSG1        0.0000
      7  CAH       23.0260    4.2170   10.9780 C.ar    1  BSG1        0.0000
      8  CAI       21.1230    5.0140   12.2490 C.ar    1  BSG1        0.0000
      9  CAJ       22.2100    4.0070    9.8720 C.ar    1  BSG1        0.0000
     10  CAK       20.3140    4.8000   11.1390 C.ar    1  BSG1        0.0000
     11  CAL       26.3370    5.3820   14.7750 C.3     1  BSG1        0.0000
     12  CAM       23.3120    4.8770   13.3970 C.3     1  BSG1        0.0000
     13  NAN       25.1090    6.1560   14.9400 N.3     1  BSG1        0.0000
     14  CAO       19.8850    4.1120    8.7760 C.2     1  BSG1        0.0000
     15  CAP       22.4750    4.7190   12.1550 C.ar    1  BSG1        0.0000
     16  CAQ       20.8590    4.3610    9.9370 C.ar    1  BSG1        0.0000
     17  SAS       24.2830    6.4080   13.5320 S.O2    1  BSG1        0.0000
     18  BOR       26.6460    4.6420   16.1840 B       1  BSG1        0.0000
@<TRIPOS>BOND
     1     1    14   ar
     2    14     4   ar
     3    14    16    1
     4     9    16   ar
     5     9     7   ar
     6    16    10   ar
     7     7    15   ar
     8    10     8   ar
     9    15     8   ar
    10    15    12    1
    11     3    17    2
    12    12    17    1
    13    17     2    2
    14    17    13    1
    15    11    13    1
    16    11    18    1
    17    18     6    1
    18    18     5    1
