@<TRIPOS>MOLECULE
3o88_BSH_A_1.pdb
 25 26 0 0 0
SMALL
GASTEIGER

@<TRIPOS>ATOM
      1  OAA       20.9500   10.9280   14.7930 O.co2   1  BSH1        0.0000
      2  OAB       26.9750    5.4300   13.3830 O.2     1  BSH1        0.0000
      3  OAC       25.0350    3.7250   13.6890 O.2     1  BSH1        0.0000
      4  OAD       20.9500   10.5160   12.5980 O.co2   1  BSH1        0.0000
      5  OAE       25.3710    4.8280   17.3760 O.3     1  BSH1        0.0000
      6  OAF       27.1040    6.5560   18.1360 O.3     1  BSH1        0.0000
      7  CAH       20.2720    5.5490   11.6010 C.ar    1  BSH1        0.0000
      8  CAI       20.7990    6.3820   12.5840 C.ar    1  BSH1        0.0000
      9  CAJ       21.1510    4.8690   10.7590 C.ar    1  BSH1        0.0000
     10  CAK       25.0250    9.7000   12.6570 C.ar    1  BSH1        0.0000
     11  CAL       22.1780    6.5290   12.7170 C.ar    1  BSH1        0.0000
     12  CAM       22.5300    5.0280   10.8850 C.ar    1  BSH1        0.0000
     13  CAN       25.5520    9.0920   13.8050 C.ar    1  BSH1        0.0000
     14  CAO       23.7070   10.1430   12.6730 C.ar    1  BSH1        0.0000
     15  CAP       23.4660    9.3650   14.9530 C.ar    1  BSH1        0.0000
     16  CAQ       25.4340    8.2140   16.1280 C.3     1  BSH1        0.0000
     17  CAR       24.5310    6.0380   12.0350 C.3     1  BSH1        0.0000
     18  NAS       25.0220    6.0370   15.0310 N.3     1  BSH1        0.0000
     19  CAT       21.4980   10.5040   13.7270 C.2     1  BSH1        0.0000
     20  CAU       23.0680    5.8550   11.8650 C.ar    1  BSH1        0.0000
     21  CAV       24.7990    8.9200   14.9650 C.ar    1  BSH1        0.0000
     22  CAW       22.9240    9.9760   13.8140 C.ar    1  BSH1        0.0000
     23  CAX       25.9790    6.8080   15.7950 C.3     1  BSH1        0.0000
     24  SAZ       25.2680    5.4010   13.5770 S.O2    1  BSH1        0.0000
     25  BOR       26.4160    5.8540   16.9830 B       1  BSH1        0.0000
@<TRIPOS>BOND
     1     9    12   ar
     2     9     7   ar
     3    12    20   ar
     4     7     8   ar
     5    20    17    1
     6    20    11   ar
     7    17    24    1
     8     8    11   ar
     9     4    19   ar
    10    10    14   ar
    11    10    13   ar
    12    14    22   ar
    13     2    24    2
    14    24     3    2
    15    24    18    1
    16    19    22    1
    17    19     1   ar
    18    13    21   ar
    19    22    15   ar
    20    15    21   ar
    21    21    16    1
    22    18    23    1
    23    23    16    1
    24    23    25    1
    25    25     5    1
    26    25     6    1
