@<TRIPOS>MOLECULE
3o89_HEM_A_1.pdb
 43 50 0 0 0
SMALL
GASTEIGER

@<TRIPOS>ATOM
      1  CHA       20.5790  -31.4480    4.8640 C.2   2154  HEM2154     0.0000
      2  CHB       22.8740  -29.3130    1.2130 C.2   2154  HEM2154     0.0000
      3  CHC       21.2960  -24.9770    2.6860 C.2   2154  HEM2154     0.0000
      4  CHD       18.9550  -27.0960    6.3360 C.2   2154  HEM2154     0.0000
      5  C1A       21.3260  -31.2550    3.7320 C.ar  2154  HEM2154     0.0000
      6  C2A       21.9400  -32.2880    2.9300 C.ar  2154  HEM2154     0.0000
      7  C3A       22.5820  -31.6940    1.9190 C.ar  2154  HEM2154     0.0000
      8  C4A       22.3880  -30.2710    2.0610 C.ar  2154  HEM2154     0.0000
      9  CMA       23.3870  -32.3750    0.7930 C.3   2154  HEM2154     0.0000
     10  CAA       21.8320  -33.8030    3.2110 C.3   2154  HEM2154     0.0000
     11  CBA       20.8520  -34.4610    2.2320 C.3   2154  HEM2154     0.0000
     12  CGA       19.5020  -33.7820    2.1910 C.2   2154  HEM2154     0.0000
     13  O1A       19.1620  -33.1750    1.1410 O.co2 2154  HEM2154     0.0000
     14  O2A       18.7560  -33.8530    3.2020 O.co2 2154  HEM2154     0.0000
     15  C1B       22.6330  -27.9630    1.2810 C.2   2154  HEM2154     0.0000
     16  C2B       23.1300  -26.9800    0.3470 C.2   2154  HEM2154     0.0000
     17  C3B       22.7050  -25.7780    0.7590 C.2   2154  HEM2154     0.0000
     18  C4B       21.9150  -25.9730    1.9580 C.2   2154  HEM2154     0.0000
     19  CMB       24.0010  -27.3130   -0.8840 C.3   2154  HEM2154     0.0000
     20  CAB       22.9470  -24.3970    0.1190 C.2   2154  HEM2154     0.0000
     21  CBB       24.1480  -24.0350   -0.3480 C.2   2154  HEM2154     0.0000
     22  C1C       20.5790  -25.1490    3.8510 C.ar  2154  HEM2154     0.0000
     23  C2C       20.1050  -24.1090    4.7350 C.ar  2154  HEM2154     0.0000
     24  C3C       19.4580  -24.7080    5.7500 C.ar  2154  HEM2154     0.0000
     25  C4C       19.5110  -26.1320    5.5350 C.ar  2154  HEM2154     0.0000
     26  CMC       20.3270  -22.6010    4.4990 C.3   2154  HEM2154     0.0000
     27  CAC       18.7610  -24.0870    6.9790 C.2   2154  HEM2154     0.0000
     28  CBC       18.7210  -22.7740    7.2170 C.2   2154  HEM2154     0.0000
     29  C1D       19.2070  -28.4400    6.2910 C.2   2154  HEM2154     0.0000
     30  C2D       18.7780  -29.3600    7.3040 C.2   2154  HEM2154     0.0000
     31  C3D       19.2910  -30.7090    6.8530 C.2   2154  HEM2154     0.0000
     32  C4D       19.9770  -30.4700    5.6090 C.2   2154  HEM2154     0.0000
     33  CMD       17.9780  -29.0470    8.5800 C.3   2154  HEM2154     0.0000
     34  CAD       19.1340  -32.0360    7.6070 C.3   2154  HEM2154     0.0000
     35  CBD       20.2650  -32.0740    8.6320 C.3   2154  HEM2154     0.0000
     36  CGD       20.1790  -33.3490    9.4250 C.2   2154  HEM2154     0.0000
     37  O1D       19.3820  -33.4040   10.4000 O.co2 2154  HEM2154     0.0000
     38  O2D       20.9070  -34.3100    9.0770 O.co2 2154  HEM2154     0.0000
     39  NA        21.6170  -30.0370    3.1750 N.ar  2154  HEM2154     0.0000
     40  NB        21.8900  -27.3210    2.2520 N.2   2154  HEM2154     0.0000
     41  NC        20.2050  -26.3640    4.3750 N.ar  2154  HEM2154     0.0000
     42  ND        19.9060  -29.1170    5.2950 N.2   2154  HEM2154     0.0000
     43 FE         20.8440  -28.2150    3.7320 Fe    2154  HEM2154     0.0000
@<TRIPOS>BOND
     1    19    16    1
     2    21    20    2
     3    20    17    1
     4    16    17    2
     5    16    15    1
     6    17    18    1
     7     9     7    1
     8    13    12   ar
     9     2    15    1
    10     2     8    2
    11    15    40    2
    12     7     8   ar
    13     7     6   ar
    14    18    40    1
    15    18     3    2
    16     8    39   ar
    17    12    11    1
    18    12    14   ar
    19    11    10    1
    20    40    43    1
    21     3    22    1
    22     6    10    1
    23     6     5   ar
    24    39    43    1
    25    39     5   ar
    26    43    41    1
    27    43    42    1
    28     5     1    2
    29    22    41   ar
    30    22    23   ar
    31    41    25   ar
    32    26    23    1
    33    23    24   ar
    34     1    32    1
    35    42    32    2
    36    42    29    1
    37    25    24   ar
    38    25     4    1
    39    32    31    1
    40    24    27    1
    41    29     4    2
    42    29    30    1
    43    31    30    2
    44    31    34    1
    45    27    28    2
    46    30    33    1
    47    34    35    1
    48    35    36    1
    49    38    36   ar
    50    36    37   ar
