@<TRIPOS>MOLECULE
3o8a_O8A_A_1.pdb
 26 29 0 0 0
SMALL
GASTEIGER

@<TRIPOS>ATOM
      1  C1        31.4020   -9.8450   17.2800 C.2   1001  O8A1001     0.1316
      2  F1        32.9190   -6.7290   19.7170 F     1001  O8A1001    -0.1328
      3  N1        31.8440  -10.4350   16.1540 N.2   1001  O8A1001    -0.3934
      4  O1        31.6580   -8.2720   20.5160 O.2   1001  O8A1001    -0.4085
      5  S1        27.3330  -11.8170   16.5560 S.2   1001  O8A1001    -0.0671
      6  C2        29.9640   -9.8420   17.1550 C.2   1001  O8A1001     0.0839
      7  F2        31.0570   -6.2320   20.5040 F     1001  O8A1001    -0.1328
      8  N2        29.6130  -10.3900   15.9730 N.pl3 1001  O8A1001    -0.2372
      9  O2        24.8550  -13.1100   16.7950 O.2   1001  O8A1001    -0.2678
     10  C3        29.1630   -9.3150   18.1210 C.2   1001  O8A1001     0.0203
     11  F3        32.6320   -6.7220   21.7240 F     1001  O8A1001    -0.1328
     12  N3        23.7630  -12.3090   15.1320 N.am  1001  O8A1001    -0.2030
     13  C4        29.7750   -8.7930   19.2380 C.2   1001  O8A1001     0.0344
     14  C5        31.1400   -8.7800   19.3820 C.2   1001  O8A1001     0.1314
     15  C6        31.9640   -9.3110   18.4150 C.3   1001  O8A1001     0.1243
     16  C7        30.8220  -10.7910   15.3570 C.2   1001  O8A1001     0.1680
     17  C8        32.0710   -6.9710   20.6180 C.3   1001  O8A1001     0.5750
     18  C9        30.7250  -11.4470   14.0190 C.3   1001  O8A1001     0.0843
     19  C10       28.2940  -10.7940   15.6330 C.ar  1001  O8A1001     0.0877
     20  C11       26.0470  -11.6820   15.4660 C.ar  1001  O8A1001     0.0856
     21  C12       26.3850  -10.8480   14.4240 C.ar  1001  O8A1001     0.0129
     22  C13       27.6660  -10.3290   14.5170 C.ar  1001  O8A1001     0.0226
     23  C14       24.8430  -12.4300   15.8310 C.2   1001  O8A1001     0.2708
     24  C15       22.5390  -12.8540   15.6070 C.3   1001  O8A1001     0.0958
     25  C16       21.6520  -13.1380   14.4270 C.3   1001  O8A1001     0.0234
     26  C17       22.3870  -14.2660   15.1050 C.3   1001  O8A1001     0.0234
@<TRIPOS>BOND
     1    18    16    1
     2    21    22   ar
     3    21    20   ar
     4    25    26    1
     5    25    24    1
     6    22    19   ar
     7    26    24    1
     8    12    24    1
     9    12    23   am
    10    16     8    1
    11    16     3    2
    12    20    23    1
    13    20     5   ar
    14    19     8    1
    15    19     5   ar
    16    23     9    2
    17     8     6    1
    18     3     1    2
    19     6     1    1
    20     6    10    2
    21     1    15    1
    22    10    13    1
    23    15    14    1
    24    13    14    2
    25    14     4    1
    26     2    17    1
    27     7    17    1
    28     4    17    1
    29    17    11    1
