@<TRIPOS>MOLECULE
3o8a_FMN_A_1.pdb
 31 33 0 0 0
SMALL
GASTEIGER

@<TRIPOS>ATOM
      1  N1        16.8810  -13.4840    4.0830 N.2   1002  FMN1002    -0.2890
      2  C2        16.3160  -12.5500    3.2610 C.1   1002  FMN1002     0.3669
      3  O2        16.1730  -12.7740    2.0370 O.2   1002  FMN1002    -0.1744
      4  N3        15.8720  -11.3650    3.8130 N.2   1002  FMN1002    -0.2300
      5  C4        16.0060  -11.0910    5.1510 C.1   1002  FMN1002     0.2513
      6  O4        15.6310  -10.0230    5.6150 O.2   1002  FMN1002    -0.2057
      7  C4A       16.5990  -12.0050    5.9760 C.2   1002  FMN1002     0.2700
      8  N5        16.7330  -11.7260    7.3260 N.2   1002  FMN1002    -0.3878
      9  C5A       17.3250  -12.6710    8.1580 C.2   1002  FMN1002     0.1320
     10  C6        17.4840  -12.4220    9.5260 C.2   1002  FMN1002     0.0250
     11  C7        18.0990  -13.3800   10.3290 C.2   1002  FMN1002    -0.0238
     12  C7M       18.2980  -13.1260   11.7950 C.3   1002  FMN1002     0.0308
     13  C8        18.5550  -14.5680    9.7790 C.2   1002  FMN1002    -0.0280
     14  C8M       19.2320  -15.6370   10.6150 C.3   1002  FMN1002     0.0304
     15  C9        18.3760  -14.8100    8.4320 C.2   1002  FMN1002    -0.0041
     16  C9A       17.7820  -13.8610    7.6080 C.3   1002  FMN1002     0.1497
     17  N10       17.6210  -14.1410    6.2590 N.pl3 1002  FMN1002    -0.2691
     18  C10       17.0290  -13.2150    5.4340 C.2   1002  FMN1002     0.2416
     19  C1'       18.1110  -15.4380    5.6620 C.3   1002  FMN1002     0.1294
     20  C2'       19.6160  -15.2610    5.3650 C.3   1002  FMN1002     0.2044
     21  O2'       19.7670  -14.2170    4.4200 O.3   1002  FMN1002    -0.2185
     22  C3'       20.2370  -16.5410    4.8090 C.3   1002  FMN1002     0.2164
     23  O3'       19.5870  -16.8280    3.6120 O.3   1002  FMN1002    -0.2175
     24  C4'       20.0570  -17.7640    5.6950 C.3   1002  FMN1002     0.2147
     25  O4'       20.5210  -17.4700    6.9900 O.3   1002  FMN1002    -0.2176
     26  C5'       20.8520  -18.9600    5.2150 C.3   1002  FMN1002     0.1892
     27  O5'       22.2270  -18.6820    5.3270 O.3   1002  FMN1002    -0.2674
     28  P         23.2300  -19.2680    6.4090 P.3   1002  FMN1002     0.5327
     29  O1P       23.0460  -18.5420    7.7090 O.3   1002  FMN1002    -0.1145
     30  O2P       24.6350  -18.9940    5.9100 O.2   1002  FMN1002    -0.2224
     31  O3P       23.0240  -20.7510    6.5950 O.3   1002  FMN1002    -0.1145
@<TRIPOS>BOND
     1     3     2    2
     2     2     4    2
     3     2     1    2
     4    23    22    1
     5     4     5    2
     6     1    18    2
     7    21    20    1
     8    22    20    1
     9    22    24    1
    10     5     6    2
    11     5     7    1
    12    26    27    1
    13    26    24    1
    14    27    28    1
    15    20    19    1
    16    18     7    1
    17    18    17    1
    18    19    17    1
    19    24    25    1
    20    30    28    2
    21     7     8    2
    22    17    16    1
    23    28    31    1
    24    28    29    1
    25     8     9    2
    26    16     9    1
    27    16    15    1
    28     9    10    1
    29    15    13    2
    30    10    11    2
    31    13    11    1
    32    13    14    1
    33    11    12    1
