@<TRIPOS>MOLECULE
3o8d_ADP_A_1.pdb
 27 29 0 0 0
SMALL
GASTEIGER

@<TRIPOS>ATOM
      1  PB        -4.5430   81.0980   53.0650 P.3   875  ADP875      0.5373
      2  O1B       -5.2260   79.7820   53.0510 O.3   875  ADP875     -0.1143
      3  O2B       -5.2040   82.1260   52.1780 O.2   875  ADP875     -0.2221
      4  O3B       -3.0280   81.0710   52.9550 O.3   875  ADP875     -0.1143
      5  PA        -5.3930   81.1100   55.8240 P.3   875  ADP875      0.2231
      6  O1A       -6.8700   81.0870   55.5470 O.2   875  ADP875     -0.5169
      7  O2A       -4.6870   79.8430   56.2890 O.3   875  ADP875     -0.4370
      8  O3A       -4.7320   81.7710   54.5160 O.3   875  ADP875     -0.2261
      9  O5'       -5.0790   82.2740   56.8600 O.3   875  ADP875     -0.3111
     10  C5'       -5.7470   83.5430   56.7840 C.3   875  ADP875      0.1813
     11  C4'       -5.2480   84.3450   57.9750 C.3   875  ADP875      0.1821
     12  O4'       -5.7600   83.7510   59.1760 O.3   875  ADP875     -0.3135
     13  C3'       -3.7350   84.2650   58.1220 C.3   875  ADP875      0.2184
     14  O3'       -3.0520   85.3360   57.4620 O.3   875  ADP875     -0.2174
     15  C2'       -3.5380   84.4200   59.6030 C.3   875  ADP875      0.2570
     16  O2'       -3.6490   85.8400   59.7950 O.3   875  ADP875     -0.2130
     17  C1'       -4.7740   83.7840   60.2080 C.3   875  ADP875      0.3186
     18  N9        -4.5940   82.3950   60.6860 N.pl3 875  ADP875     -0.1439
     19  C8        -4.9340   81.2820   60.0040 C.3   875  ADP875      0.3377
     20  N7        -4.6870   80.1560   60.7290 N.2   875  ADP875     -0.2095
     21  C5        -4.1750   80.5530   61.9080 C.2   875  ADP875      0.2526
     22  C6        -3.6890   79.8690   63.1300 C.2   875  ADP875      0.4393
     23  N6        -3.6980   78.5100   63.2320 N.pl3 875  ADP875      0.2180
     24  N1        -3.2340   80.6550   64.1220 N.2   875  ADP875      0.0021
     25  C2        -3.2180   82.0060   64.0340 C.3   875  ADP875      0.5254
     26  N3        -3.6420   82.6840   62.9560 N.2   875  ADP875     -0.0055
     27  C4        -4.1220   82.0240   61.8790 C.2   875  ADP875      0.3518
@<TRIPOS>BOND
     1     3     1    2
     2     4     1    1
     3     2     1    1
     4     1     8    1
     5     8     5    1
     6     6     5    2
     7     5     7    1
     8     5     9    1
     9    10     9    1
    10    10    11    1
    11    14    13    1
    12    11    13    1
    13    11    12    1
    14    13    15    1
    15    12    17    1
    16    15    16    1
    17    15    17    1
    18    19    18    1
    19    19    20    1
    20    17    18    1
    21    18    27    1
    22    20    21    2
    23    27    21    1
    24    27    26    2
    25    21    22    1
    26    26    25    1
    27    22    23    1
    28    22    24    2
    29    25    24    1
