@<TRIPOS>MOLECULE
3o8g_O8G_A_1.pdb
 22 24 0 0 0
SMALL
GASTEIGER

@<TRIPOS>ATOM
      1  C1        33.5260   71.9530   10.9420 C.3   217  O8G217      0.0320
      2  C4        33.5350   73.3910   10.4800 C.3   217  O8G217      0.0940
      3  N7        32.5430   74.2860   11.1860 N.am  217  O8G217     -0.2778
      4  C8        32.1080   73.9630   12.6280 C.3   217  O8G217      0.0940
      5  C11       32.1780   72.4660   12.9940 C.3   217  O8G217      0.0320
      6  C14       33.5050   71.8790   12.5000 C.3   217  O8G217      0.0960
      7  C16       32.0750   75.4260   10.6050 C.2   217  O8G217      0.2536
      8  O17       32.4000   75.7790    9.4590 O.2   217  O8G217     -0.2726
      9  C18       31.0870   76.3590   11.3450 C.3   217  O8G217      0.2488
     10  N21       33.4510   69.3670   12.2690 N.2   217  O8G217     -0.3122
     11  C22       33.5700   70.4560   13.0110 C.2   217  O8G217      0.2934
     12  O23       33.7250   70.1320   14.3310 O.2   217  O8G217     -0.3156
     13  N24       33.6800   68.7530   14.3610 N.2   217  O8G217     -0.0067
     14  C25       33.5130   68.3280   13.1060 C.1   217  O8G217      0.1329
     15  C26       33.4380   66.9920   12.7280 C.ar  217  O8G217      0.1063
     16  C27       33.4810   66.4560   11.5080 C.ar  217  O8G217      0.0182
     17  C29       33.3460   65.1090   11.5110 C.ar  217  O8G217      0.0082
     18  C31       33.2130   64.4960   12.7030 C.ar  217  O8G217      0.0362
     19  S33       33.2400   65.7390   13.8520 S.2   217  O8G217     -0.0753
     20  N34       30.4250   77.2490   10.3440 N.2   217  O8G217     -0.0875
     21  N36       30.9770   78.1920   10.0460 N.2   217  O8G217     -0.1659
     22  N37       31.5150   79.1250    9.7240 N.2   217  O8G217      0.0678
@<TRIPOS>BOND
     1     8     7    2
     2    22    21    2
     3    21    20    2
     4    20     9    1
     5     2     1    1
     6     2     3    1
     7     7     3   am
     8     7     9    1
     9     1     6    1
    10     3     4    1
    11    16    17   ar
    12    16    15   ar
    13    17    18   ar
    14    10    11    2
    15    10    14    2
    16     6     5    1
    17     6    11    1
    18     4     5    1
    19    18    19   ar
    20    15    14    1
    21    15    19   ar
    22    11    12    1
    23    14    13    2
    24    12    13    1
