@<TRIPOS>MOLECULE
3o8h_O8H_A_1.pdb
 36 40 0 0 0
SMALL
GASTEIGER

@<TRIPOS>ATOM
      1  C07       28.0540   82.1680    7.4520 C.ar  217  O8H217      0.0204
      2  C05       27.2350   82.9970    8.2180 C.ar  217  O8H217      0.0072
      3  C04       25.9040   82.6300    8.5020 C.ar  217  O8H217      0.0301
      4  I01       24.6180   83.8490    9.6750 I     217  O8H217     -0.0425
      5  C02       25.3820   81.4300    8.0250 C.ar  217  O8H217      0.0072
      6  C10       26.2030   80.6000    7.2680 C.ar  217  O8H217      0.0204
      7  C09       27.5150   80.9710    6.9840 C.ar  217  O8H217      0.1236
      8  S12       28.4690   79.9030    6.0280 S.O2  217  O8H217      0.0772
      9  O13       27.6110   78.9090    5.3390 O.2   217  O8H217     -0.1516
     10  O16       29.1270   80.7600    4.9980 O.2   217  O8H217     -0.1516
     11  N14       29.5920   79.1080    6.9720 N.3   217  O8H217     -0.0715
     12  C17       28.9240   78.2280    7.9430 C.3   217  O8H217      0.1595
     13  C20       29.9390   77.6250    8.9170 C.2   217  O8H217      0.0944
     14  C24       29.8280   76.4810    9.5560 C.3   217  O8H217      0.1402
     15  N21       31.0940   78.1370    9.3240 N.2   217  O8H217     -0.1525
     16  N22       31.6430   77.3740   10.1170 N.pl3 217  O8H217     -0.0626
     17  N23       30.9270   76.3990   10.2960 N.3   217  O8H217     -0.1540
     18  C26       31.2630   75.2630   11.1590 C.3   217  O8H217      0.1806
     19  C29       32.0750   74.2450   10.3470 C.2   217  O8H217      0.2438
     20  O31       32.3400   74.4860    9.1550 O.2   217  O8H217     -0.2733
     21  N30       32.4690   73.0740   10.9200 N.am  217  O8H217     -0.2783
     22  C43       33.2680   72.1130   10.1070 C.3   217  O8H217      0.0940
     23  C40       33.2430   70.6690   10.6330 C.3   217  O8H217      0.0320
     24  C32       32.1400   72.7990   12.3710 C.3   217  O8H217      0.0940
     25  C35       32.2430   71.3060   12.7750 C.3   217  O8H217      0.0320
     26  C38       33.4370   70.6120   12.1370 C.3   217  O8H217      0.0960
     27  C46       33.4820   69.1730   12.6070 C.2   217  O8H217      0.2934
     28  N50       33.4450   68.0780   11.8410 N.2   217  O8H217     -0.3122
     29  O47       33.5820   68.8120   13.9170 O.2   217  O8H217     -0.3156
     30  N48       33.5880   67.3910   13.9060 N.2   217  O8H217     -0.0067
     31  C49       33.5000   66.9830   12.6320 C.1   217  O8H217      0.1329
     32  C51       33.4440   65.6450   12.2000 C.ar  217  O8H217      0.1063
     33  C52       33.6620   65.1600   10.9830 C.ar  217  O8H217      0.0182
     34  C54       33.5020   63.8210   10.8530 C.ar  217  O8H217      0.0082
     35  C56       33.1420   63.1210   11.9420 C.ar  217  O8H217      0.0362
     36  S58       33.0030   64.2680   13.1630 S.2   217  O8H217     -0.0753
@<TRIPOS>BOND
     1    10     8    2
     2     9     8    2
     3     8    11    1
     4     8     7    1
     5    11    12    1
     6     7     6   ar
     7     7     1   ar
     8     6     5   ar
     9     1     2   ar
    10    12    13    1
    11     5     3   ar
    12     2     3   ar
    13     3     4    1
    14    13    15    2
    15    13    14    1
    16    20    19    2
    17    15    16    1
    18    14    17    1
    19    22    23    1
    20    22    21    1
    21    16    17    1
    22    17    18    1
    23    19    21   am
    24    19    18    1
    25    23    26    1
    26    34    33   ar
    27    34    35   ar
    28    21    24    1
    29    33    32   ar
    30    28    27    2
    31    28    31    2
    32    35    36   ar
    33    26    27    1
    34    26    25    1
    35    32    31    1
    36    32    36   ar
    37    24    25    1
    38    27    29    1
    39    31    30    2
    40    30    29    1
