@<TRIPOS>MOLECULE
3o8i_M1T_A_1.pdb
 11 10 0 0 0
SMALL
GASTEIGER

@<TRIPOS>ATOM
      1  CAA      -23.6360  -22.0120    4.3480 C.3   232  M1T232      0.1747
      2  OAB      -19.5660  -21.2430    4.0050 O.2   232  M1T232     -0.2934
      3  OAC      -14.9700  -19.5560    2.0860 O.2   232  M1T232     -0.2671
      4  OAD      -15.5970  -21.2460    0.6120 O.2   232  M1T232     -0.2671
      5  CAE      -18.3170  -21.0680    1.6440 C.3   232  M1T232      0.0159
      6  CAF      -19.6970  -20.4850    1.7200 C.3   232  M1T232      0.0674
      7  CAG      -17.3090  -19.9770    1.8480 C.3   232  M1T232      0.1003
      8  CAH      -21.8510  -20.9930    3.0490 C.3   232  M1T232      0.2061
      9  OAI      -22.5700  -20.9510    4.2920 O.3   232  M1T232     -0.3432
     10  CAJ      -20.2990  -20.9470    3.0400 C.2   232  M1T232      0.1804
     11  CAK      -15.9090  -20.6070    1.8630 C.3   232  M1T232      0.4259
@<TRIPOS>BOND
     1     4    11    1
     2     5     6    1
     3     5     7    1
     4     6    10    1
     5     7    11    1
     6    11     3    1
     7    10     8    1
     8    10     2    2
     9     8     9    1
    10     9     1    1
