@<TRIPOS>MOLECULE
3o8l_ATP_A_1.pdb
 31 33 0 0 0
SMALL
GASTEIGER

@<TRIPOS>ATOM
      1  PG        59.4370  -39.8690   36.8620 P.3   763  ATP763      0.5373
      2  O1G       60.3720  -39.0720   36.0350 O.2   763  ATP763     -0.2221
      3  O2G       60.1060  -40.3050   38.2620 O.3   763  ATP763     -0.1143
      4  O3G       58.9680  -41.2250   36.1280 O.3   763  ATP763     -0.1143
      5  PB        58.0410  -37.4780   36.9280 P.3   763  ATP763      0.2277
      6  O1B       57.1530  -36.7620   37.8710 O.3   763  ATP763     -0.4368
      7  O2B       59.5650  -36.9650   37.0040 O.2   763  ATP763     -0.5168
      8  O3B       58.0940  -39.0590   37.2240 O.3   763  ATP763     -0.2258
      9  PA        58.6470  -37.1140   34.1930 P.3   763  ATP763      0.2189
     10  O1A       58.6300  -38.2420   33.2340 O.2   763  ATP763     -0.5170
     11  O2A       60.0930  -36.8770   34.8630 O.3   763  ATP763     -0.4371
     12  O3A       57.5900  -37.3420   35.3880 O.3   763  ATP763     -0.2700
     13  O5'       58.2160  -35.7110   33.5290 O.3   763  ATP763     -0.3112
     14  C5'       57.0270  -35.6360   32.7370 C.3   763  ATP763      0.1813
     15  C4'       56.5850  -34.1860   32.5340 C.3   763  ATP763      0.1821
     16  O4'       56.4710  -33.5050   33.7940 O.3   763  ATP763     -0.3135
     17  C3'       57.5640  -33.3430   31.7190 C.3   763  ATP763      0.2184
     18  O3'       57.3400  -33.5470   30.3220 O.3   763  ATP763     -0.2174
     19  C2'       57.0430  -31.9640   32.1130 C.3   763  ATP763      0.2570
     20  O2'       55.7220  -31.7680   31.6020 O.3   763  ATP763     -0.2130
     21  C1'       56.9770  -32.1670   33.6260 C.3   763  ATP763      0.3186
     22  N9        58.3570  -32.1130   34.1530 N.pl3 763  ATP763     -0.1439
     23  C8        59.1440  -33.1510   34.4250 C.3   763  ATP763      0.3377
     24  N7        60.3160  -32.7160   34.8830 N.2   763  ATP763     -0.2095
     25  C5        60.2720  -31.3870   34.9030 C.2   763  ATP763      0.2526
     26  C6        61.1690  -30.3970   35.2800 C.2   763  ATP763      0.4393
     27  N6        62.3850  -30.7230   35.7110 N.pl3 763  ATP763      0.2180
     28  N1        60.7910  -29.1140   35.1840 N.2   763  ATP763      0.0021
     29  C2        59.5910  -28.7840   34.7380 C.3   763  ATP763      0.5254
     30  N3        58.7150  -29.6990   34.3670 N.2   763  ATP763     -0.0055
     31  C4        59.0240  -31.0000   34.4380 C.2   763  ATP763      0.3518
@<TRIPOS>BOND
     1    18    17    1
     2    20    19    1
     3    17    19    1
     4    17    15    1
     5    19    21    1
     6    15    14    1
     7    15    16    1
     8    14    13    1
     9    10     9    2
    10    13     9    1
    11    21    16    1
    12    21    22    1
    13    22    23    1
    14    22    31    1
    15     9    11    1
    16     9    12    1
    17    30    31    2
    18    30    29    1
    19    23    24    1
    20    31    25    1
    21    29    28    1
    22    24    25    2
    23    25    26    1
    24    28    26    2
    25    26    27    1
    26    12     5    1
    27     2     1    2
    28     4     1    1
    29     1     8    1
    30     1     3    1
    31     5     7    2
    32     5     8    1
    33     5     6    1
