@<TRIPOS>MOLECULE
3o8l_ADP_A_1.pdb
 27 29 0 0 0
SMALL
GASTEIGER

@<TRIPOS>ATOM
      1  PB        59.4520  -50.8140   54.7450 P.3   764  ADP764      0.5373
      2  O1B       58.7810  -51.9810   55.3580 O.3   764  ADP764     -0.1143
      3  O2B       61.0560  -50.7170   54.6350 O.3   764  ADP764     -0.1143
      4  O3B       58.6830  -49.8080   53.7500 O.2   764  ADP764     -0.2221
      5  PA        59.7160  -48.2280   55.8070 P.3   764  ADP764      0.2231
      6  O1A       60.4620  -47.6950   56.9690 O.3   764  ADP764     -0.4370
      7  O2A       60.5500  -48.1000   54.4360 O.2   764  ADP764     -0.5169
      8  O3A       59.3800  -49.7930   55.9890 O.3   764  ADP764     -0.2261
      9  O5'       58.3210  -47.4650   55.5580 O.3   764  ADP764     -0.3111
     10  C5'       57.3900  -47.3240   56.6350 C.3   764  ADP764      0.1813
     11  C4'       56.3650  -46.2240   56.3470 C.3   764  ADP764      0.1821
     12  O4'       55.5600  -46.6220   55.2220 O.3   764  ADP764     -0.3135
     13  C3'       55.3960  -46.1660   57.5300 C.3   764  ADP764      0.2184
     14  O3'       54.5790  -44.9960   57.4360 O.3   764  ADP764     -0.2174
     15  C2'       54.5530  -47.3950   57.2070 C.3   764  ADP764      0.2570
     16  O2'       53.3280  -47.3020   57.9380 O.3   764  ADP764     -0.2130
     17  C1'       54.2970  -47.0860   55.7310 C.3   764  ADP764      0.3186
     18  N9        53.8240  -48.2620   54.9650 N.pl3 764  ADP764     -0.1439
     19  C8        54.4360  -48.7910   53.9080 C.3   764  ADP764      0.3377
     20  N7        53.7280  -49.8210   53.4480 N.2   764  ADP764     -0.2095
     21  C5        52.6540  -49.9540   54.2190 C.2   764  ADP764      0.2526
     22  C6        51.5770  -50.8310   54.2350 C.2   764  ADP764      0.4393
     23  N6        51.4700  -51.7940   53.3240 N.pl3 764  ADP764      0.2180
     24  N1        50.6380  -50.6880   55.1800 N.2   764  ADP764      0.0021
     25  C2        50.7270  -49.7310   56.0870 C.3   764  ADP764      0.5254
     26  N3        51.7370  -48.8780   56.1010 N.2   764  ADP764     -0.0055
     27  C4        52.7140  -48.9600   55.1870 C.2   764  ADP764      0.3518
@<TRIPOS>BOND
     1    23    22    1
     2    20    19    1
     3    20    21    2
     4     4     1    2
     5    19    18    1
     6    21    22    1
     7    21    27    1
     8    22    24    2
     9     7     5    2
    10     3     1    1
    11     1     2    1
    12     1     8    1
    13    18    27    1
    14    18    17    1
    15    24    25    1
    16    27    26    2
    17    12    17    1
    18    12    11    1
    19     9     5    1
    20     9    10    1
    21    17    15    1
    22     5     8    1
    23     5     6    1
    24    25    26    1
    25    11    10    1
    26    11    13    1
    27    15    13    1
    28    15    16    1
    29    14    13    1
