@<TRIPOS>MOLECULE
3o8m_GLC_A_1.pdb
 12 12 0 0 0
SMALL
GASTEIGER

@<TRIPOS>ATOM
      1  C1        37.3530   40.0720   19.1020 C.3   486  GLC486      0.3024
      2  C2        38.4230   39.7990   20.1490 C.3   486  GLC486      0.2434
      3  C3        38.6120   40.9950   21.0700 C.3   486  GLC486      0.2199
      4  C4        39.0000   42.2350   20.2420 C.3   486  GLC486      0.2144
      5  C5        37.9460   42.3910   19.1570 C.3   486  GLC486      0.1836
      6  C6        38.2860   43.5200   18.1540 C.3   486  GLC486      0.2142
      7  O1        36.1070   40.4100   19.7020 O.3   486  GLC486     -0.1869
      8  O2        37.9820   38.6220   20.9480 O.3   486  GLC486     -0.2148
      9  O3        39.7560   40.7210   21.9550 O.3   486  GLC486     -0.2174
     10  O4        39.0030   43.3790   21.0900 O.3   486  GLC486     -0.2176
     11  O5        37.8440   41.2010   18.3740 O.3   486  GLC486     -0.3236
     12  O6        39.6080   43.3850   17.5670 O.3   486  GLC486     -0.2176
@<TRIPOS>BOND
     1    12     6    1
     2     6     5    1
     3    11     1    1
     4    11     5    1
     5     1     7    1
     6     1     2    1
     7     5     4    1
     8     2     8    1
     9     2     3    1
    10     4     3    1
    11     4    10    1
    12     3     9    1
