@<TRIPOS>MOLECULE
3o8m_BGC_A_1.pdb
 12 12 0 0 0
SMALL
GASTEIGER

@<TRIPOS>ATOM
      1  C2        38.4350   39.8050   20.1870 C.3   487  BGC487      0.2434
      2  C3        38.6520   40.9980   21.0960 C.3   487  BGC487      0.2199
      3  C4        38.9790   42.2450   20.2670 C.3   487  BGC487      0.2144
      4  C5        37.9180   42.4360   19.2080 C.3   487  BGC487      0.1836
      5  C6        38.2820   43.5900   18.2780 C.3   487  BGC487      0.2142
      6  C1        37.3760   40.1710   19.1720 C.3   487  BGC487      0.3024
      7  O1        37.2080   39.1210   18.2360 O.3   487  BGC487     -0.1869
      8  O2        37.9730   38.6520   20.9530 O.3   487  BGC487     -0.2148
      9  O3        39.7680   40.7140   21.9740 O.3   487  BGC487     -0.2174
     10  O4        38.9980   43.3950   21.1110 O.3   487  BGC487     -0.2176
     11  O5        37.8730   41.2730   18.4200 O.3   487  BGC487     -0.3236
     12  O6        39.5170   43.3040   17.6080 O.3   487  BGC487     -0.2176
@<TRIPOS>BOND
     1    12     5    1
     2     7     6    1
     3     5     4    1
     4    11     6    1
     5    11     4    1
     6     6     1    1
     7     4     3    1
     8     1     8    1
     9     1     2    1
    10     3     2    1
    11     3    10    1
    12     2     9    1
