@<TRIPOS>MOLECULE
3o8n_ADP_A_1.pdb
 27 29 0 0 0
SMALL
GASTEIGER

@<TRIPOS>ATOM
      1  PB       -58.2220   37.8000   36.9690 P.3   763  ADP763      0.5373
      2  O1B      -57.3390   38.7880   36.3100 O.2   763  ADP763     -0.2221
      3  O2B      -59.6310   38.4380   37.4190 O.3   763  ADP763     -0.1143
      4  O3B      -57.5390   37.1740   38.2840 O.3   763  ADP763     -0.1143
      5  PA       -59.3030   36.7910   34.6260 P.3   763  ADP763      0.2231
      6  O1A      -58.9400   37.9390   33.7660 O.2   763  ADP763     -0.5169
      7  O2A      -60.7450   36.0770   34.5640 O.3   763  ADP763     -0.4370
      8  O3A      -58.5880   36.5370   36.0440 O.3   763  ADP763     -0.2261
      9  O5'      -58.5090   35.6130   33.8660 O.3   763  ADP763     -0.3111
     10  C5'      -57.1800   35.8520   33.3900 C.3   763  ADP763      0.1813
     11  C4'      -56.3510   34.5660   33.3360 C.3   763  ADP763      0.1821
     12  O4'      -56.9320   33.6600   34.2920 O.3   763  ADP763     -0.3135
     13  C3'      -56.4120   33.8410   31.9890 C.3   763  ADP763      0.2184
     14  O3'      -55.2450   33.0320   31.8210 O.3   763  ADP763     -0.2174
     15  C2'      -57.6020   32.9060   32.1740 C.3   763  ADP763      0.2570
     16  O2'      -57.3980   31.7810   31.3160 O.3   763  ADP763     -0.2130
     17  C1'      -57.3200   32.4580   33.6060 C.3   763  ADP763      0.3186
     18  N9       -58.5590   31.9050   34.1920 N.pl3 763  ADP763     -0.1439
     19  C8       -59.5680   32.6170   34.6880 C.3   763  ADP763      0.3377
     20  N7       -60.5390   31.7980   35.0870 N.2   763  ADP763     -0.2095
     21  C5       -60.1410   30.5530   34.8430 C.2   763  ADP763      0.2526
     22  C6       -60.7170   29.3030   35.0250 C.2   763  ADP763      0.4393
     23  N6       -61.9260   29.1920   35.5670 N.pl3 763  ADP763      0.2180
     24  N1       -60.0300   28.2140   34.6480 N.2   763  ADP763      0.0021
     25  C2       -58.8250   28.3150   34.1150 C.3   763  ADP763      0.5254
     26  N3       -58.2470   29.4890   33.9270 N.2   763  ADP763     -0.0055
     27  C4       -58.8770   30.6180   34.2760 C.2   763  ADP763      0.3518
@<TRIPOS>BOND
     1    16    15    1
     2    14    13    1
     3    13    15    1
     4    13    11    1
     5    15    17    1
     6    11    10    1
     7    11    12    1
     8    10     9    1
     9    17    18    1
    10    17    12    1
    11     6     5    2
    12     9     5    1
    13    26    25    1
    14    26    27    2
    15    25    24    1
    16    18    27    1
    17    18    19    1
    18    27    21    1
    19     7     5    1
    20     5     8    1
    21    24    22    2
    22    19    20    1
    23    21    22    1
    24    21    20    2
    25    22    23    1
    26     8     1    1
    27     2     1    2
    28     1     3    1
    29     1     4    1
