@<TRIPOS>MOLECULE
3o8o_F6P_A_1.pdb
 16 16 0 0 0
SMALL
GASTEIGER

@<TRIPOS>ATOM
      1  O1        13.7130   45.4990   62.0310 O.3   988  F6P988     -0.2148
      2  C1        12.7020   44.6310   61.5720 C.3   988  F6P988      0.2434
      3  C2        11.4570   45.4210   61.1640 C.3   988  F6P988      0.2807
      4  O2        10.9920   46.2330   62.2510 O.3   988  F6P988     -0.1896
      5  C3        10.3810   44.4090   60.6900 C.3   988  F6P988      0.2409
      6  O3         9.3960   44.1200   61.6940 O.3   988  F6P988     -0.2149
      7  C4         9.7870   45.0870   59.4390 C.3   988  F6P988      0.2167
      8  O4         9.2670   44.1230   58.5180 O.3   988  F6P988     -0.2175
      9  C5        10.9960   45.8930   58.8920 C.3   988  F6P988      0.1808
     10  O5        11.7690   46.2640   60.0540 O.3   988  F6P988     -0.3254
     11  C6        10.5250   47.1500   58.1530 C.3   988  F6P988      0.1859
     12  O6        11.6640   47.8720   57.6640 O.3   988  F6P988     -0.2675
     13  P         11.1260   49.1950   56.9070 P.3   988  F6P988      0.5327
     14  O1P        9.8140   49.8420   57.1540 O.3   988  F6P988     -0.1145
     15  O2P       12.2570   50.1440   56.2690 O.2   988  F6P988     -0.2224
     16  O3P       11.5560   49.9230   58.2730 O.3   988  F6P988     -0.1145
@<TRIPOS>BOND
     1    15    13    2
     2    13    14    1
     3    13    12    1
     4    13    16    1
     5    12    11    1
     6    11     9    1
     7     8     7    1
     8     9     7    1
     9     9    10    1
    10     7     5    1
    11    10     3    1
    12     5     3    1
    13     5     6    1
    14     3     2    1
    15     3     4    1
    16     2     1    1
