@<TRIPOS>MOLECULE
3o8o_FDP_A_1.pdb
 20 20 0 0 0
SMALL
GASTEIGER

@<TRIPOS>ATOM
      1  P1         6.1560   44.8380  100.6250 P.3     1  FDP1        0.5345
      2  O1P        5.8010   43.4140  100.4340 O.2     1  FDP1       -0.2223
      3  O2P        7.7410   45.0300  100.8330 O.3     1  FDP1       -0.1145
      4  O3P        5.4570   45.4570  101.9350 O.3     1  FDP1       -0.1145
      5  O1         7.4140   49.0370   99.3340 O.3     1  FDP1       -0.2149
      6  C1         7.3160   47.6110   99.2770 C.3     1  FDP1        0.2410
      7  C2         5.8470   47.1990   99.3910 C.3     1  FDP1        0.2588
      8  O2         5.7000   45.7740   99.3950 O.3     1  FDP1       -0.2440
      9  C3         5.0200   47.7740   98.2380 C.3     1  FDP1        0.2385
     10  O3         4.7540   46.7530   97.2710 O.3     1  FDP1       -0.2150
     11  C4         3.7130   48.1190   98.9450 C.3     1  FDP1        0.2166
     12  O4         3.0310   49.1050   98.1640 O.3     1  FDP1       -0.2175
     13  C5         4.2930   48.7040  100.2310 C.3     1  FDP1        0.1807
     14  O5         5.3130   47.7600  100.5990 O.3     1  FDP1       -0.3271
     15  C6         3.2810   48.8140  101.3740 C.3     1  FDP1        0.1859
     16  O6         2.1390   49.5960  101.0220 O.3     1  FDP1       -0.2675
     17  P2         0.9040   49.6730  102.0510 P.3     1  FDP1        0.5327
     18  O4P        1.1070   50.7440  103.0520 O.3     1  FDP1       -0.1145
     19  O5P       -0.4250   49.9010  101.1720 O.2     1  FDP1       -0.2224
     20  O6P        0.7830   48.2080  102.7080 O.3     1  FDP1       -0.1145
@<TRIPOS>BOND
     1    10     9    1
     2    12    11    1
     3     9    11    1
     4     9     7    1
     5    11    13    1
     6     6     5    1
     7     6     7    1
     8     7     8    1
     9     7    14    1
    10     8     1    1
    11    13    14    1
    12    13    15    1
    13     2     1    2
    14     1     3    1
    15     1     4    1
    16    16    15    1
    17    16    17    1
    18    19    17    2
    19    17    20    1
    20    17    18    1
