@<TRIPOS>MOLECULE
3o8p_BMU_A_1.pdb
 21 22 0 0 0
SMALL
GASTEIGER

@<TRIPOS>ATOM
      1  C1        -0.8030   -2.9520  -14.5390 C.2   361  BMU361      0.3491
      2  O1         0.0310   -2.3730  -15.2310 O.2   361  BMU361     -0.2484
      3  N2        -2.1040   -3.0490  -14.8690 N.am  361  BMU361     -0.1606
      4  C3        -2.7360   -2.3890  -15.8820 C.ar  361  BMU361      0.0750
      5  C4        -4.0960   -2.0840  -15.7160 C.ar  361  BMU361      0.0175
      6  C5        -4.8160   -1.4230  -16.7190 C.ar  361  BMU361      0.0127
      7  C6        -4.1630   -1.0680  -17.9120 C.ar  361  BMU361      0.0578
      8 CL6        -5.0820   -0.2270  -19.2070 Cl    361  BMU361     -0.0822
      9  C7        -2.8090   -1.3880  -18.0990 C.ar  361  BMU361      0.0127
     10  C8        -2.0950   -2.0430  -17.0800 C.ar  361  BMU361      0.0175
     11  N9        -0.4560   -3.5630  -13.3910 N.am  361  BMU361     -0.1421
     12  C10        0.7040   -3.3750  -12.7410 C.ar  361  BMU361      0.1543
     13  C14        1.4390   -2.2490  -12.3970 C.ar  361  BMU361      0.0523
     14  C13        2.5270   -2.7860  -11.7150 C.ar  361  BMU361      0.0807
     15  N12        2.4910   -4.1290  -11.5890 N.ar  361  BMU361     -0.1725
     16  N11        1.3080   -4.4800  -12.2600 N.ar  361  BMU361     -0.2342
     17  C15        1.0360   -5.9370  -12.2970 C.3   361  BMU361      0.1552
     18  C17        3.0350   -1.0780  -10.0050 C.3   361  BMU361      0.0060
     19  C18        4.2430   -1.0760  -12.2520 C.3   361  BMU361      0.0060
     20  C19        4.7300   -2.7900  -10.5330 C.3   361  BMU361      0.0060
     21  C16        3.6270   -1.9280  -11.1360 C.3   361  BMU361      0.0372
@<TRIPOS>BOND
     1     8     7    1
     2     9     7   ar
     3     9    10   ar
     4     7     6   ar
     5    10     4   ar
     6     6     5   ar
     7     4     5   ar
     8     4     3    1
     9     2     1    2
    10     3     1   am
    11     1    11   am
    12    11    12    1
    13    12    13   ar
    14    12    16   ar
    15    13    14   ar
    16    17    16    1
    17    16    15   ar
    18    19    21    1
    19    14    15   ar
    20    14    21    1
    21    21    20    1
    22    21    18    1
