@<TRIPOS>MOLECULE
3o8r_ADP_A_1.pdb
 27 29 0 0 0
SMALL
GASTEIGER

@<TRIPOS>ATOM
      1  PB        40.5410   83.5620   52.3890 P.3   875  ADP875      0.5373
      2  O1B       39.6740   82.3480   52.5650 O.3   875  ADP875     -0.1143
      3  O2B       40.0300   84.5260   51.3340 O.2   875  ADP875     -0.2221
      4  O3B       42.0470   83.3840   52.3470 O.3   875  ADP875     -0.1143
      5  PA        39.7510   83.5740   55.1150 P.3   875  ADP875      0.2231
      6  O1A       38.2810   83.3570   54.8930 O.2   875  ADP875     -0.5169
      7  O2A       40.6030   82.3870   55.5120 O.3   875  ADP875     -0.4370
      8  O3A       40.3140   84.3360   53.7990 O.3   875  ADP875     -0.2261
      9  O5'       39.9990   84.6960   56.2440 O.3   875  ADP875     -0.3111
     10  C5'       39.2130   85.8860   56.2800 C.3   875  ADP875      0.1813
     11  C4'       39.7880   86.7910   57.3600 C.3   875  ADP875      0.1821
     12  O4'       39.4320   86.2680   58.6400 O.3   875  ADP875     -0.3135
     13  C3'       41.3080   86.8370   57.3240 C.3   875  ADP875      0.2184
     14  O3'       41.7340   88.0580   56.7350 O.3   875  ADP875     -0.2174
     15  C2'       41.7500   86.7730   58.7720 C.3   875  ADP875      0.2570
     16  O2'       42.0210   88.0880   59.2400 O.3   875  ADP875     -0.2130
     17  C1'       40.5340   86.3310   59.5430 C.3   875  ADP875      0.3186
     18  N9        40.6920   84.9750   60.1050 N.pl3 875  ADP875     -0.1439
     19  C8        40.2650   83.8510   59.5090 C.3   875  ADP875      0.3377
     20  N7        40.5200   82.7630   60.2780 N.2   875  ADP875     -0.2095
     21  C5        41.1180   83.2060   61.3990 C.2   875  ADP875      0.2526
     22  C6        41.6490   82.5750   62.6240 C.2   875  ADP875      0.4393
     23  N6        41.5690   81.2230   62.7770 N.pl3 875  ADP875      0.2180
     24  N1        42.2000   83.3970   63.5560 N.2   875  ADP875      0.0021
     25  C2        42.2690   84.7380   63.4000 C.3   875  ADP875      0.5254
     26  N3        41.8070   85.3770   62.3090 N.2   875  ADP875     -0.0055
     27  C4        41.2300   84.6700   61.2900 C.2   875  ADP875      0.3518
@<TRIPOS>BOND
     1     3     1    2
     2     4     1    1
     3     1     2    1
     4     1     8    1
     5     8     5    1
     6     6     5    2
     7     5     7    1
     8     5     9    1
     9     9    10    1
    10    10    11    1
    11    14    13    1
    12    13    11    1
    13    13    15    1
    14    11    12    1
    15    12    17    1
    16    15    16    1
    17    15    17    1
    18    19    18    1
    19    19    20    1
    20    17    18    1
    21    18    27    1
    22    20    21    2
    23    27    21    1
    24    27    26    2
    25    21    22    1
    26    26    25    1
    27    22    23    1
    28    22    24    2
    29    25    24    1
