@<TRIPOS>MOLECULE
3o8t_BMU_A_1.pdb
 21 22 0 0 0
SMALL
GASTEIGER

@<TRIPOS>ATOM
      1  C1       -18.2520    5.4310   18.9660 C.2   361  BMU361      0.3491
      2  O1       -17.4370    5.0820   18.1300 O.2   361  BMU361     -0.2484
      3  N2       -19.4740    4.9110   19.0620 N.am  361  BMU361     -0.1606
      4  C3       -20.0440    4.0260   18.2090 C.ar  361  BMU361      0.0750
      5  C4       -21.4190    4.0990   17.9900 C.ar  361  BMU361      0.0175
      6  C5       -22.0460    3.2000   17.1330 C.ar  361  BMU361      0.0127
      7  C6       -21.2940    2.2000   16.5080 C.ar  361  BMU361      0.0578
      8 CL6       -22.0630    1.0080   15.4000 Cl    361  BMU361     -0.0822
      9  C7       -19.9170    2.1160   16.7340 C.ar  361  BMU361      0.0127
     10  C8       -19.2950    3.0200   17.5910 C.ar  361  BMU361      0.0175
     11  N9       -17.9410    6.3700   19.8500 N.am  361  BMU361     -0.1421
     12  C10      -16.7400    7.0210   19.7910 C.ar  361  BMU361      0.1543
     13  C14      -15.8470    7.3910   18.7740 C.ar  361  BMU361      0.0523
     14  C13      -14.8310    8.0190   19.4820 C.ar  361  BMU361      0.0807
     15  N12      -15.0310    8.0450   20.8150 N.ar  361  BMU361     -0.1725
     16  N11      -16.2580    7.3920   20.9850 N.ar  361  BMU361     -0.2342
     17  C15      -16.7470    7.2640   22.3870 C.3   361  BMU361      0.1552
     18  C17      -12.8710    7.6490   17.9630 C.3   361  BMU361      0.0060
     19  C18      -12.5870    8.9260   20.0070 C.3   361  BMU361      0.0060
     20  C19      -13.9020    9.8900   18.1140 C.3   361  BMU361      0.0060
     21  C16      -13.5700    8.6180   18.8850 C.3   361  BMU361      0.0372
@<TRIPOS>BOND
     1     8     7    1
     2     7     9   ar
     3     7     6   ar
     4     9    10   ar
     5     6     5   ar
     6    10     4   ar
     7    18    21    1
     8     5     4   ar
     9    20    21    1
    10     2     1    2
    11     4     3    1
    12    13    14   ar
    13    13    12   ar
    14    21    14    1
    15    21    19    1
    16     1     3   am
    17     1    11   am
    18    14    15   ar
    19    12    11    1
    20    12    16   ar
    21    15    16   ar
    22    16    17    1
