@<TRIPOS>MOLECULE
3o8u_BMU_A_1.pdb
 21 22 0 0 0
SMALL
GASTEIGER

@<TRIPOS>ATOM
      1  C1        18.1620   -5.7150  -19.1010 C.2   361  BMU361      0.3491
      2  O1        17.4120   -5.5110  -20.0190 O.2   361  BMU361     -0.2484
      3  N2        19.3530   -5.1220  -19.0360 N.am  361  BMU361     -0.1606
      4  C3        19.9210   -4.2960  -19.9390 C.ar  361  BMU361      0.0750
      5  C4        19.2600   -3.1740  -20.4330 C.ar  361  BMU361      0.0175
      6  C5        19.9050   -2.3430  -21.3470 C.ar  361  BMU361      0.0127
      7  C6        21.2120   -2.6180  -21.7380 C.ar  361  BMU361      0.0578
      8 CL6        22.0400   -1.5410  -22.9060 Cl    361  BMU361     -0.0822
      9  C7        21.8830   -3.7330  -21.2430 C.ar  361  BMU361      0.0127
     10  C8        21.2310   -4.5600  -20.3350 C.ar  361  BMU361      0.0175
     11  N9        17.8280   -6.5600  -18.1210 N.am  361  BMU361     -0.1421
     12  C10       16.6240   -7.2030  -18.1090 C.ar  361  BMU361      0.1543
     13  C14       15.7390   -7.6520  -19.0810 C.ar  361  BMU361      0.0523
     14  C13       14.7170   -8.2390  -18.3410 C.ar  361  BMU361      0.0807
     15  N12       14.9120   -8.1660  -17.0100 N.ar  361  BMU361     -0.1725
     16  N11       16.1490   -7.5130  -16.8940 N.ar  361  BMU361     -0.2342
     17  C15       16.6380   -7.2880  -15.5090 C.3   361  BMU361      0.1552
     18  C17       13.8690  -10.1920  -19.6130 C.3   361  BMU361      0.0060
     19  C18       12.8510   -8.0150  -20.0100 C.3   361  BMU361      0.0060
     20  C19       12.4120   -9.1610  -17.8750 C.3   361  BMU361      0.0060
     21  C16       13.4720   -8.8880  -18.9480 C.3   361  BMU361      0.0372
@<TRIPOS>BOND
     1     8     7    1
     2     7     6   ar
     3     7     9   ar
     4     6     5   ar
     5     9    10   ar
     6     5     4   ar
     7    10     4   ar
     8     2     1    2
     9    19    21    1
    10     4     3    1
    11    18    21    1
    12     1     3   am
    13     1    11   am
    14    13    14   ar
    15    13    12   ar
    16    21    14    1
    17    21    20    1
    18    14    15   ar
    19    11    12    1
    20    12    16   ar
    21    15    16   ar
    22    16    17    1
