@<TRIPOS>MOLECULE
3o8x_NAG_A_1.pdb
 14 14 0 0 0
SMALL
GASTEIGER

@<TRIPOS>ATOM
      1  C1       -33.7460   41.9490  -17.7520 C.3   500  NAG500      0.1665
      2  C2       -33.0980   43.3080  -18.0620 C.3   500  NAG500      0.1576
      3  C3       -31.9620   43.2740  -19.0800 C.3   500  NAG500      0.2069
      4  C4       -30.9890   42.1430  -18.7500 C.3   500  NAG500      0.2134
      5  C5       -31.7610   40.8070  -18.7490 C.3   500  NAG500      0.1809
      6  C6       -30.8490   39.5980  -18.4690 C.3   500  NAG500      0.2141
      7  C7       -34.5960   45.2140  -17.8340 C.2   500  NAG500      0.2420
      8  C8       -35.6210   46.0700  -18.5260 C.3   500  NAG500      0.0964
      9  N2       -34.1000   44.2190  -18.5680 N.am  500  NAG500     -0.2019
     10  O3       -31.3110   44.5310  -19.0920 O.3   500  NAG500     -0.2184
     11  O4       -29.9100   42.1510  -19.6750 O.3   500  NAG500     -0.2176
     12  O5       -32.8680   40.8130  -17.8410 O.3   500  NAG500     -0.3489
     13  O6       -30.3620   39.5740  -17.1390 O.3   500  NAG500     -0.2176
     14  O7       -34.2600   45.4410  -16.6640 O.2   500  NAG500     -0.2733
@<TRIPOS>BOND
     1    11     4    1
     2    10     3    1
     3     3     4    1
     4     3     2    1
     5     4     5    1
     6     5     6    1
     7     5    12    1
     8     9     2    1
     9     9     7   am
    10     8     7    1
    11     6    13    1
    12     2     1    1
    13    12     1    1
    14     7    14    2
