@<TRIPOS>MOLECULE
3o8x_FUC_A_1.pdb
 10 10 0 0 0
SMALL
GASTEIGER

@<TRIPOS>ATOM
      1  C1       -54.0410   10.5260   -9.3360 C.3   513  FUC513      0.1776
      2  C2       -52.7480    9.7220   -9.5270 C.3   513  FUC513      0.2141
      3  C3       -52.2260    9.8640  -10.9840 C.3   513  FUC513      0.2172
      4  C4       -51.9840   11.3470  -11.3040 C.3   513  FUC513      0.2116
      5  C5       -53.3130   12.0790  -11.0450 C.3   513  FUC513      0.1483
      6  C6       -53.2200   13.5820  -11.2750 C.3   513  FUC513      0.0349
      7  O2       -52.9590    8.3810   -9.1030 O.3   513  FUC513     -0.2176
      8  O3       -51.0890    9.0660  -11.2940 O.3   513  FUC513     -0.2175
      9  O4       -50.9010   11.9240  -10.5700 O.3   513  FUC513     -0.2177
     10  O5       -53.7790   11.8670   -9.7190 O.3   513  FUC513     -0.3508
@<TRIPOS>BOND
     1     4     5    1
     2     4     3    1
     3     4     9    1
     4     8     3    1
     5     6     5    1
     6     5    10    1
     7     3     2    1
     8    10     1    1
     9     2     1    1
    10     2     7    1
