@<TRIPOS>MOLECULE
3o8x_GSL_A_1.pdb
 48 48 0 0 0
SMALL
GASTEIGER

@<TRIPOS>ATOM
      1  C17      -44.0810   33.9490   -7.4020 C.3   501  GSL501      0.0000
      2  C16      -45.0660   32.8270   -7.8370 C.3   501  GSL501      0.0000
      3  C15      -44.4330   31.4360   -7.7730 C.3   501  GSL501      0.0000
      4  C14      -45.3930   30.3870   -8.3260 C.3   501  GSL501      0.0000
      5  C13      -44.8570   28.9690   -8.1050 C.3   501  GSL501      0.0000
      6  C12      -45.9690   27.9350   -8.3190 C.3   501  GSL501      0.0000
      7  C11      -45.9030   27.4030   -9.7530 C.3   501  GSL501      0.0000
      8  C10      -46.8920   26.2860  -10.0650 C.3   501  GSL501      0.0000
      9  C9       -47.2480   26.4410  -11.5130 C.3   501  GSL501      0.0000
     10  C8       -48.0160   25.2720  -12.1000 C.3   501  GSL501      0.0000
     11  C7       -48.2520   25.4780  -13.6250 C.3   501  GSL501      0.0000
     12  C6       -49.1720   26.7100  -13.9240 C.3   501  GSL501      0.0000
     13  C5       -49.5210   26.7510  -15.4210 C.3   501  GSL501      0.0001
     14  C4       -50.8440   27.4460  -15.7130 C.3   501  GSL501      0.0027
     15  C3       -51.1610   27.2760  -17.2130 C.3   501  GSL501      0.0348
     16  C2       -52.4000   28.0470  -17.6480 C.3   501  GSL501      0.1743
     17  O        -52.0770   29.4040  -17.6010 O.3   501  GSL501     -0.2212
     18  C1       -52.7360   27.7430  -19.0910 C.3   501  GSL501      0.1550
     19  C        -53.7380   28.7460  -19.6890 C.3   501  GSL501      0.1690
     20  O1       -55.0530   28.5170  -19.2030 O.3   501  GSL501     -0.3266
     21  C29      -56.0720   29.2000  -19.9220 C.3   501  GSL501      0.2699
     22  O3       -56.3820   28.4720  -21.1080 O.3   501  GSL501     -0.3169
     23  C28      -56.6620   27.0510  -21.0290 C.3   501  GSL501      0.2529
     24  C34      -56.8580   26.4260  -22.4380 C.2   501  GSL501      0.3941
     25  O7       -56.8300   27.1870  -23.4130 O.co2 501  GSL501     -0.2429
     26  O6       -57.0590   25.1930  -22.5640 O.co2 501  GSL501     -0.2429
     27  C33      -57.9400   26.9450  -20.2230 C.3   501  GSL501      0.2229
     28  O5       -58.9870   27.4880  -21.0040 O.3   501  GSL501     -0.2171
     29  C32      -57.8130   27.7280  -18.9330 C.3   501  GSL501      0.2203
     30  O4       -59.0660   27.7070  -18.2660 O.3   501  GSL501     -0.2174
     31  C30      -57.3630   29.1790  -19.1310 C.3   501  GSL501      0.2406
     32  O31      -57.1710   29.7740  -17.8530 O.3   501  GSL501     -0.2149
     33  N        -53.2850   26.3910  -19.1570 N.am  501  GSL501     -0.2020
     34  C18      -53.1230   25.6060  -20.2140 C.2   501  GSL501      0.2415
     35  O2       -52.5650   25.9420  -21.2560 O.2   501  GSL501     -0.2733
     36  C19      -53.7850   24.2420  -20.0620 C.3   501  GSL501      0.0868
     37  C20      -52.8080   23.0650  -20.0320 C.3   501  GSL501      0.0096
     38  C21      -51.9700   23.0320  -18.7550 C.3   501  GSL501      0.0005
     39  C22      -50.6920   22.2990  -19.1100 C.3   501  GSL501      0.0000
     40  C23      -49.7390   22.2520  -17.9350 C.3   501  GSL501      0.0000
     41  C24      -49.2580   20.8050  -17.7380 C.3   501  GSL501      0.0000
     42  C25      -47.9790   20.4570  -18.5310 C.3   501  GSL501      0.0000
     43  C26      -47.3700   19.1120  -18.0660 C.3   501  GSL501      0.0000
     44  C27      -48.1670   17.8320  -18.4880 C.3   501  GSL501      0.0000
     45  C38      -47.3710   17.0340  -19.5630 C.3   501  GSL501      0.0000
     46  C37      -47.8080   15.5670  -19.6990 C.3   501  GSL501      0.0000
     47  C36      -47.3990   15.0060  -21.0750 C.3   501  GSL501      0.0000
     48  C35      -48.5350   14.3300  -21.8690 C.3   501  GSL501      0.0000
@<TRIPOS>BOND
     1    25    24   ar
     2    26    24   ar
     3    24    23    1
     4    48    47    1
     5    35    34    2
     6    22    23    1
     7    22    21    1
     8    47    46    1
     9    23    27    1
    10    28    27    1
    11    27    29    1
    12    34    36    1
    13    34    33   am
    14    36    37    1
    15    37    38    1
    16    21    20    1
    17    21    31    1
    18    46    45    1
    19    19    20    1
    20    19    18    1
    21    45    44    1
    22    33    18    1
    23    31    29    1
    24    31    32    1
    25    39    38    1
    26    39    40    1
    27    18    16    1
    28    29    30    1
    29    42    43    1
    30    42    41    1
    31    44    43    1
    32    40    41    1
    33    16    17    1
    34    16    15    1
    35    15    14    1
    36    14    13    1
    37    13    12    1
    38    12    11    1
    39    11    10    1
    40    10     9    1
    41     9     8    1
    42     8     7    1
    43     7     6    1
    44     4     5    1
    45     4     3    1
    46     6     5    1
    47     2     3    1
    48     2     1    1
