@<TRIPOS>MOLECULE
3o95_01T_A_1.pdb
 26 27 0 0 0
SMALL
GASTEIGER

@<TRIPOS>ATOM
      1  C5        16.3760  -35.1240   17.8240 C.2     1  01T1        0.1053
      2  C6        15.5890  -35.9600   18.8110 C.3     1  01T1        0.0586
      3  C7        14.3630  -36.6340   18.1790 C.3     1  01T1        0.0066
      4  C8        14.7360  -37.4110   16.9300 C.3     1  01T1        0.0004
      5  C10       13.8060  -37.6270   19.1850 C.3     1  01T1        0.0004
      6  C15       17.7000  -33.4600   16.0500 C.3     1  01T1        0.0814
      7  C17       19.2310  -31.4100   15.5910 C.2     1  01T1        0.3656
      8  C20       19.4490  -35.2450   15.6700 C.ar    1  01T1       -0.0038
      9  C21       20.6650  -34.6510   16.0060 C.ar    1  01T1       -0.0006
     10  C22       21.8440  -35.1330   15.4530 C.ar    1  01T1       -0.0043
     11  C24       23.0910  -36.7040   13.9690 C.3     1  01T1        0.0310
     12  C26       19.4270  -36.3360   14.7900 C.ar    1  01T1       -0.0006
     13  O19       19.0430  -30.9200   16.7280 O.co2   1  01T1       -0.2456
     14  O18       20.1080  -30.9750   14.8140 O.co2   1  01T1       -0.2456
     15  C16       18.3860  -32.5470   15.0540 C.3     1  01T1        0.1251
     16  C3        16.5290  -33.0540   16.6830 C.2     1  01T1        0.0904
     17  C2        15.8960  -31.7010   16.4480 C.3     1  01T1        0.0547
     18  C1        14.3940  -31.8090   16.6390 C.3     1  01T1        0.0075
     19  N4        15.9190  -33.8900   17.5520 N.2     1  01T1       -0.4148
     20  C9        13.2610  -35.6570   17.8000 C.3     1  01T1        0.0004
     21  C11       17.5330  -35.5690   17.2080 C.2     1  01T1        0.0186
     22  C12       18.0690  -36.9520   17.5270 C.3     1  01T1        0.1375
     23  N13       19.3940  -36.8510   18.1140 N.3     1  01T1       -0.1261
     24  C14       18.1930  -34.7390   16.3030 C.2     1  01T1       -0.0160
     25  C25       20.6030  -36.8170   14.2330 C.ar    1  01T1       -0.0043
     26  C23       21.8090  -36.2050   14.5690 C.ar    1  01T1       -0.0218
@<TRIPOS>BOND
     1    11    26    1
     2    25    26   ar
     3    25    12   ar
     4    26    10   ar
     5    12     8   ar
     6    14     7   ar
     7    15     7    1
     8    15     6    1
     9    10     9   ar
    10     7    13   ar
    11     8     9   ar
    12     8    24    1
    13     6    24    1
    14     6    16    1
    15    24    21    2
    16    17    18    1
    17    17    16    1
    18    16    19    2
    19     4     3    1
    20    21    22    1
    21    21     1    1
    22    22    23    1
    23    19     1    2
    24    20     3    1
    25     1     2    1
    26     3     2    1
    27     3     5    1
