@<TRIPOS>MOLECULE
3o96_IQO_A_1.pdb
 42 49 0 0 0
SMALL
GASTEIGER

@<TRIPOS>ATOM
      1  C4        11.1380  -13.3890   15.8190 C.2   444  IQO444      0.0893
      2  C6        11.9850  -15.6470   15.8020 C.3   444  IQO444      0.0873
      3  C7        13.2940  -15.1870   16.1700 C.2   444  IQO444     -0.0185
      4  C8        13.5130  -13.7950   16.3620 C.2   444  IQO444     -0.0028
      5  C13        9.8110  -11.2380   15.7140 C.3   444  IQO444      0.0926
      6  C15        8.6110   -9.3000   16.7700 C.3   444  IQO444      0.0741
      7  C17        8.2400   -6.2780   14.4700 C.ar  444  IQO444     -0.0061
      8  C20        7.5700   -4.7750   12.2140 C.ar  444  IQO444      0.0321
      9  C21        8.7970   -4.5780   12.8750 C.ar  444  IQO444      0.0023
     10  C22        9.1170   -5.3210   13.9850 C.ar  444  IQO444     -0.0028
     11  C24        7.1680   -2.4950   11.1050 C.2   444  IQO444      0.1604
     12  C28        6.5400   -4.5740    7.5480 C.3   444  IQO444      0.1078
     13  C1         8.9770  -13.6480   15.2640 C.1   444  IQO444      0.2721
     14  N2         9.5830  -14.9000   15.2860 N.2   444  IQO444     -0.3238
     15  C3        10.9270  -14.6950   15.6370 C.2   444  IQO444      0.1416
     16  N5         9.9490  -12.6980   15.5980 N.am  444  IQO444     -0.2054
     17  C9        12.4270  -12.8850   16.1870 C.2   444  IQO444      0.0175
     18  O10        7.7930  -13.4170   14.9990 O.2   444  IQO444     -0.1926
     19  C11        9.7930   -8.9450   14.5800 C.3   444  IQO444      0.0741
     20  C12        9.8690  -10.4850   14.3770 C.3   444  IQO444      0.0383
     21  C14        8.6200  -10.8110   16.5530 C.3   444  IQO444      0.0383
     22  C16        8.6050   -7.0770   15.7110 C.3   444  IQO444      0.0991
     23  C18        7.0000   -6.4960   13.8180 C.ar  444  IQO444     -0.0028
     24  C19        6.6700   -5.7420   12.6900 C.ar  444  IQO444      0.0023
     25  N23        6.8810   -1.8030    9.9760 N.2   444  IQO444     -0.4010
     26  C25        7.2500   -3.9930   11.0540 C.2   444  IQO444      0.1604
     27  N26        7.0380   -4.6360    9.8830 N.2   444  IQO444     -0.4010
     28  C27        6.7560   -3.9060    8.7750 C.2   444  IQO444      0.1406
     29  C29        6.2560   -3.8230    6.3990 C.2   444  IQO444      0.0766
     30  C30        6.1790   -2.4760    6.4370 C.2   444  IQO444      0.0766
     31  C31        6.3870   -1.7720    7.6460 C.3   444  IQO444      0.1078
     32  C32        6.6780   -2.4870    8.8210 C.2   444  IQO444      0.1406
     33  C33        5.8010   -3.0280    4.4380 C.3   444  IQO444      0.2502
     34  N34        6.0080   -4.1850    5.0890 N.2   444  IQO444     -0.2471
     35  N35        5.8890   -1.9260    5.1950 N.2   444  IQO444     -0.2471
     36  C36        7.4060   -1.7270   12.3670 C.ar  444  IQO444      0.0321
     37  C37        8.3420   -0.6140   12.3660 C.ar  444  IQO444      0.0026
     38  C38        8.5750    0.1240   13.5570 C.ar  444  IQO444      0.0001
     39  C39        7.8920   -0.2230   14.7590 C.ar  444  IQO444      0.0000
     40  C40        6.9580   -1.3280   14.7720 C.ar  444  IQO444      0.0001
     41  C41        6.7160   -2.0740   13.5840 C.ar  444  IQO444      0.0026
     42  N42        8.6610   -8.5360   15.4810 N.3   444  IQO444     -0.2688
@<TRIPOS>BOND
     1    33    34    1
     2    33    35    1
     3    34    29    2
     4    35    30    2
     5    29    30    1
     6    29    12    1
     7    30    31    1
     8    12    28    1
     9    31    32    1
    10    28    32    1
    11    28    27    2
    12    32    25    2
    13    27    26    2
    14    25    11    2
    15    26    11    1
    16    26     8    1
    17    11    36    1
    18     8    24   ar
    19     8     9   ar
    20    37    36   ar
    21    37    38   ar
    22    36    41   ar
    23    24    23   ar
    24     9    10   ar
    25    38    39   ar
    26    41    40   ar
    27    23     7   ar
    28    10     7   ar
    29    20    19    1
    30    20     5    1
    31     7    22    1
    32    19    42    1
    33    39    40   ar
    34    18    13    2
    35    13    14    2
    36    13    16   am
    37    14    15    2
    38    42    22    1
    39    42     6    1
    40    16     5    1
    41    16     1    1
    42    15     2    1
    43    15     1    1
    44     5    21    1
    45     2     3    1
    46     1    17    2
    47     3     4    2
    48    17     4    1
    49    21     6    1
