@<TRIPOS>MOLECULE
3o97_IAC_A_1.pdb
 13 14 0 0 0
SMALL
GASTEIGER

@<TRIPOS>ATOM
      1  C         10.8560   16.6940   16.5430 C.2   1001  IAC1001     0.0804
      2  C1        11.1800   15.4060   15.8720 C.2   1001  IAC1001     0.0118
      3  C2        10.1760   14.7370   15.1670 C.2   1001  IAC1001    -0.0202
      4  C3         8.8970   15.3020   15.1070 C.3   1001  IAC1001     0.0521
      5  C4         8.6010   16.5180   15.7380 C.2   1001  IAC1001    -0.0199
      6  C5         9.5720   17.2110   16.4530 C.2   1001  IAC1001     0.0148
      7  C7        12.6330   15.1710   16.1580 C.2   1001  IAC1001     0.0094
      8  C8        12.9980   16.3480   16.9790 C.2   1001  IAC1001     0.0951
      9  C17       13.4750   13.9460   15.8940 C.3   1001  IAC1001     0.1419
     10  C18       14.4460   13.9560   14.7430 C.2   1001  IAC1001     0.3693
     11  N         11.9510   17.1660   17.1520 N.2   1001  IAC1001    -0.2442
     12  O2        14.5410   12.9260   14.0350 O.co2 1001  IAC1001    -0.2453
     13  O3        15.1560   14.9710   14.5730 O.co2 1001  IAC1001    -0.2453
@<TRIPOS>BOND
     1    12    10   ar
     2    13    10   ar
     3    10     9    1
     4     4     3    1
     5     4     5    1
     6     3     2    2
     7     5     6    2
     8     2     7    1
     9     2     1    1
    10     9     7    1
    11     7     8    2
    12     6     1    1
    13     1    11    2
    14     8    11    1
