@<TRIPOS>MOLECULE
3o98_ADP_A_1.pdb
 27 29 0 0 0
SMALL
GASTEIGER

@<TRIPOS>ATOM
      1  PB         0.2210   17.6320   -2.6850 P.3   3001  ADP3001     0.5373
      2  O1B        0.0430   19.0880   -2.6850 O.3   3001  ADP3001    -0.1143
      3  O2B       -0.5560   16.9450   -1.5980 O.3   3001  ADP3001    -0.1143
      4  O3B       -0.0360   16.9950   -4.0960 O.2   3001  ADP3001    -0.2221
      5  PA         2.9370   16.7240   -3.1370 P.3   3001  ADP3001     0.2231
      6  O1A        4.0230   16.3120   -2.2010 O.3   3001  ADP3001    -0.4370
      7  O2A        2.3710   15.6160   -4.0080 O.2   3001  ADP3001    -0.5169
      8  O3A        1.7780   17.4240   -2.3150 O.3   3001  ADP3001    -0.2261
      9  O5'        3.5710   17.9350   -3.9190 O.3   3001  ADP3001    -0.3111
     10  C5'        2.8970   18.5070   -5.0900 C.3   3001  ADP3001     0.1813
     11  C4'        3.6970   18.3310   -6.3880 C.3   3001  ADP3001     0.1821
     12  O4'        4.9320   19.0820   -6.2370 O.3   3001  ADP3001    -0.3135
     13  C3'        4.1610   16.8960   -6.7000 C.3   3001  ADP3001     0.2184
     14  O3'        3.1230   16.2470   -7.4590 O.3   3001  ADP3001    -0.2174
     15  C2'        5.4710   17.1380   -7.4280 C.3   3001  ADP3001     0.2570
     16  O2'        5.2590   17.3290   -8.8200 O.3   3001  ADP3001    -0.2130
     17  C1'        6.0450   18.4340   -6.8190 C.3   3001  ADP3001     0.3186
     18  N9         7.0780   18.1650   -5.7320 N.pl3 3001  ADP3001    -0.1439
     19  C8         6.8440   17.8390   -4.4300 C.3   3001  ADP3001     0.3377
     20  N7         7.9660   17.6660   -3.7030 N.2   3001  ADP3001    -0.2095
     21  C5         8.9510   17.8930   -4.6030 C.2   3001  ADP3001     0.2526
     22  C6        10.4070   17.8840   -4.4440 C.2   3001  ADP3001     0.4393
     23  N6        11.0440   17.6090   -3.3550 N.pl3 3001  ADP3001     0.2180
     24  N1        11.1110   18.1830   -5.6200 N.2   3001  ADP3001     0.0021
     25  C2        10.4690   18.4820   -6.8200 C.3   3001  ADP3001     0.5254
     26  N3         9.1300   18.4960   -6.9740 N.2   3001  ADP3001    -0.0055
     27  C4         8.4230   18.2220   -5.8610 C.2   3001  ADP3001     0.3518
@<TRIPOS>BOND
     1    16    15    1
     2    14    13    1
     3    15    17    1
     4    15    13    1
     5    26    25    1
     6    26    27    2
     7    25    24    1
     8    17    12    1
     9    17    18    1
    10    13    11    1
    11    11    12    1
    12    11    10    1
    13    27    18    1
    14    27    21    1
    15    18    19    1
    16    24    22    2
    17    10     9    1
    18    21    22    1
    19    21    20    2
    20    22    23    1
    21    19    20    1
    22     4     1    2
    23     7     5    2
    24     9     5    1
    25     5     8    1
    26     5     6    1
    27     2     1    1
    28     1     8    1
    29     1     3    1
