@<TRIPOS>MOLECULE
3o98_TS5_A_1.pdb
 29 28 0 0 0
SMALL
GASTEIGER

@<TRIPOS>ATOM
      1  N1         1.3880  -12.3410   -1.1820 N.3   620  TS5620     -0.1208
      2  CA1        0.9950  -13.1980    0.0280 C.3   620  TS5620      0.1948
      3  C1         1.5120  -12.6940    1.3230 C.2   620  TS5620      0.3819
      4  OE1        2.0460  -11.5780    1.2870 O.co2 620  TS5620     -0.2441
      5  OE2        1.7010  -13.5140    2.4290 O.co2 620  TS5620     -0.2441
      6  CB1        1.5370  -14.5850    0.0100 C.3   620  TS5620      0.0402
      7  CG1        1.3350  -14.9770   -1.4420 C.3   620  TS5620      0.0889
      8  CD1        1.7840  -16.3380   -1.7810 C.2   620  TS5620      0.2418
      9  O1         1.6500  -17.3810   -0.9650 O.2   620  TS5620     -0.2733
     10  N2         2.7490  -16.5090   -2.8890 N.am  620  TS5620     -0.1968
     11  CA2        3.2810  -17.7710   -3.5850 C.3   620  TS5620      0.1843
     12  C2         4.3540  -18.4950   -3.0990 C.2   620  TS5620      0.2626
     13  O2         5.4000  -17.8090   -3.1170 O.2   620  TS5620     -0.2714
     14  CB2        2.5500  -17.6260   -4.7660 C.3   620  TS5620      0.0997
     15  SG2        0.6880  -17.5390   -5.0530 S.3   620  TS5620     -0.0797
     16  N3         4.3110  -19.9160   -3.0630 N.am  620  TS5620     -0.1940
     17  CA3        5.0990  -20.7200   -1.9740 C.3   620  TS5620      0.2014
     18  C3         5.1090  -22.1270   -2.3310 C.2   620  TS5620      0.2635
     19  O3         3.8900  -22.5960   -2.6830 O.2   620  TS5620     -0.2714
     20  N1'        6.4920  -22.8990   -2.6010 N.am  620  TS5620     -0.2039
     21  C1'        6.0950  -23.9790   -3.4340 C.3   620  TS5620      0.1167
     22  C2'        5.0540  -24.8300   -3.6040 C.3   620  TS5620      0.0422
     23  N2'        3.7270  -26.0840   -5.2780 N.3   620  TS5620     -0.2180
     24  C3'        5.2450  -25.6220   -5.0210 C.3   620  TS5620      0.0905
     25  C4'        3.5440  -26.2330   -6.7390 C.3   620  TS5620      0.0887
     26  C5'        2.1620  -26.8260   -6.9600 C.3   620  TS5620      0.0203
     27  C6'        2.0220  -27.0290   -8.5190 C.3   620  TS5620      0.0220
     28  C7'        0.5860  -27.6930   -8.6780 C.3   620  TS5620      0.1094
     29  N3'        0.4410  -27.8700  -10.2230 N.3   620  TS5620     -0.1314
@<TRIPOS>BOND
     1    29    28    1
     2    28    27    1
     3    27    26    1
     4    26    25    1
     5    25    23    1
     6    23    24    1
     7    15    14    1
     8    24    22    1
     9    14    11    1
    10    22    21    1
    11    11    12    1
    12    11    10    1
    13    21    20    1
    14    13    12    2
    15    12    16   am
    16    16    17    1
    17    10     8   am
    18    19    18    2
    19    20    18   am
    20    18    17    1
    21     8     7    1
    22     8     9    2
    23     7     6    1
    24     1     2    1
    25     6     2    1
    26     2     3    1
    27     4     3   ar
    28     3     5   ar
