@<TRIPOS>MOLECULE
3o99_K13_A_1.pdb
 39 42 0 0 0
SMALL
GASTEIGER

@<TRIPOS>ATOM
      1  N1        14.2900   34.9560   18.1170 N.pl3 200  K13200     -0.1281
      2  C2        15.1850   34.3770   17.2940 C.ar  200  K13200      0.0892
      3  C3        16.2760   35.0950   16.7970 C.ar  200  K13200      0.0194
      4  C4        17.1690   34.4450   15.9350 C.ar  200  K13200      0.0213
      5  C5        16.9870   33.1050   15.5770 C.ar  200  K13200      0.1223
      6  C6        15.8960   32.4230   16.0900 C.ar  200  K13200      0.0213
      7  C7        14.9950   33.0570   16.9390 C.ar  200  K13200      0.0194
      8  S8        18.0160   32.3170   14.6060 S.O2  200  K13200      0.0634
      9  O9        17.3560   31.2410   13.9410 O.2   200  K13200     -0.1528
     10  O10       18.5970   33.2130   13.6530 O.2   200  K13200     -0.1528
     11  N11       19.2770   31.7200   15.4300 N.3   200  K13200     -0.1529
     12  C12       19.9720   32.7460   16.2460 C.3   200  K13200      0.0958
     13  C13       21.4690   32.4510   16.3100 C.3   200  K13200      0.0178
     14  C14       22.1470   32.4360   14.9330 C.3   200  K13200      0.0015
     15  C15       22.1430   33.4300   17.2830 C.3   200  K13200      0.0014
     16  C16       18.9850   30.4770   16.1570 C.3   200  K13200      0.1304
     17  C17       19.9100   29.3860   15.6070 C.3   200  K13200      0.1898
     18  C18       22.1510   34.8520   16.7800 C.3   200  K13200      0.0000
     19  O18       19.8660   28.2590   16.4930 O.3   200  K13200     -0.2197
     20  C19       19.5700   28.9530   14.1740 C.3   200  K13200      0.1347
     21  N20       20.6780   28.1510   13.7030 N.am  200  K13200     -0.1675
     22  C21       21.5550   28.5010   12.7730 C.2   200  K13200      0.4211
     23  O22       21.5970   29.5460   12.1620 O.2   200  K13200     -0.2246
     24  O23       22.5340   27.4800   12.5300 O.3   200  K13200     -0.4345
     25  C24       23.3880   27.5350   11.4060 C.3   200  K13200      0.2048
     26  C25       24.6900   26.9110   11.8740 C.3   200  K13200      0.1884
     27  O26       24.5150   25.5030   11.6570 O.3   200  K13200     -0.3265
     28  C27       23.5510   25.2830   10.6260 C.3   200  K13200      0.2388
     29  O28       22.4990   24.4350   11.0710 O.3   200  K13200     -0.3304
     30  C29       21.2500   25.1230   11.1120 C.3   200  K13200      0.1451
     31  C30       21.4290   26.3300   10.2060 C.3   200  K13200      0.0409
     32  C31       22.9180   26.6200   10.2920 C.3   200  K13200      0.1016
     33  C32       18.2670   28.1530   14.0400 C.3   200  K13200      0.0508
     34  C33       18.1720   26.4220   12.1900 C.ar  200  K13200     -0.0042
     35  C34       17.9980   26.0690   10.8630 C.ar  200  K13200     -0.0003
     36  C35       17.6470   27.0140    9.9130 C.ar  200  K13200     -0.0000
     37  C36       17.5150   28.3280   10.3130 C.ar  200  K13200     -0.0003
     38  C37       17.6940   28.6800   11.6430 C.ar  200  K13200     -0.0042
     39  C38       18.0380   27.7420   12.5950 C.ar  200  K13200     -0.0204
@<TRIPOS>BOND
     1    36    37   ar
     2    36    35   ar
     3    31    32    1
     4    31    30    1
     5    32    28    1
     6    32    25    1
     7    37    38   ar
     8    28    29    1
     9    28    27    1
    10    35    34   ar
    11    29    30    1
    12    25    26    1
    13    25    24    1
    14    38    39   ar
    15    27    26    1
    16    23    22    2
    17    34    39   ar
    18    24    22    1
    19    39    33    1
    20    22    21   am
    21    10     8    2
    22    21    20    1
    23     9     8    2
    24    33    20    1
    25    20    17    1
    26     8    11    1
    27     8     5    1
    28    14    13    1
    29    11    16    1
    30    11    12    1
    31     5     4   ar
    32     5     6   ar
    33    17    16    1
    34    17    19    1
    35     4     3   ar
    36     6     7   ar
    37    12    13    1
    38    13    15    1
    39    18    15    1
    40     3     2   ar
    41     7     2   ar
    42     2     1    1
