@<TRIPOS>MOLECULE
3o9a_K14_A_1.pdb
 40 43 0 0 0
SMALL
GASTEIGER

@<TRIPOS>ATOM
      1  C1        15.2640   36.8980   18.8620 C.3   200  K14200      0.2525
      2  O1        14.9130   35.5430   18.5380 O.3   200  K14200     -0.4714
      3  C2        15.6430   34.7940   17.6380 C.ar  200  K14200      0.1388
      4  C3        16.6690   35.3650   16.8740 C.ar  200  K14200      0.0383
      5  C4        17.4010   34.5810   15.9790 C.ar  200  K14200      0.0230
      6  C5        17.1500   33.2230   15.8090 C.ar  200  K14200      0.1224
      7  C6        16.1150   32.6610   16.5710 C.ar  200  K14200      0.0230
      8  C7        15.3780   33.4320   17.4870 C.ar  200  K14200      0.0383
      9  S8        18.0510   32.3340   14.7750 S.O2  200  K14200      0.0634
     10  O9        17.2730   31.2520   14.2660 O.2   200  K14200     -0.1528
     11  O10       18.5690   33.1480   13.6970 O.2   200  K14200     -0.1528
     12  N11       19.3640   31.7370   15.5100 N.3   200  K14200     -0.1529
     13  C12       20.0780   32.7780   16.2950 C.3   200  K14200      0.0958
     14  C13       21.5800   32.4850   16.3810 C.3   200  K14200      0.0178
     15  C14       22.2640   32.3920   15.0110 C.3   200  K14200      0.0015
     16  C15       22.2460   33.5250   17.2850 C.3   200  K14200      0.0014
     17  C16       19.0910   30.5110   16.2930 C.3   200  K14200      0.1304
     18  C17       19.9380   29.3640   15.7330 C.3   200  K14200      0.1898
     19  C18       22.1360   34.9420   16.7850 C.3   200  K14200      0.0000
     20  O18       19.8840   28.2340   16.6120 O.3   200  K14200     -0.2197
     21  C19       19.5400   28.9130   14.3330 C.3   200  K14200      0.1347
     22  N20       20.6230   28.1000   13.8510 N.am  200  K14200     -0.1675
     23  C21       21.4740   28.4390   12.8860 C.2   200  K14200      0.4211
     24  O22       21.5030   29.4720   12.2360 O.2   200  K14200     -0.2246
     25  O23       22.4340   27.4000   12.6390 O.3   200  K14200     -0.4345
     26  C24       23.2840   27.5150   11.5100 C.3   200  K14200      0.2048
     27  C25       24.6090   26.9590   11.9810 C.3   200  K14200      0.1884
     28  O26       24.4480   25.5390   11.8700 O.3   200  K14200     -0.3265
     29  C27       23.5370   25.2630   10.8020 C.3   200  K14200      0.2388
     30  O28       22.5090   24.3610   11.2120 O.3   200  K14200     -0.3304
     31  C29       21.2220   25.0020   11.1960 C.3   200  K14200      0.1451
     32  C30       21.3860   26.2250   10.3070 C.3   200  K14200      0.0409
     33  C31       22.8660   26.5640   10.4090 C.3   200  K14200      0.1016
     34  C32       18.2250   28.1220   14.2440 C.3   200  K14200      0.0508
     35  C33       18.1390   26.4190   12.3770 C.ar  200  K14200     -0.0042
     36  C34       17.9430   26.0680   11.0550 C.ar  200  K14200     -0.0003
     37  C35       17.5910   27.0290   10.1290 C.ar  200  K14200     -0.0000
     38  C36       17.4440   28.3460   10.5230 C.ar  200  K14200     -0.0003
     39  C37       17.6280   28.6950   11.8560 C.ar  200  K14200     -0.0042
     40  C38       17.9870   27.7390   12.7890 C.ar  200  K14200     -0.0204
@<TRIPOS>BOND
     1    37    38   ar
     2    37    36   ar
     3    32    33    1
     4    32    31    1
     5    33    29    1
     6    33    26    1
     7    38    39   ar
     8    29    30    1
     9    29    28    1
    10    36    35   ar
    11    31    30    1
    12    26    27    1
    13    26    25    1
    14    39    40   ar
    15    28    27    1
    16    24    23    2
    17    35    40   ar
    18    25    23    1
    19    40    34    1
    20    23    22   am
    21    11     9    2
    22    22    21    1
    23    34    21    1
    24    10     9    2
    25    21    18    1
    26     9    12    1
    27     9     6    1
    28    15    14    1
    29    12    17    1
    30    12    13    1
    31    18    17    1
    32    18    20    1
    33     6     5   ar
    34     6     7   ar
    35     5     4   ar
    36    13    14    1
    37    14    16    1
    38     7     8   ar
    39    19    16    1
    40     4     3   ar
    41     8     3   ar
    42     3     2    1
    43     2     1    1
