@<TRIPOS>MOLECULE
3o9b_K2A_A_1.pdb
 40 43 0 0 0
SMALL
GASTEIGER

@<TRIPOS>ATOM
      1  C1        14.4380   35.8720   18.1600 C.3   200  K2A200      0.2086
      2  O1        14.8780   35.8530   19.5200 O.3   200  K2A200     -0.2152
      3  C2        15.3400   34.9860   17.3250 C.ar  200  K2A200      0.0107
      4  C3        15.1730   33.6060   17.2980 C.ar  200  K2A200     -0.0004
      5  C4        16.0200   32.8070   16.5100 C.ar  200  K2A200      0.0197
      6  C5        17.0480   33.3780   15.7560 C.ar  200  K2A200      0.1222
      7  C6        17.2020   34.7690   15.8050 C.ar  200  K2A200      0.0197
      8  C7        16.3580   35.5640   16.5770 C.ar  200  K2A200     -0.0004
      9  S8        18.0590   32.4580   14.8510 S.O2  200  K2A200      0.0634
     10  O9        18.7050   33.2860   13.8770 O.2   200  K2A200     -0.1528
     11  O10       17.3100   31.3870   14.2920 O.2   200  K2A200     -0.1528
     12  N11       19.2950   31.8410   15.7160 N.3   200  K2A200     -0.1529
     13  C12       20.0050   32.8810   16.5120 C.3   200  K2A200      0.0958
     14  C13       21.5080   32.6080   16.5480 C.3   200  K2A200      0.0178
     15  C14       22.1360   32.5700   15.1530 C.3   200  K2A200      0.0015
     16  C15       22.1890   33.6270   17.4650 C.3   200  K2A200      0.0014
     17  C16       18.9830   30.5720   16.4190 C.3   200  K2A200      0.1304
     18  C17       19.9020   29.4720   15.8520 C.3   200  K2A200      0.1898
     19  C18       22.0610   35.0490   16.9680 C.3   200  K2A200      0.0000
     20  O18       19.8240   28.3060   16.6990 O.3   200  K2A200     -0.2197
     21  C19       19.5720   29.0820   14.4110 C.3   200  K2A200      0.1347
     22  N20       20.6510   28.2500   13.9230 N.am  200  K2A200     -0.1675
     23  C21       21.5330   28.6230   13.0110 C.2   200  K2A200      0.4211
     24  O22       21.6000   29.6810   12.4120 O.2   200  K2A200     -0.2246
     25  O23       22.5140   27.6090   12.7640 O.3   200  K2A200     -0.4345
     26  C24       23.3400   27.7570   11.6190 C.3   200  K2A200      0.2048
     27  C25       24.6600   27.1610   12.0530 C.3   200  K2A200      0.1884
     28  O26       24.4580   25.7540   11.8940 O.3   200  K2A200     -0.3265
     29  C27       23.5610   25.5260   10.8110 C.3   200  K2A200      0.2388
     30  O28       22.5520   24.5950   11.1860 O.3   200  K2A200     -0.3304
     31  C29       21.2730   25.2420   11.2340 C.3   200  K2A200      0.1451
     32  C30       21.3980   26.5350   10.4380 C.3   200  K2A200      0.0409
     33  C31       22.8850   26.8470   10.5100 C.3   200  K2A200      0.1016
     34  C32       18.2660   28.2930   14.2550 C.3   200  K2A200      0.0508
     35  C33       17.7190   28.8950   11.8580 C.ar  200  K2A200     -0.0042
     36  C34       17.5150   28.5510   10.5250 C.ar  200  K2A200     -0.0003
     37  C35       17.5970   27.2270   10.1230 C.ar  200  K2A200     -0.0000
     38  C36       17.8940   26.2620   11.0550 C.ar  200  K2A200     -0.0003
     39  C37       18.1060   26.5940   12.3890 C.ar  200  K2A200     -0.0042
     40  C38       18.0280   27.9170   12.8070 C.ar  200  K2A200     -0.0204
@<TRIPOS>BOND
     1    37    36   ar
     2    37    38   ar
     3    32    33    1
     4    32    31    1
     5    33    29    1
     6    33    26    1
     7    36    35   ar
     8    29    30    1
     9    29    28    1
    10    38    39   ar
    11    30    31    1
    12    26    27    1
    13    26    25    1
    14    35    40   ar
    15    28    27    1
    16    39    40   ar
    17    24    23    2
    18    25    23    1
    19    40    34    1
    20    23    22   am
    21    10     9    2
    22    22    21    1
    23    34    21    1
    24    11     9    2
    25    21    18    1
    26     9    12    1
    27     9     6    1
    28    15    14    1
    29    12    17    1
    30    12    13    1
    31     6     7   ar
    32     6     5   ar
    33     7     8   ar
    34    18    17    1
    35    18    20    1
    36     5     4   ar
    37    13    14    1
    38    14    16    1
    39     8     3   ar
    40    19    16    1
    41     4     3   ar
    42     3     1    1
    43     1     2    1
