@<TRIPOS>MOLECULE
3o9c_K20_A_1.pdb
 41 45 0 0 0
SMALL
GASTEIGER

@<TRIPOS>ATOM
      1  C1        15.6860   36.7420   18.4310 C.3   200  K20200      0.4294
      2  O1        15.0120   35.4700   18.5970 O.3   200  K20200     -0.4346
      3  C2        15.6050   34.5810   17.7220 C.ar  200  K20200      0.1765
      4  O2        16.6340   36.5460   17.3740 O.3   200  K20200     -0.4346
      5  C3        16.5950   35.2180   17.0020 C.ar  200  K20200      0.1778
      6  C4        17.3370   34.5430   16.0350 C.ar  200  K20200      0.0601
      7  C5        17.1220   33.1740   15.8070 C.ar  200  K20200      0.1254
      8  C6        16.1140   32.5460   16.5500 C.ar  200  K20200      0.0232
      9  C7        15.3500   33.2310   17.5120 C.ar  200  K20200      0.0416
     10  S8        18.0290   32.3410   14.7480 S.O2  200  K20200      0.0635
     11  O9        17.3140   31.2170   14.2430 O.2   200  K20200     -0.1528
     12  O10       18.5200   33.2070   13.6830 O.2   200  K20200     -0.1528
     13  N11       19.3370   31.7340   15.4920 N.3   200  K20200     -0.1529
     14  C12       20.1080   32.7450   16.2580 C.3   200  K20200      0.0958
     15  C13       21.6060   32.4410   16.3620 C.3   200  K20200      0.0178
     16  C14       22.3340   32.4190   15.0120 C.3   200  K20200      0.0015
     17  C15       22.2570   33.4460   17.3190 C.3   200  K20200      0.0014
     18  C16       19.0540   30.5120   16.2740 C.3   200  K20200      0.1304
     19  C17       19.9560   29.3810   15.7650 C.3   200  K20200      0.1898
     20  C18       22.0590   34.8880   16.9170 C.3   200  K20200      0.0000
     21  O18       19.9420   28.2620   16.6590 O.3   200  K20200     -0.2197
     22  C19       19.5790   28.9150   14.3640 C.3   200  K20200      0.1347
     23  N20       20.6490   28.0800   13.8710 N.am  200  K20200     -0.1675
     24  C21       21.4910   28.4340   12.9130 C.2   200  K20200      0.4211
     25  O22       21.5540   29.4800   12.2750 O.2   200  K20200     -0.2246
     26  O23       22.4540   27.4050   12.6720 O.3   200  K20200     -0.4345
     27  C24       23.2520   27.5490   11.5030 C.3   200  K20200      0.2048
     28  C25       24.5770   26.9610   11.9210 C.3   200  K20200      0.1884
     29  O26       24.3060   25.5610   11.8970 O.3   200  K20200     -0.3265
     30  C27       23.4600   25.2900   10.7860 C.3   200  K20200      0.2388
     31  O28       22.4810   24.3360   11.1700 O.3   200  K20200     -0.3304
     32  C29       21.2020   24.9680   11.2500 C.3   200  K20200      0.1451
     33  C30       21.3050   26.2320   10.3990 C.3   200  K20200      0.0409
     34  C31       22.7810   26.5960   10.4180 C.3   200  K20200      0.1016
     35  C32       18.2720   28.1290   14.2720 C.3   200  K20200      0.0508
     36  C33       18.1060   26.3830   12.4390 C.ar  200  K20200     -0.0042
     37  C34       17.8720   26.0170   11.1200 C.ar  200  K20200     -0.0003
     38  C35       17.5120   26.9650   10.1800 C.ar  200  K20200     -0.0000
     39  C36       17.4180   28.2930   10.5560 C.ar  200  K20200     -0.0003
     40  C37       17.6510   28.6580   11.8820 C.ar  200  K20200     -0.0042
     41  C38       18.0000   27.7140   12.8360 C.ar  200  K20200     -0.0204
@<TRIPOS>BOND
     1    38    39   ar
     2    38    37   ar
     3    33    34    1
     4    33    32    1
     5    34    30    1
     6    34    27    1
     7    39    40   ar
     8    30    31    1
     9    30    29    1
    10    37    36   ar
    11    31    32    1
    12    27    28    1
    13    27    26    1
    14    40    41   ar
    15    29    28    1
    16    25    24    2
    17    36    41   ar
    18    26    24    1
    19    41    35    1
    20    24    23   am
    21    12    10    2
    22    23    22    1
    23    11    10    2
    24    35    22    1
    25    22    19    1
    26    10    13    1
    27    10     7    1
    28    16    15    1
    29    13    14    1
    30    13    18    1
    31    19    18    1
    32    19    21    1
    33     7     6   ar
    34     7     8   ar
    35     6     5   ar
    36    14    15    1
    37    15    17    1
    38     8     9   ar
    39    20    17    1
    40     5     4    1
    41     5     3   ar
    42     4     1    1
    43     9     3   ar
    44     3     2    1
    45     1     2    1
