@<TRIPOS>MOLECULE
3o9d_K19_A_1.pdb
 41 45 0 0 0
SMALL
GASTEIGER

@<TRIPOS>ATOM
      1  C1        15.4230   36.5910   18.5040 C.3   200  K19200      0.1873
      2  N1        14.9650   35.3250   18.5930 N.2   200  K19200     -0.2576
      3  S1        16.6670   36.8450   17.3180 S.3   200  K19200     -0.0861
      4  C2        15.5860   34.4770   17.7090 C.2   200  K19200      0.0822
      5  C3        16.5510   35.1650   16.9660 C.2   200  K19200      0.0420
      6  C4        17.3010   34.4470   15.9980 C.2   200  K19200      0.0107
      7  C5        17.1400   33.0660   15.7560 C.3   200  K19200      0.1903
      8  C6        16.1580   32.4210   16.5200 C.2   200  K19200      0.0046
      9  C7        15.4000   33.1190   17.4800 C.2   200  K19200      0.0167
     10  S8        18.0450   32.1760   14.7100 S.O2  200  K19200      0.0500
     11  O9        18.5810   33.0370   13.6850 O.2   200  K19200     -0.1567
     12  O10       17.2750   31.0920   14.1970 O.2   200  K19200     -0.1567
     13  N11       19.3380   31.5720   15.4780 N.3   200  K19200     -0.1562
     14  C12       20.0850   32.5990   16.2530 C.3   200  K19200      0.0955
     15  C13       21.5850   32.3130   16.2950 C.3   200  K19200      0.0177
     16  C14       22.2520   32.2240   14.9210 C.3   200  K19200      0.0015
     17  C15       22.2790   33.3600   17.1790 C.3   200  K19200      0.0014
     18  C16       19.0480   30.3530   16.2500 C.3   200  K19200      0.1300
     19  C17       19.9220   29.2230   15.7060 C.3   200  K19200      0.1898
     20  C18       22.1480   34.7680   16.6620 C.3   200  K19200      0.0000
     21  O18       19.8890   28.0940   16.5910 O.3   200  K19200     -0.2197
     22  C19       19.5400   28.7640   14.3060 C.3   200  K19200      0.1347
     23  N20       20.6410   27.9570   13.8350 N.am  200  K19200     -0.1675
     24  C21       21.4870   28.3090   12.8780 C.2   200  K19200      0.4211
     25  O22       21.5370   29.3390   12.2230 O.2   200  K19200     -0.2246
     26  O23       22.4430   27.2710   12.6300 O.3   200  K19200     -0.4345
     27  C24       23.2910   27.3900   11.4990 C.3   200  K19200      0.2048
     28  C25       24.6060   26.7870   11.9600 C.3   200  K19200      0.1884
     29  O26       24.3880   25.3850   11.8250 O.3   200  K19200     -0.3265
     30  C27       23.5020   25.1410   10.7440 C.3   200  K19200      0.2388
     31  O28       22.5060   24.2330   11.1720 O.3   200  K19200     -0.3304
     32  C29       21.2210   24.8640   11.2200 C.3   200  K19200      0.1451
     33  C30       21.3530   26.1120   10.3620 C.3   200  K19200      0.0409
     34  C31       22.8300   26.4570   10.3990 C.3   200  K19200      0.1016
     35  C32       18.2540   27.9490   14.1900 C.3   200  K19200      0.0508
     36  C33       17.6740   28.5440   11.8030 C.ar  200  K19200     -0.0042
     37  C34       17.4470   28.1940   10.4720 C.ar  200  K19200     -0.0003
     38  C35       17.5270   26.8780   10.0750 C.ar  200  K19200     -0.0000
     39  C36       17.8370   25.8960   10.9980 C.ar  200  K19200     -0.0003
     40  C37       18.0700   26.2470   12.3170 C.ar  200  K19200     -0.0042
     41  C38       17.9940   27.5700   12.7390 C.ar  200  K19200     -0.0204
@<TRIPOS>BOND
     1    38    37   ar
     2    38    39   ar
     3    33    34    1
     4    33    32    1
     5    34    30    1
     6    34    27    1
     7    37    36   ar
     8    30    31    1
     9    30    29    1
    10    39    40   ar
    11    31    32    1
    12    27    28    1
    13    27    26    1
    14    36    41   ar
    15    29    28    1
    16    25    24    2
    17    40    41   ar
    18    26    24    1
    19    41    35    1
    20    24    23   am
    21    11    10    2
    22    23    22    1
    23    35    22    1
    24    12    10    2
    25    22    19    1
    26    10    13    1
    27    10     7    1
    28    16    15    1
    29    13    18    1
    30    13    14    1
    31    19    18    1
    32    19    21    1
    33     7     6    1
    34     7     8    1
    35     6     5    2
    36    14    15    1
    37    15    17    1
    38     8     9    2
    39    20    17    1
    40     5     3    1
    41     5     4    1
    42     3     1    1
    43     9     4    1
    44     4     2    2
    45     1     2    1
