@<TRIPOS>MOLECULE
3o9e_A60_A_1.pdb
 40 43 0 0 0
SMALL
GASTEIGER

@<TRIPOS>ATOM
      1  N1        14.1220   34.9960   18.1770 N.pl3 200  A60200     -0.1281
      2  C2        15.0450   34.4400   17.3340 C.ar  200  A60200      0.0892
      3  C3        16.0790   35.1940   16.7600 C.ar  200  A60200      0.0194
      4  C4        17.0010   34.5490   15.9040 C.ar  200  A60200      0.0213
      5  C5        16.8810   33.1750   15.6100 C.ar  200  A60200      0.1223
      6  C6        15.8160   32.4820   16.1860 C.ar  200  A60200      0.0213
      7  C7        14.9120   33.0970   17.0460 C.ar  200  A60200      0.0194
      8  S8        17.9220   32.3510   14.6640 S.O2  200  A60200      0.0634
      9  O9        18.5510   33.2510   13.7270 O.2   200  A60200     -0.1528
     10  O10       17.2320   31.2410   14.0660 O.2   200  A60200     -0.1528
     11  N11       19.1350   31.7400   15.5410 N.3   200  A60200     -0.1529
     12  C12       19.8370   32.7500   16.3720 C.3   200  A60200      0.0958
     13  C13       21.3460   32.5390   16.4010 C.3   200  A60200      0.0178
     14  C14       21.9630   32.6500   15.0040 C.3   200  A60200      0.0014
     15  C15       21.9710   33.5400   17.3890 C.3   200  A60200      0.0014
     16  C16       18.8900   30.4560   16.2290 C.3   200  A60200      0.1304
     17  C17       19.8470   29.3850   15.6840 C.3   200  A60200      0.1898
     18  C18       21.8570   34.9960   16.9810 C.3   200  A60200      0.0000
     19  O18       19.8090   28.2110   16.5400 O.3   200  A60200     -0.2197
     20  C19       19.5310   28.9630   14.2500 C.3   200  A60200      0.1347
     21  C20       23.4170   32.2320   14.8960 C.3   200  A60200      0.0000
     22  N20       20.6360   28.1570   13.7800 N.am  200  A60200     -0.1675
     23  C21       21.5070   28.5430   12.8640 C.2   200  A60200      0.4211
     24  O22       21.5780   29.5870   12.2530 O.2   200  A60200     -0.2246
     25  O23       22.4610   27.5140   12.6150 O.3   200  A60200     -0.4345
     26  C24       23.2940   27.6600   11.4710 C.3   200  A60200      0.2048
     27  C25       24.6080   27.0590   11.9260 C.3   200  A60200      0.1884
     28  O26       24.4060   25.6500   11.7980 O.3   200  A60200     -0.3265
     29  C27       23.5230   25.3880   10.7120 C.3   200  A60200      0.2388
     30  O28       22.5430   24.4650   11.1440 O.3   200  A60200     -0.3304
     31  C29       21.2680   25.0990   11.1960 C.3   200  A60200      0.1451
     32  C30       21.3660   26.3480   10.3170 C.3   200  A60200      0.0409
     33  C31       22.8460   26.7100   10.3840 C.3   200  A60200      0.1016
     34  C32       18.2300   28.1730   14.1010 C.3   200  A60200      0.0508
     35  C33       18.0640   26.4150   12.2380 C.ar  200  A60200     -0.0042
     36  C34       17.8720   26.0870   10.9020 C.ar  200  A60200     -0.0003
     37  C35       17.5830   27.0730    9.9760 C.ar  200  A60200     -0.0000
     38  C36       17.5110   28.3840   10.3910 C.ar  200  A60200     -0.0003
     39  C37       17.7040   28.7160   11.7220 C.ar  200  A60200     -0.0042
     40  C38       17.9890   27.7380   12.6660 C.ar  200  A60200     -0.0204
@<TRIPOS>BOND
     1    37    38   ar
     2    37    36   ar
     3    32    33    1
     4    32    31    1
     5    33    29    1
     6    33    26    1
     7    38    39   ar
     8    29    30    1
     9    29    28    1
    10    36    35   ar
    11    30    31    1
    12    26    27    1
    13    26    25    1
    14    39    40   ar
    15    28    27    1
    16    35    40   ar
    17    24    23    2
    18    25    23    1
    19    40    34    1
    20    23    22   am
    21     9     8    2
    22    22    20    1
    23    10     8    2
    24    34    20    1
    25    20    17    1
    26     8    11    1
    27     8     5    1
    28    21    14    1
    29    14    13    1
    30    11    16    1
    31    11    12    1
    32     5     4   ar
    33     5     6   ar
    34    17    16    1
    35    17    19    1
    36     4     3   ar
    37     6     7   ar
    38    12    13    1
    39    13    15    1
    40     3     2   ar
    41    18    15    1
    42     7     2   ar
    43     2     1    1
