@<TRIPOS>MOLECULE
3o9f_K2D_A_1.pdb
 41 44 0 0 0
SMALL
GASTEIGER

@<TRIPOS>ATOM
      1  C1        15.1490   36.9220   18.8820 C.3   200  K2D200      0.2525
      2  O1        14.7710   35.5590   18.6410 O.3   200  K2D200     -0.4714
      3  C2        15.4970   34.8340   17.7240 C.ar  200  K2D200      0.1388
      4  C3        16.4500   35.4730   16.9080 C.ar  200  K2D200      0.0383
      5  C4        17.1840   34.7020   15.9980 C.ar  200  K2D200      0.0230
      6  C5        16.9690   33.3300   15.8340 C.ar  200  K2D200      0.1224
      7  C6        16.0100   32.7130   16.6490 C.ar  200  K2D200      0.0230
      8  C7        15.2760   33.4620   17.5790 C.ar  200  K2D200      0.0383
      9  S8        17.9050   32.4670   14.7990 S.O2  200  K2D200      0.0634
     10  O9        18.4970   33.3130   13.7890 O.2   200  K2D200     -0.1528
     11  O10       17.1750   31.3810   14.2430 O.2   200  K2D200     -0.1528
     12  N11       19.1630   31.8510   15.6290 N.3   200  K2D200     -0.1529
     13  C12       19.8450   32.8350   16.5200 C.3   200  K2D200      0.0958
     14  C13       21.3720   32.6880   16.4850 C.3   200  K2D200      0.0178
     15  C14       21.9310   32.8190   15.0660 C.3   200  K2D200      0.0014
     16  C15       22.0230   33.6720   17.4660 C.3   200  K2D200      0.0014
     17  C16       18.8620   30.5570   16.2850 C.3   200  K2D200      0.1304
     18  C17       19.8240   29.5010   15.7260 C.3   200  K2D200      0.1898
     19  C18       21.8880   35.1200   17.0730 C.3   200  K2D200      0.0000
     20  O18       19.8240   28.3360   16.5680 O.3   200  K2D200     -0.2197
     21  C19       19.5010   29.0910   14.2980 C.3   200  K2D200      0.1347
     22  C20       23.3300   32.2530   14.9340 C.3   200  K2D200      0.0000
     23  N20       20.6070   28.2910   13.8380 N.am  200  K2D200     -0.1675
     24  C21       21.4980   28.6560   12.9190 C.2   200  K2D200      0.4211
     25  O22       21.5780   29.7020   12.2980 O.2   200  K2D200     -0.2246
     26  O23       22.4490   27.6110   12.6550 O.3   200  K2D200     -0.4345
     27  C24       23.2980   27.7780   11.5230 C.3   200  K2D200      0.2048
     28  C25       24.6300   27.2310   11.9960 C.3   200  K2D200      0.1884
     29  O26       24.4260   25.8270   11.8710 O.3   200  K2D200     -0.3265
     30  C27       23.5310   25.5490   10.7880 C.3   200  K2D200      0.2388
     31  O28       22.5340   24.6020   11.1750 O.3   200  K2D200     -0.3304
     32  C29       21.2440   25.2290   11.1580 C.3   200  K2D200      0.1451
     33  C30       21.3720   26.4980   10.3230 C.3   200  K2D200      0.0409
     34  C31       22.8500   26.8490   10.4090 C.3   200  K2D200      0.1016
     35  C32       18.2070   28.2840   14.1910 C.3   200  K2D200      0.0508
     36  C33       18.0840   26.5880   12.3280 C.ar  200  K2D200     -0.0042
     37  C34       17.8740   26.2360   11.0060 C.ar  200  K2D200     -0.0003
     38  C35       17.5310   27.2060   10.0850 C.ar  200  K2D200     -0.0000
     39  C36       17.4090   28.5350   10.4790 C.ar  200  K2D200     -0.0003
     40  C37       17.6150   28.8930   11.8130 C.ar  200  K2D200     -0.0042
     41  C38       17.9620   27.9150   12.7400 C.ar  200  K2D200     -0.0204
@<TRIPOS>BOND
     1    38    39   ar
     2    38    37   ar
     3    33    34    1
     4    33    32    1
     5    34    30    1
     6    34    27    1
     7    39    40   ar
     8    30    31    1
     9    30    29    1
    10    37    36   ar
    11    32    31    1
    12    27    28    1
    13    27    26    1
    14    40    41   ar
    15    29    28    1
    16    25    24    2
    17    36    41   ar
    18    26    24    1
    19    41    35    1
    20    24    23   am
    21    10     9    2
    22    23    21    1
    23    35    21    1
    24    11     9    2
    25    21    18    1
    26     9    12    1
    27     9     6    1
    28    22    15    1
    29    15    14    1
    30    12    17    1
    31    12    13    1
    32    18    17    1
    33    18    20    1
    34     6     5   ar
    35     6     7   ar
    36     5     4   ar
    37    14    13    1
    38    14    16    1
    39     7     8   ar
    40     4     3   ar
    41    19    16    1
    42     8     3   ar
    43     3     2    1
    44     2     1    1
