@<TRIPOS>MOLECULE
3o9g_F53_A_1.pdb
 41 44 0 0 0
SMALL
GASTEIGER

@<TRIPOS>ATOM
      1  C1        14.2960   35.7890   18.2350 C.3   200  F53200      0.2086
      2  O1        14.8510   35.8600   19.5590 O.3   200  F53200     -0.2152
      3  C2        15.2060   34.9220   17.3790 C.ar  200  F53200      0.0107
      4  C3        16.2360   35.5150   16.6580 C.ar  200  F53200     -0.0004
      5  C4        17.0740   34.7250   15.8480 C.ar  200  F53200      0.0197
      6  C5        16.9100   33.3270   15.7550 C.ar  200  F53200      0.1222
      7  C6        15.8810   32.7460   16.5160 C.ar  200  F53200      0.0197
      8  C7        15.0210   33.5420   17.3020 C.ar  200  F53200     -0.0004
      9  O8        22.5210   24.6060   11.2720 O.3   200  F53200     -0.3304
     10  S8        17.9290   32.3990   14.8720 S.O2  200  F53200      0.0634
     11  O9        18.5970   33.2150   13.9280 O.2   200  F53200     -0.1528
     12  O10       17.2180   31.2890   14.2940 O.2   200  F53200     -0.1528
     13  N11       19.1210   31.7980   15.7940 N.3   200  F53200     -0.1529
     14  C12       19.7810   32.8440   16.6270 C.3   200  F53200      0.0958
     15  C13       21.2890   32.6320   16.5680 C.3   200  F53200      0.0178
     16  C14       21.8490   32.8160   15.1560 C.3   200  F53200      0.0014
     17  C15       21.9750   33.5550   17.5770 C.3   200  F53200      0.0014
     18  C16       18.8230   30.4980   16.4310 C.3   200  F53200      0.1304
     19  C17       19.7940   29.4340   15.8810 C.3   200  F53200      0.1898
     20  C18       21.8030   35.0240   17.2580 C.3   200  F53200      0.0000
     21  O18       19.7890   28.2430   16.6950 O.3   200  F53200     -0.2197
     22  C19       19.4670   29.0490   14.4330 C.3   200  F53200      0.1347
     23  C20       23.3300   32.4940   15.0310 C.3   200  F53200      0.0000
     24  N20       20.5620   28.2570   13.9230 N.am  200  F53200     -0.1675
     25  C21       21.4570   28.6380   13.0100 C.2   200  F53200      0.4211
     26  O22       21.5550   29.6840   12.4000 O.2   200  F53200     -0.2246
     27  O23       22.4390   27.6090   12.7640 O.3   200  F53200     -0.4345
     28  C24       23.2770   27.7790   11.6290 C.3   200  F53200      0.2048
     29  C25       24.5910   27.1810   12.1260 C.3   200  F53200      0.1884
     30  O26       24.3900   25.7760   11.9720 O.3   200  F53200     -0.3265
     31  C27       23.5160   25.5460   10.8720 C.3   200  F53200      0.2388
     32  C29       21.2370   25.2510   11.3180 C.3   200  F53200      0.1451
     33  C30       21.3650   26.4900   10.4390 C.3   200  F53200      0.0409
     34  C31       22.8480   26.8540   10.5110 C.3   200  F53200      0.1016
     35  C32       18.1900   28.2210   14.2730 C.3   200  F53200      0.0508
     36  C33       18.0810   26.5890   12.3620 C.ar  200  F53200     -0.0042
     37  C34       17.8970   26.2280   11.0320 C.ar  200  F53200     -0.0003
     38  C35       17.5650   27.2110   10.1090 C.ar  200  F53200     -0.0000
     39  C36       17.4330   28.5250   10.5340 C.ar  200  F53200     -0.0003
     40  C37       17.6080   28.8820   11.8810 C.ar  200  F53200     -0.0042
     41  C38       17.9600   27.9060   12.8070 C.ar  200  F53200     -0.0204
@<TRIPOS>BOND
     1    38    39   ar
     2    38    37   ar
     3    33    34    1
     4    33    32    1
     5    34    31    1
     6    34    28    1
     7    39    40   ar
     8    31     9    1
     9    31    30    1
    10    37    36   ar
    11     9    32    1
    12    28    29    1
    13    28    27    1
    14    40    41   ar
    15    30    29    1
    16    36    41   ar
    17    26    25    2
    18    27    25    1
    19    41    35    1
    20    25    24   am
    21    24    22    1
    22    11    10    2
    23    35    22    1
    24    12    10    2
    25    22    19    1
    26    10     6    1
    27    10    13    1
    28    23    16    1
    29    16    15    1
    30     6     5   ar
    31     6     7   ar
    32    13    18    1
    33    13    14    1
    34     5     4   ar
    35    19    18    1
    36    19    21    1
    37     7     8   ar
    38    15    14    1
    39    15    17    1
    40     4     3   ar
    41    20    17    1
    42     8     3   ar
    43     3     1    1
    44     1     2    1
