@<TRIPOS>MOLECULE
3o9h_K2E_B_1.pdb
 42 46 0 0 0
SMALL
GASTEIGER

@<TRIPOS>ATOM
      1  C1        15.6200   36.7170   18.3630 C.3   200  K2E200      0.4294
      2  O1        14.9180   35.4570   18.5330 O.3   200  K2E200     -0.4346
      3  C2        15.5210   34.5500   17.6900 C.ar  200  K2E200      0.1765
      4  O2        16.5050   36.5260   17.2440 O.3   200  K2E200     -0.4346
      5  C3        16.4570   35.1900   16.9080 C.ar  200  K2E200      0.1778
      6  C4        17.1950   34.5020   15.9530 C.ar  200  K2E200      0.0601
      7  C5        17.0290   33.1160   15.7760 C.ar  200  K2E200      0.1254
      8  C6        16.0420   32.4880   16.5600 C.ar  200  K2E200      0.0232
      9  C7        15.2840   33.1980   17.5180 C.ar  200  K2E200      0.0416
     10  S8        17.9600   32.2970   14.7070 S.O2  200  K2E200      0.0635
     11  O9        17.2300   31.1650   14.1990 O.2   200  K2E200     -0.1528
     12  O10       18.4890   33.1680   13.6830 O.2   200  K2E200     -0.1528
     13  N11       19.2300   31.6890   15.5320 N.3   200  K2E200     -0.1529
     14  C12       19.9510   32.6910   16.3510 C.3   200  K2E200      0.0958
     15  C13       21.4670   32.4750   16.3430 C.3   200  K2E200      0.0178
     16  C14       22.0610   32.6170   14.9310 C.3   200  K2E200      0.0014
     17  C15       22.1360   33.4370   17.3380 C.3   200  K2E200      0.0014
     18  C16       18.9190   30.4610   16.2880 C.3   200  K2E200      0.1304
     19  C17       19.8470   29.3730   15.7400 C.3   200  K2E200      0.1898
     20  C18       21.9910   34.9000   17.0010 C.3   200  K2E200      0.0000
     21  O18       19.9230   28.2710   16.6430 O.3   200  K2E200     -0.2197
     22  C19       19.4860   28.9020   14.3340 C.3   200  K2E200      0.1347
     23  C20       23.4600   32.0600   14.8370 C.3   200  K2E200      0.0000
     24  N20       20.5830   28.1050   13.8450 N.am  200  K2E200     -0.1675
     25  C21       21.4770   28.4460   12.9310 C.2   200  K2E200      0.4211
     26  O22       21.6270   29.4930   12.3300 O.2   200  K2E200     -0.2246
     27  O23       22.3930   27.3740   12.6440 O.3   200  K2E200     -0.4345
     28  C24       23.2650   27.5210   11.5280 C.3   200  K2E200      0.2048
     29  C25       24.5850   26.9280   12.0000 C.3   200  K2E200      0.1884
     30  O26       24.3950   25.5220   11.8700 O.3   200  K2E200     -0.3265
     31  C27       23.5090   25.2500   10.7890 C.3   200  K2E200      0.2388
     32  O28       22.5120   24.3050   11.1980 O.3   200  K2E200     -0.3304
     33  C29       21.2600   24.9760   11.3350 C.3   200  K2E200      0.1451
     34  C30       21.3560   26.1900   10.4100 C.3   200  K2E200      0.0409
     35  C31       22.8330   26.5640   10.4400 C.3   200  K2E200      0.1016
     36  C32       18.2020   28.0610   14.2430 C.3   200  K2E200      0.0508
     37  C33       18.1340   26.3530   12.3800 C.ar  200  K2E200     -0.0042
     38  C34       17.9310   25.9860   11.0530 C.ar  200  K2E200     -0.0003
     39  C35       17.5280   26.9380   10.1290 C.ar  200  K2E200     -0.0000
     40  C36       17.3330   28.2480   10.5260 C.ar  200  K2E200     -0.0003
     41  C37       17.5410   28.6170   11.8580 C.ar  200  K2E200     -0.0042
     42  C38       17.9530   27.6730   12.7940 C.ar  200  K2E200     -0.0204
@<TRIPOS>BOND
     1    39    40   ar
     2    39    38   ar
     3    34    35    1
     4    34    33    1
     5    35    31    1
     6    35    28    1
     7    40    41   ar
     8    31    32    1
     9    31    30    1
    10    38    37   ar
    11    32    33    1
    12    28    29    1
    13    28    27    1
    14    41    42   ar
    15    30    29    1
    16    26    25    2
    17    37    42   ar
    18    27    25    1
    19    42    36    1
    20    25    24   am
    21    12    10    2
    22    24    22    1
    23    11    10    2
    24    36    22    1
    25    22    19    1
    26    10    13    1
    27    10     7    1
    28    23    16    1
    29    16    15    1
    30    13    18    1
    31    13    14    1
    32    19    18    1
    33    19    21    1
    34     7     6   ar
    35     7     8   ar
    36     6     5   ar
    37    15    14    1
    38    15    17    1
    39     8     9   ar
    40     5     4    1
    41     5     3   ar
    42    20    17    1
    43     4     1    1
    44     9     3   ar
    45     3     2    1
    46     1     2    1
