@<TRIPOS>MOLECULE
3o9i_A61_A_1.pdb
 42 46 0 0 0
SMALL
GASTEIGER

@<TRIPOS>ATOM
      1  C1        15.3520   36.5310   18.5170 C.3   200  A61200      0.1873
      2  N1        14.9080   35.2650   18.5990 N.2   200  A61200     -0.2576
      3  S1        16.5800   36.8090   17.3170 S.3   200  A61200     -0.0861
      4  C2        15.5210   34.4370   17.7000 C.2   200  A61200      0.0822
      5  C3        16.4610   35.1460   16.9520 C.2   200  A61200      0.0420
      6  C4        17.1930   34.4420   15.9750 C.2   200  A61200      0.0107
      7  C5        17.0150   33.0530   15.7370 C.3   200  A61200      0.1903
      8  C6        16.0430   32.3860   16.4880 C.2   200  A61200      0.0046
      9  C7        15.3180   33.0860   17.4470 C.2   200  A61200      0.0167
     10  S8        17.9260   32.1540   14.7010 S.O2  200  A61200      0.0500
     11  O9        18.4850   33.0220   13.7250 O.2   200  A61200     -0.1567
     12  O10       17.1830   31.0640   14.1980 O.2   200  A61200     -0.1567
     13  N11       19.1700   31.5540   15.5690 N.3   200  A61200     -0.1562
     14  C12       19.9270   32.5650   16.3450 C.3   200  A61200      0.0955
     15  C13       21.4440   32.3750   16.2810 C.3   200  A61200      0.0177
     16  C14       22.0330   32.4620   14.8690 C.3   200  A61200      0.0014
     17  C15       22.0940   33.3740   17.2590 C.3   200  A61200      0.0014
     18  C16       18.9220   30.2750   16.2580 C.3   200  A61200      0.1300
     19  C17       19.8650   29.2000   15.7010 C.3   200  A61200      0.1898
     20  C18       21.9790   34.8330   16.8600 C.3   200  A61200      0.0000
     21  O18       19.8310   28.0670   16.5910 O.3   200  A61200     -0.2197
     22  C19       19.5080   28.7470   14.2770 C.3   200  A61200      0.1347
     23  C20       23.4810   32.0150   14.8060 C.3   200  A61200      0.0000
     24  N20       20.5950   27.9280   13.7770 N.am  200  A61200     -0.1675
     25  C21       21.4730   28.2990   12.8690 C.2   200  A61200      0.4211
     26  O22       21.6050   29.3650   12.3130 O.2   200  A61200     -0.2246
     27  O23       22.3820   27.2420   12.5840 O.3   200  A61200     -0.4345
     28  C24       23.2490   27.4100   11.4690 C.3   200  A61200      0.2048
     29  C25       24.5720   26.8190   11.9320 C.3   200  A61200      0.1884
     30  O26       24.3840   25.4160   11.8230 O.3   200  A61200     -0.3265
     31  C27       23.4930   25.1260   10.7590 C.3   200  A61200      0.2388
     32  O28       22.5000   24.2140   11.1870 O.3   200  A61200     -0.3304
     33  C29       21.2100   24.8230   11.2280 C.3   200  A61200      0.1451
     34  C30       21.3300   26.0860   10.3880 C.3   200  A61200      0.0409
     35  C31       22.8110   26.4320   10.4000 C.3   200  A61200      0.1016
     36  C32       18.2080   27.9410   14.1700 C.3   200  A61200      0.0508
     37  C33       18.0390   26.1960   12.3640 C.ar  200  A61200     -0.0042
     38  C34       17.8360   25.8160   11.0380 C.ar  200  A61200     -0.0003
     39  C35       17.4940   26.7750   10.0950 C.ar  200  A61200     -0.0000
     40  C36       17.3780   28.1100   10.4600 C.ar  200  A61200     -0.0003
     41  C37       17.5970   28.4980   11.7730 C.ar  200  A61200     -0.0042
     42  C38       17.9510   27.5410   12.7280 C.ar  200  A61200     -0.0204
@<TRIPOS>BOND
     1    39    40   ar
     2    39    38   ar
     3    34    35    1
     4    34    33    1
     5    35    31    1
     6    35    28    1
     7    40    41   ar
     8    31    32    1
     9    31    30    1
    10    38    37   ar
    11    32    33    1
    12    28    29    1
    13    28    27    1
    14    41    42   ar
    15    30    29    1
    16    26    25    2
    17    37    42   ar
    18    27    25    1
    19    42    36    1
    20    25    24   am
    21    11    10    2
    22    24    22    1
    23    36    22    1
    24    12    10    2
    25    22    19    1
    26    10    13    1
    27    10     7    1
    28    23    16    1
    29    16    15    1
    30    13    18    1
    31    13    14    1
    32    19    18    1
    33    19    21    1
    34     7     6    1
    35     7     8    1
    36     6     5    2
    37    15    14    1
    38    15    17    1
    39     8     9    2
    40    20    17    1
    41     5     3    1
    42     5     4    1
    43     3     1    1
    44     9     4    1
    45     4     2    2
    46     1     2    1
