@<TRIPOS>MOLECULE
3o9j_RP6_A_1.pdb
 23 23 0 0 0
SMALL
GASTEIGER

@<TRIPOS>ATOM
      1  CAA      -17.6490  -19.9980  -11.9950 C.2     1  RP61       -0.0049
      2  CAB      -15.1910  -25.5480   -7.7560 C.3     1  RP61        0.0964
      3  OAC      -16.5310  -26.8630   -9.1350 O.2     1  RP61       -0.2733
      4  OAD      -22.6850  -23.0340  -10.5240 O.co2   1  RP61       -0.2430
      5  OAE      -21.5220  -28.9570   -8.1130 O.3     1  RP61       -0.2175
      6  OAF      -21.4480  -21.7050  -11.8290 O.co2   1  RP61       -0.2430
      7  OAG      -22.2400  -26.3590   -7.6970 O.3     1  RP61       -0.2175
      8  OAH      -17.0440  -22.8640   -9.6050 O.3     1  RP61       -0.2211
      9  OAI      -19.7980  -27.1260   -9.9760 O.3     1  RP61       -0.2176
     10  CAJ      -17.9820  -21.1270  -11.4250 C.2     1  RP61       -0.0260
     11  CAK      -22.0630  -28.2070   -9.1920 C.3     1  RP61        0.2175
     12  CAL      -18.8860  -21.1630  -10.4440 C.3     1  RP61        0.0316
     13  NAM      -17.6470  -25.3080   -7.8740 N.am    1  RP61       -0.2020
     14  OAN      -20.6550  -24.5020   -9.8970 O.3     1  RP61       -0.3429
     15  CAO      -16.5220  -25.9620   -8.2940 C.2     1  RP61        0.2420
     16  CAP      -21.5920  -22.4890  -10.8480 C.2     1  RP61        0.3914
     17  CAQ      -19.2480  -22.5120   -9.9360 C.3     1  RP61        0.0749
     18  CAR      -20.4050  -23.1190  -10.2640 C.3     1  RP61        0.2205
     19  CAS      -21.7270  -26.7880   -8.8340 C.3     1  RP61        0.2173
     20  CAT      -18.2850  -23.1700   -8.9690 C.3     1  RP61        0.1774
     21  CAU      -20.5000  -26.3840   -9.1450 C.3     1  RP61        0.2134
     22  CAV      -18.5170  -24.7180   -8.8820 C.3     1  RP61        0.1552
     23  CAW      -20.0230  -25.0420   -8.7330 C.3     1  RP61        0.1710
@<TRIPOS>BOND
     1     1    10    2
     2     6    16   ar
     3    10    12    1
     4    16     4   ar
     5    16    18    1
     6    12    17    1
     7    18    17    1
     8    18    14    1
     9     9    21    1
    10    17    20    1
    11    14    23    1
    12     8    20    1
    13    11    19    1
    14    11     5    1
    15    21    19    1
    16    21    23    1
    17     3    15    2
    18    20    22    1
    19    22    23    1
    20    22    13    1
    21    19     7    1
    22    15    13   am
    23    15     2    1
