@<TRIPOS>MOLECULE
3o9k_ETT_A_1.pdb
 30 31 0 0 0
SMALL
GASTEIGER

@<TRIPOS>ATOM
      1  C01      -16.2100  -20.1950  -16.3930 C.ar    1  ETT1       -0.0219
      2  C02      -17.0990  -21.2540  -14.3440 C.ar    1  ETT1       -0.0046
      3  C03      -18.3990  -21.1550  -10.3900 C.3     1  ETT1        0.0282
      4  CAB      -15.3980  -26.3070   -7.0590 C.3     1  ETT1        0.0964
      5  OAC      -16.1340  -26.4170   -9.2660 O.2     1  ETT1       -0.2733
      6  OAD      -22.4960  -22.9470  -10.6230 O.co2   1  ETT1       -0.2371
      7  OAE      -21.4210  -28.8590   -8.0900 O.3     1  ETT1       -0.2175
      8  OAF      -21.2520  -21.2360  -11.4650 O.co2   1  ETT1       -0.2371
      9  OAG      -21.8970  -26.2550   -7.3430 O.3     1  ETT1       -0.2174
     10  OAH      -16.7410  -23.0510   -9.7120 O.3     1  ETT1       -0.2165
     11  CAI      -17.8060  -21.0190  -11.5780 C.3     1  ETT1        0.0092
     12  OAI      -19.9300  -26.9940  -10.0420 O.3     1  ETT1       -0.2164
     13  CAJ      -16.8040  -20.2310  -12.0000 C.3     1  ETT1        0.0267
     14  CAK      -22.1670  -27.9940   -8.9370 C.3     1  ETT1        0.2175
     15  CAL      -15.7090  -19.1580  -15.5890 C.ar    1  ETT1       -0.0046
     16  CAM      -16.9120  -21.2520  -15.7530 C.ar    1  ETT1       -0.0046
     17  NAM      -17.5020  -25.2690   -7.8020 N.am    1  ETT1       -0.2004
     18  CAN      -15.9060  -19.1870  -14.1830 C.ar    1  ETT1       -0.0046
     19  OAN      -20.5880  -24.3290   -9.7410 O.2     1  ETT1       -0.4686
     20  CAO      -16.3750  -25.9810   -8.1340 C.2     1  ETT1        0.2420
     21  CAP      -21.3930  -22.3380  -10.8320 C.2     1  ETT1        0.4205
     22  CAQ      -18.9750  -22.4780   -9.9600 C.2     1  ETT1        0.0280
     23  CAR      -20.2160  -22.9960  -10.2190 C.2     1  ETT1        0.2124
     24  CAS      -21.6670  -26.6180   -8.5940 C.3     1  ETT1        0.2185
     25  CAT      -17.9960  -23.2180   -9.0490 C.3     1  ETT1        0.1969
     26  CAU      -20.4970  -26.2470   -9.1130 C.3     1  ETT1        0.2261
     27  CAV      -18.3520  -24.7340   -8.8640 C.3     1  ETT1        0.1719
     28  CAW      -19.8810  -24.9690   -8.6670 C.3     1  ETT1        0.2215
     29  CAX      -16.5950  -20.2210  -13.5110 C.ar    1  ETT1       -0.0222
     30  CBD      -16.0070  -20.1730  -17.8690 C.3     1  ETT1        0.0310
@<TRIPOS>BOND
     1    30     1    1
     2     1    16   ar
     3     1    15   ar
     4    16     2   ar
     5    15    18   ar
     6     2    29   ar
     7    18    29   ar
     8    29    13    1
     9    13    11    1
    10    11     3    1
    11     8    21   ar
    12    21     6   ar
    13    21    23    1
    14     3    22    1
    15    23    22    2
    16    23    19    1
    17    12    26    1
    18    22    25    1
    19    19    28    1
    20    10    25    1
    21     5    20    2
    22    26    28    1
    23    26    24    1
    24    25    27    1
    25    14    24    1
    26    14     7    1
    27    27    28    1
    28    27    17    1
    29    24     9    1
    30    20    17   am
    31    20     4    1
