@<TRIPOS>MOLECULE
3o9l_LPN_A_1.pdb
 44 48 0 0 0
SMALL
GASTEIGER

@<TRIPOS>ATOM
      1 CL1         3.1700    8.5520   -5.8500 Cl    168  LPN168     -0.0791
      2  C2         2.4500    8.1280   -4.2770 C.ar  168  LPN168      0.0921
      3  C3         3.2270    7.6570   -3.2240 C.ar  168  LPN168      0.1596
      4  C4         1.0720    8.2840   -4.1490 C.ar  168  LPN168      0.0103
      5  O5         4.6050    7.4750   -3.3050 O.3   168  LPN168     -0.4697
      6  C6         2.5730    7.3700   -2.0340 C.ar  168  LPN168      0.0921
      7  C7         0.4350    7.9790   -2.9550 C.ar  168  LPN168     -0.0200
      8  C8         5.2240    6.4650   -4.1440 C.3   168  LPN168      0.2525
      9 CL9         3.5520    6.7760   -0.6740 Cl    168  LPN168     -0.0791
     10  C10        1.1910    7.5200   -1.8790 C.ar  168  LPN168      0.0103
     11  C11       -1.0480    8.1600   -2.8380 C.3   168  LPN168      0.0311
     12  C12        6.1690    5.4700   -3.4420 C.3   168  LPN168      0.2525
     13  O13        5.7820    5.5460   -2.0930 O.3   168  LPN168     -0.4714
     14  C14        6.3280    5.3000   -0.8600 C.ar  168  LPN168      0.1387
     15  C15        7.2710    6.2070   -0.3660 C.ar  168  LPN168      0.0366
     16  C16        5.8430    4.2770   -0.0400 C.ar  168  LPN168      0.0366
     17  C17        7.7830    6.0590    0.9230 C.ar  168  LPN168     -0.0012
     18  C18        6.3640    4.1240    1.2430 C.ar  168  LPN168     -0.0012
     19  C19        7.3400    5.0070    1.7380 C.ar  168  LPN168     -0.0217
     20  C20        7.8180    4.8410    3.1530 C.3   168  LPN168      0.0338
     21  C21        6.8440    5.6500    4.0740 C.3   168  LPN168      0.0981
     22  C22        9.2870    5.2050    3.4030 C.3   168  LPN168      0.0237
     23  C23        5.4120    5.2200    3.7880 C.2   168  LPN168      0.2271
     24  C24        7.1980    5.5210    5.5650 C.3   168  LPN168      0.0981
     25  C25        9.6130    5.1650    4.9020 C.3   168  LPN168      0.0891
     26  O26        5.0270    4.1390    4.1980 O.2   168  LPN168     -0.2748
     27  N27        4.5570    5.9740    3.0690 N.am  168  LPN168     -0.2770
     28  N28        8.6090    5.8310    5.7490 N.3   168  LPN168     -0.2175
     29  C29        4.8650    7.2730    2.4280 C.3   168  LPN168      0.0758
     30  C30        3.2210    5.4900    2.7210 C.3   168  LPN168      0.1209
     31  C31        5.2180    8.3370    3.4610 C.3   168  LPN168      0.0215
     32  C32        3.8240    8.2940    2.8590 C.3   168  LPN168      0.0215
     33  C33        2.0530    5.7930    3.6390 C.ar  168  LPN168      0.0079
     34  C34        0.7790    5.5680    3.1300 C.ar  168  LPN168      0.0553
     35  C35        2.2040    6.2880    4.9310 C.ar  168  LPN168     -0.0060
     36 CL36        0.5990    4.9490    1.4690 Cl    168  LPN168     -0.0825
     37  C37       -0.3620    5.8270    3.8720 C.ar  168  LPN168      0.0108
     38  C38        1.0600    6.5430    5.6820 C.ar  168  LPN168     -0.0223
     39  C39       -0.2090    6.3160    5.1640 C.ar  168  LPN168     -0.0034
     40  C40        1.1730    7.0940    7.0750 C.3   168  LPN168      0.0289
     41  C41        1.0700    8.6050    6.9450 C.3   168  LPN168      0.0367
     42  C42        1.9420    9.2500    8.0050 C.3   168  LPN168      0.1426
     43  O43        2.1120   10.6220    7.6730 O.3   168  LPN168     -0.3511
     44  C44        2.1000   11.4500    8.8330 C.3   168  LPN168      0.1741
@<TRIPOS>BOND
     1     1     2    1
     2     2     4   ar
     3     2     3   ar
     4     4     7   ar
     5     8    12    1
     6     8     5    1
     7    12    13    1
     8     5     3    1
     9     3     6   ar
    10     7    11    1
    11     7    10   ar
    12    13    14    1
    13     6    10   ar
    14     6     9    1
    15    14    15   ar
    16    14    16   ar
    17    15    17   ar
    18    16    18   ar
    19    17    19   ar
    20    18    19   ar
    21    36    34    1
    22    19    20    1
    23    29    32    1
    24    29    27    1
    25    29    31    1
    26    30    27    1
    27    30    33    1
    28    32    31    1
    29    27    23   am
    30    34    33   ar
    31    34    37   ar
    32    20    22    1
    33    20    21    1
    34    22    25    1
    35    33    35   ar
    36    23    21    1
    37    23    26    2
    38    37    39   ar
    39    21    24    1
    40    25    28    1
    41    35    38   ar
    42    39    38   ar
    43    24    28    1
    44    38    40    1
    45    41    40    1
    46    41    42    1
    47    43    42    1
    48    43    44    1
