@<TRIPOS>MOLECULE
3o9p_MHI_A_1.pdb
 27 26 0 0 0
SMALL
GASTEIGER

@<TRIPOS>ATOM
      1  C1        13.9010   55.4970   39.6030 C.3   516  MHI516      0.0304
      2  N1        11.6660   54.7650   39.0260 N.3   516  MHI516     -0.1231
      3  O1        11.2740   57.3170   39.7000 O.2   516  MHI516     -0.2718
      4  C2        12.4230   55.3430   40.1100 C.3   516  MHI516      0.1694
      5  N2        12.0990   57.1490   41.7450 N.am  516  MHI516     -0.1944
      6  O2        11.7910   57.3670   44.4160 O.co2 516  MHI516     -0.2437
      7  C3        11.8690   56.6880   40.5110 C.2   516  MHI516      0.2593
      8  N3        13.3980   61.9190   39.6640 N.am  516  MHI516     -0.1956
      9  O3        10.7170   59.2320   44.2480 O.co2 516  MHI516     -0.2437
     10  C4        11.5870   58.4290   42.2150 C.3   516  MHI516      0.1983
     11  N4        15.2220   65.6490   33.6330 N.3   516  MHI516     -0.1208
     12  O4        15.0560   60.8900   40.7570 O.2   516  MHI516     -0.2733
     13  C5        11.3130   58.3530   43.6850 C.2   516  MHI516      0.3842
     14  O5        14.4940   65.3490   40.2320 O.co2 516  MHI516     -0.2437
     15  C6        12.5630   59.5780   41.9900 C.3   516  MHI516      0.0429
     16  O6        12.7470   64.2830   40.8560 O.co2 516  MHI516     -0.2437
     17  C7        12.9740   59.6920   40.5230 C.3   516  MHI516      0.0892
     18  O7        15.3110   67.4810   36.6150 O.co2 516  MHI516     -0.2441
     19  C8        13.8980   60.8910   40.3340 C.2   516  MHI516      0.2419
     20  O8        14.3280   67.7710   34.6270 O.co2 516  MHI516     -0.2441
     21  C9        14.1550   63.0820   39.2840 C.3   516  MHI516      0.1977
     22  C10       13.7440   64.2700   40.1510 C.2   516  MHI516      0.3842
     23  C11       13.8570   63.3120   37.8160 C.3   516  MHI516      0.0333
     24  C12       14.4860   64.5820   37.2600 C.3   516  MHI516      0.0044
     25  C13       14.4360   64.6570   35.7540 C.3   516  MHI516      0.0307
     26  C15       14.9630   67.0550   35.4210 C.2   516  MHI516      0.3819
     27  C14       15.3580   65.6810   35.0720 C.3   516  MHI516      0.1943
@<TRIPOS>BOND
     1    11    27    1
     2    20    26   ar
     3    27    26    1
     4    27    25    1
     5    26    18   ar
     6    25    24    1
     7    24    23    1
     8    23    21    1
     9     2     4    1
    10    21     8    1
    11    21    22    1
    12     1     4    1
    13     8    19   am
    14     3     7    2
    15     4     7    1
    16    22    14   ar
    17    22    16   ar
    18    19    17    1
    19    19    12    2
    20     7     5   am
    21    17    15    1
    22     5    10    1
    23    15    10    1
    24    10    13    1
    25    13     9   ar
    26    13     6   ar
