@<TRIPOS>MOLECULE
3o9v_10T_A_1.pdb
 23 24 0 0 0
SMALL
GASTEIGER

@<TRIPOS>ATOM
      1  C4        45.6130   35.5110   18.2080 C.3     1  10T1        0.0548
      2  C5        44.6560   34.7670   17.3000 C.2     1  10T1        0.0914
      3  C7        44.2270   32.7070   16.2450 C.2     1  10T1        0.1146
      4  C8        44.6810   31.2860   15.9800 C.3     1  10T1        0.0666
      5  C13       42.1450   32.3820   14.8420 C.2     1  10T1        0.3896
      6  C17       43.4810   35.3130   16.7910 C.3     1  10T1        0.0896
      7  C20       41.3900   35.0200   15.3790 C.ar    1  10T1       -0.0033
      8  C21       41.3840   35.9930   14.3740 C.ar    1  10T1       -0.0006
      9  C22       40.1800   36.4640   13.8450 C.ar    1  10T1       -0.0043
     10  C24       37.6680   36.4380   13.7460 C.3     1  10T1        0.0310
     11  C26       40.1750   34.5150   15.8370 C.ar    1  10T1       -0.0006
     12  O14       41.5670   31.3640   15.3460 O.co2   1  10T1       -0.2405
     13  O15       42.0100   32.7630   13.6480 O.co2   1  10T1       -0.2405
     14  C12       43.0440   33.2140   15.7110 C.2     1  10T1        0.1015
     15  C16       42.6740   34.5150   15.9710 C.2     1  10T1       -0.0062
     16  C23       38.9700   35.9550   14.3090 C.ar    1  10T1       -0.0218
     17  C25       38.9730   34.9880   15.3030 C.ar    1  10T1       -0.0043
     18  C18       43.0600   36.7500   17.0950 C.3     1  10T1        0.1203
     19  N19       41.7730   36.7760   17.7730 N.3     1  10T1       -0.1306
     20  C2        46.5620   36.4680   17.4990 C.3     1  10T1        0.0067
     21  C1        47.4950   37.0540   18.5510 C.3     1  10T1        0.0004
     22  C3        47.3110   35.7840   16.3640 C.3     1  10T1        0.0004
     23  N6        44.9880   33.4940   17.0230 N.2     1  10T1       -0.4143
@<TRIPOS>BOND
     1    13     5   ar
     2    10    16    1
     3     9    16   ar
     4     9     8   ar
     5    16    17   ar
     6     8     7   ar
     7     5    12   ar
     8     5    14    1
     9    17    11   ar
    10     7    11   ar
    11     7    15    1
    12    14    15    2
    13    14     3    1
    14    15     6    1
    15     4     3    1
    16     3    23    2
    17    22    20    1
    18     6    18    1
    19     6     2    1
    20    23     2    2
    21    18    19    1
    22     2     1    1
    23    20     1    1
    24    20    21    1
