@<TRIPOS>MOLECULE
3o9w_FUC_A_1.pdb
 10 10 0 0 0
SMALL
GASTEIGER

@<TRIPOS>ATOM
      1  C1       -52.1070   -9.8360    9.5210 C.3   506  FUC506      0.1776
      2  C2       -50.8640   -8.9610    9.7690 C.3   506  FUC506      0.2141
      3  C3       -50.3710   -9.0860   11.2140 C.3   506  FUC506      0.2172
      4  C4       -50.2210  -10.5480   11.6210 C.3   506  FUC506      0.2116
      5  C5       -51.5620  -11.2360   11.4110 C.3   506  FUC506      0.1483
      6  C6       -51.5350  -12.7010   11.8360 C.3   506  FUC506      0.0349
      7  O2       -51.1380   -7.6010    9.5040 O.3   506  FUC506     -0.2176
      8  O3       -49.1550   -8.3880   11.3760 O.3   506  FUC506     -0.2175
      9  O4       -49.2490  -11.1710   10.8100 O.3   506  FUC506     -0.2177
     10  O5       -51.9160  -11.1480   10.0400 O.3   506  FUC506     -0.3508
@<TRIPOS>BOND
     1     7     2    1
     2     1     2    1
     3     1    10    1
     4     2     3    1
     5    10     5    1
     6     9     4    1
     7     3     8    1
     8     3     4    1
     9     5     4    1
    10     5     6    1
