@<TRIPOS>MOLECULE
3o9w_NAG_A_1.pdb
 14 14 0 0 0
SMALL
GASTEIGER

@<TRIPOS>ATOM
      1  C1       -31.6490  -41.5030   18.8750 C.3   501  NAG501      0.1665
      2  C2       -30.7730  -42.7650   19.0730 C.3   501  NAG501      0.1576
      3  C3       -29.5840  -42.5920   20.0370 C.3   501  NAG501      0.2069
      4  C4       -28.8380  -41.3030   19.7150 C.3   501  NAG501      0.2134
      5  C5       -29.8440  -40.1790   19.9350 C.3   501  NAG501      0.1809
      6  C6       -29.2020  -38.7890   19.8940 C.3   501  NAG501      0.2141
      7  C7       -32.2320  -44.6940   18.6370 C.2   501  NAG501      0.2420
      8  C8       -33.0620  -45.7790   19.2550 C.3   501  NAG501      0.0964
      9  N2       -31.6090  -43.8810   19.5010 N.am  501  NAG501     -0.2019
     10  O3       -28.6900  -43.6860   19.9540 O.3   501  NAG501     -0.2184
     11  O4       -27.6880  -41.1530   20.5220 O.3   501  NAG501     -0.2176
     12  O5       -30.8940  -40.2860   18.9700 O.3   501  NAG501     -0.3489
     13  O6       -28.4640  -38.6010   18.7050 O.3   501  NAG501     -0.2176
     14  O7       -32.1620  -44.5860   17.4050 O.2   501  NAG501     -0.2733
@<TRIPOS>BOND
     1    14     7    2
     2     7     8    1
     3     7     9   am
     4    13     6    1
     5     1    12    1
     6     1     2    1
     7    12     5    1
     8     2     9    1
     9     2     3    1
    10     4     5    1
    11     4     3    1
    12     4    11    1
    13     6     5    1
    14    10     3    1
