@<TRIPOS>MOLECULE
3o9z_NAD_A_1.pdb
 44 48 0 0 0
SMALL
GASTEIGER

@<TRIPOS>ATOM
      1  PA        25.6760   45.3640   34.1610 P.3   311  NAD311      0.2189
      2  O1A       24.5060   46.2290   34.4450 O.3   311  NAD311     -0.4371
      3  O2A       27.0340   45.9370   33.7260 O.2   311  NAD311     -0.5170
      4  O5B       25.8070   44.5630   35.5160 O.3   311  NAD311     -0.3112
      5  C5B       26.9080   43.7000   35.5840 C.3   311  NAD311      0.1813
      6  C4B       27.1540   43.3550   37.0730 C.3   311  NAD311      0.1821
      7  O4B       28.1600   42.3170   37.2030 O.3   311  NAD311     -0.3135
      8  C3B       27.7590   44.6030   37.7740 C.3   311  NAD311      0.2184
      9  O3B       26.9810   44.9880   38.9260 O.3   311  NAD311     -0.2174
     10  C2B       29.2040   44.1980   38.1130 C.3   311  NAD311      0.2570
     11  O2B       29.7360   44.8000   39.3020 O.3   311  NAD311     -0.2130
     12  C1B       28.9520   42.6780   38.3420 C.3   311  NAD311      0.3186
     13  N9A       30.2330   41.9260   38.2930 N.pl3 311  NAD311     -0.1439
     14  C8A       31.4660   42.1790   37.7740 C.3   311  NAD311      0.3377
     15  N7A       32.3080   41.1850   38.0480 N.2   311  NAD311     -0.2095
     16  C5A       31.6410   40.2890   38.8460 C.2   311  NAD311      0.2526
     17  C6A       31.9840   39.0420   39.4930 C.2   311  NAD311      0.4393
     18  N6A       33.2600   38.5530   39.4120 N.pl3 311  NAD311      0.2180
     19  N1A       30.9640   38.5000   40.1480 N.2   311  NAD311      0.0021
     20  C2A       29.7100   38.9080   40.2890 C.3   311  NAD311      0.5254
     21  N3A       29.3720   40.0910   39.7140 N.2   311  NAD311     -0.0055
     22  C4A       30.3120   40.7180   38.9980 C.2   311  NAD311      0.3518
     23  O3        25.2570   44.2930   33.0490 O.3   311  NAD311     -0.2703
     24  PN        23.8970   43.5890   32.7360 P.3   311  NAD311      0.2189
     25  O1N       23.2230   44.3220   31.5770 O.2   311  NAD311     -0.5170
     26  O2N       23.1220   43.3620   34.0040 O.co2 311  NAD311     -0.4371
     27  O5D       24.3560   42.2260   32.0400 O.3   311  NAD311     -0.3112
     28  C5D       24.6030   41.1890   32.9560 C.3   311  NAD311      0.1813
     29  C4D       24.5380   39.8840   32.1420 C.3   311  NAD311      0.1799
     30  O4D       23.1490   39.7350   31.7730 O.3   311  NAD311     -0.3327
     31  C3D       25.3730   39.8440   30.8540 C.3   311  NAD311      0.2158
     32  O3D       25.7440   38.4420   30.6590 O.3   311  NAD311     -0.2175
     33  C2D       24.3140   40.1940   29.7960 C.3   311  NAD311      0.2309
     34  O2D       24.6040   39.6220   28.5300 O.3   311  NAD311     -0.2158
     35  C1D       22.9870   39.6560   30.3450 C.3   311  NAD311      0.2263
     36  N1N       21.8200   40.3960   29.8670 N.pl3 311  NAD311     -0.2787
     37  C2N       20.7890   39.7350   29.3860 C.3   311  NAD311      0.1244
     38  C3N       19.6280   40.3200   28.9230 C.2   311  NAD311      0.0544
     39  C7N       18.6130   39.4160   28.3530 C.2   311  NAD311      0.2818
     40  O7N       18.5550   38.2070   28.6640 O.2   311  NAD311     -0.2670
     41  N7N       17.7030   40.0250   27.6020 N.am  311  NAD311     -0.0839
     42  C4N       19.5450   41.7170   28.9990 C.2   311  NAD311      0.0033
     43  C5N       20.6170   42.3830   29.5950 C.2   311  NAD311      0.0157
     44  C6N       21.7570   41.7240   30.0490 C.2   311  NAD311      0.0633
@<TRIPOS>UNITY_ATOM_ATTR
26 1
charge -1
@<TRIPOS>BOND
     1    41    39   am
     2    39    40    2
     3    39    38    1
     4    34    33    1
     5    38    42    2
     6    38    37    1
     7    42    43    1
     8    37    36    1
     9    43    44    2
    10    33    35    1
    11    33    31    1
    12    36    44    1
    13    36    35    1
    14    35    30    1
    15    32    31    1
    16    31    29    1
    17    25    24    2
    18    30    29    1
    19    27    24    1
    20    27    28    1
    21    29    28    1
    22    24    23    1
    23    24    26    1
    24    23     1    1
    25     3     1    2
    26     1     2    1
    27     1     4    1
    28     4     5    1
    29     5     6    1
    30     6     7    1
    31     6     8    1
    32     7    12    1
    33    14    15    1
    34    14    13    1
    35     8    10    1
    36     8     9    1
    37    15    16    2
    38    10    12    1
    39    10    11    1
    40    13    12    1
    41    13    22    1
    42    16    22    1
    43    16    17    1
    44    22    21    2
    45    18    17    1
    46    17    19    2
    47    21    20    1
    48    19    20    1
