@<TRIPOS>MOLECULE
3o9z_AKG_A_1.pdb
 10 9 0 0 0
SMALL
GASTEIGER

@<TRIPOS>ATOM
      1  C1        21.5690   42.8090   26.4120 C.2   312  AKG312      0.4219
      2  O1        21.4820   44.0640   26.4570 O.co2 312  AKG312     -0.2373
      3  O2        22.5640   42.2110   26.8360 O.co2 312  AKG312     -0.2373
      4  C2        20.4750   41.9690   25.9740 C.2   312  AKG312      0.2526
      5  O5        20.6310   40.7500   25.9690 O.2   312  AKG312     -0.2843
      6  C3        19.1810   42.5790   25.5040 C.3   312  AKG312      0.0881
      7  C4        19.2530   42.7050   23.9830 C.3   312  AKG312      0.1224
      8  C5        18.0900   43.4680   23.3810 C.2   312  AKG312      0.3653
      9  O3        17.7380   44.5480   23.8920 O.co2 312  AKG312     -0.2456
     10  O4        17.5080   43.0050   22.3970 O.co2 312  AKG312     -0.2456
@<TRIPOS>BOND
     1    10     8   ar
     2     8     9   ar
     3     8     7    1
     4     7     6    1
     5     6     4    1
     6     5     4    2
     7     4     1    1
     8     1     2   ar
     9     1     3   ar
