@<TRIPOS>MOLECULE
3oa0_NAD_A_1.pdb
 44 48 0 0 0
SMALL
GASTEIGER

@<TRIPOS>ATOM
      1  PA        25.1320   44.9430   34.0060 P.3   311  NAD311      0.2189
      2  O1A       24.0140   45.8860   34.2530 O.3   311  NAD311     -0.4371
      3  O2A       26.4200   45.7530   33.8010 O.2   311  NAD311     -0.5170
      4  O5B       25.1230   44.1070   35.3840 O.3   311  NAD311     -0.3112
      5  C5B       26.4470   43.6370   35.5970 C.3   311  NAD311      0.1813
      6  C4B       26.6760   43.2790   37.0580 C.3   311  NAD311      0.1821
      7  O4B       27.5950   42.1910   37.1570 O.3   311  NAD311     -0.3135
      8  C3B       27.3140   44.5680   37.5970 C.3   311  NAD311      0.2184
      9  O3B       26.5740   44.7660   38.7770 O.3   311  NAD311     -0.2174
     10  C2B       28.7690   44.1540   37.9660 C.3   311  NAD311      0.2570
     11  O2B       29.0910   44.8220   39.1810 O.3   311  NAD311     -0.2130
     12  C1B       28.5540   42.6280   38.1520 C.3   311  NAD311      0.3186
     13  N9A       29.8450   41.9270   38.1770 N.pl3 311  NAD311     -0.1439
     14  C8A       31.0600   42.2890   37.6350 C.3   311  NAD311      0.3377
     15  N7A       31.9620   41.4140   37.9660 N.2   311  NAD311     -0.2095
     16  C5A       31.3730   40.4520   38.7400 C.2   311  NAD311      0.2526
     17  C6A       31.8240   39.3000   39.3930 C.2   311  NAD311      0.4393
     18  N6A       33.1720   38.9230   39.3220 N.pl3 311  NAD311      0.2180
     19  N1A       30.8970   38.6190   40.0520 N.2   311  NAD311      0.0021
     20  C2A       29.6200   38.9550   40.2070 C.3   311  NAD311      0.5254
     21  N3A       29.1830   40.0480   39.6250 N.2   311  NAD311     -0.0055
     22  C4A       30.0190   40.7790   38.8990 C.2   311  NAD311      0.3518
     23  O3        24.8020   44.0630   32.7150 O.3   311  NAD311     -0.2703
     24  PN        23.5190   43.1400   32.6850 P.3   311  NAD311      0.2189
     25  O1N       22.6710   43.7330   31.5770 O.2   311  NAD311     -0.5170
     26  O2N       22.5230   42.8880   33.8140 O.co2 311  NAD311     -0.4371
     27  O5D       23.9270   41.8470   31.8080 O.3   311  NAD311     -0.3112
     28  C5D       24.1630   40.7610   32.6530 C.3   311  NAD311      0.1813
     29  C4D       24.1190   39.4510   31.8660 C.3   311  NAD311      0.1799
     30  O4D       22.7390   39.3690   31.4600 O.3   311  NAD311     -0.3327
     31  C3D       24.9210   39.5830   30.5370 C.3   311  NAD311      0.2158
     32  O3D       25.4410   38.2760   30.2940 O.3   311  NAD311     -0.2175
     33  C2D       23.9040   39.9590   29.4550 C.3   311  NAD311      0.2309
     34  O2D       24.2120   39.2370   28.2570 O.3   311  NAD311     -0.2158
     35  C1D       22.5850   39.3990   30.0350 C.3   311  NAD311      0.2263
     36  N1N       21.3640   40.1390   29.6880 N.pl3 311  NAD311     -0.2787
     37  C2N       20.2910   39.4610   29.2770 C.3   311  NAD311      0.1244
     38  C3N       19.1070   40.1390   28.9390 C.2   311  NAD311      0.0544
     39  C7N       17.8890   39.4140   28.4840 C.2   311  NAD311      0.2818
     40  O7N       16.9470   40.0430   28.0500 O.2   311  NAD311     -0.2670
     41  N7N       17.8050   38.0650   28.5780 N.am  311  NAD311     -0.0839
     42  C4N       19.0700   41.5400   29.0100 C.2   311  NAD311      0.0033
     43  C5N       20.2290   42.1830   29.4340 C.2   311  NAD311      0.0157
     44  C6N       21.3560   41.4640   29.7690 C.2   311  NAD311      0.0633
@<TRIPOS>UNITY_ATOM_ATTR
26 1
charge -1
@<TRIPOS>BOND
     1    40    39    2
     2    34    33    1
     3    39    41   am
     4    39    38    1
     5    38    42    2
     6    38    37    1
     7    42    43    1
     8    37    36    1
     9    43    44    2
    10    33    35    1
    11    33    31    1
    12    36    44    1
    13    36    35    1
    14    35    30    1
    15    32    31    1
    16    31    29    1
    17    30    29    1
    18    25    24    2
    19    27    28    1
    20    27    24    1
    21    29    28    1
    22    24    23    1
    23    24    26    1
    24    23     1    1
    25     3     1    2
    26     1     2    1
    27     1     4    1
    28     4     5    1
    29     5     6    1
    30     6     7    1
    31     6     8    1
    32     7    12    1
    33     8    10    1
    34     8     9    1
    35    14    15    1
    36    14    13    1
    37    15    16    2
    38    10    12    1
    39    10    11    1
    40    12    13    1
    41    13    22    1
    42    16    22    1
    43    16    17    1
    44    22    21    2
    45    18    17    1
    46    17    19    2
    47    21    20    1
    48    19    20    1
