@<TRIPOS>MOLECULE
3oa0_HP7_A_1.pdb
 40 42 0 0 0
SMALL
GASTEIGER

@<TRIPOS>ATOM
      1  N1        18.0580   48.5860   28.9380 N.am  312  HP7312     -0.1766
      2  C2        18.6680   48.9640   30.0560 C.1   312  HP7312      0.2845
      3  O2        18.1260   49.7970   30.8220 O.2   312  HP7312     -0.1918
      4  N3        19.8750   48.4460   30.3280 N.2   312  HP7312     -0.2452
      5  C4        20.5330   47.5570   29.5450 C.1   312  HP7312      0.2182
      6  O4        21.6640   47.1290   29.9050 O.2   312  HP7312     -0.2085
      7  C5        19.8950   47.1660   28.3730 C.2   312  HP7312      0.1242
      8  C6        18.6310   47.7070   28.1010 C.2   312  HP7312      0.0929
      9  PA        15.2100   46.3710   25.4000 P.3   312  HP7312      0.2189
     10  PB        16.4600   44.0290   26.4420 P.3   312  HP7312      0.2208
     11  O'P       21.4980   46.1040   25.0390 O.co2 312  HP7312     -0.2429
     12  O'Q       22.9020   45.3660   26.4840 O.co2 312  HP7312     -0.2429
     13  C1'       18.7610   43.2750   25.3460 C.3   312  HP7312      0.2637
     14  O1A       15.9220   47.2730   24.4230 O.2   312  HP7312     -0.5170
     15  O1B       15.9260   43.1590   25.3220 O.2   312  HP7312     -0.5170
     16  C1C       16.7410   49.2170   28.8210 C.3   312  HP7312      0.2401
     17  C2'       19.2640   41.8300   25.3230 C.3   312  HP7312      0.1845
     18  N2'       18.1340   40.9050   25.4020 N.am  312  HP7312     -0.1992
     19  O2A       14.2100   45.3480   24.9140 O.3   312  HP7312     -0.4371
     20  O2B       15.7780   43.9930   27.7980 O.3   312  HP7312     -0.4371
     21  C2C       16.3090   49.5440   27.4050 C.3   312  HP7312      0.2319
     22  O2C       16.6320   50.9150   27.1790 O.3   312  HP7312     -0.2157
     23  C3'       20.4650   41.5930   26.2460 C.3   312  HP7312      0.2099
     24  O3'       21.0190   40.2920   25.9840 O.3   312  HP7312     -0.2183
     25  O3A       16.4410   45.6120   26.1140 O.3   312  HP7312     -0.2703
     26  O3B       18.0290   43.6360   26.5250 O.3   312  HP7312     -0.2864
     27  C3C       14.8030   49.3700   27.4770 C.3   312  HP7312      0.2158
     28  O3C       14.2430   50.6160   27.8970 O.3   312  HP7312     -0.2175
     29  C4'       21.5210   42.6910   26.0600 C.3   312  HP7312      0.2221
     30  O4'       22.5990   42.5780   27.0050 O.3   312  HP7312     -0.2171
     31  C4C       14.5620   48.3550   28.5800 C.3   312  HP7312      0.1799
     32  O4C       15.7060   48.4330   29.4360 O.3   312  HP7312     -0.3320
     33  C5'       20.8820   44.0800   26.1370 C.3   312  HP7312      0.2529
     34  O5'       19.8830   44.1290   25.1220 O.3   312  HP7312     -0.3173
     35  C5C       14.4360   47.0110   27.8770 C.3   312  HP7312      0.1813
     36  O5C       14.4780   47.3140   26.4820 O.3   312  HP7312     -0.3112
     37  C6'       21.8120   45.2400   25.8850 C.2   312  HP7312      0.3941
     38  C7'       17.2570   40.8430   24.3910 C.2   312  HP7312      0.2420
     39  O7'       17.4860   41.4350   23.3480 O.2   312  HP7312     -0.2733
     40  C8'       15.9740   40.0690   24.4800 C.3   312  HP7312      0.0964
@<TRIPOS>BOND
     1    39    38    2
     2    38    40    1
     3    38    18   am
     4    14     9    2
     5    19     9    1
     6    11    37   ar
     7    34    13    1
     8    34    33    1
     9    15    10    2
    10    17    13    1
    11    17    18    1
    12    17    23    1
    13    13    26    1
    14     9    25    1
    15     9    36    1
    16    37    33    1
    17    37    12   ar
    18    24    23    1
    19    29    33    1
    20    29    23    1
    21    29    30    1
    22    25    10    1
    23    10    26    1
    24    10    20    1
    25    36    35    1
    26    22    21    1
    27    21    27    1
    28    21    16    1
    29    27    28    1
    30    27    31    1
    31    35    31    1
    32     8     7    2
    33     8     1    1
    34     7     5    1
    35    31    32    1
    36    16     1    1
    37    16    32    1
    38     1     2   am
    39     5     6    2
    40     5     4    2
    41     2     4    2
    42     2     3    2
