@<TRIPOS>MOLECULE
3oa2_NAD_A_1.pdb
 44 48 0 0 0
SMALL
GASTEIGER

@<TRIPOS>ATOM
      1  PA        69.6630   12.2380   43.5270 P.3   317  NAD317      0.2189
      2  O1A       68.5220   12.9550   44.2090 O.3   317  NAD317     -0.4371
      3  O2A       70.6040   13.1310   42.6720 O.2   317  NAD317     -0.5170
      4  O5B       69.1580   11.1410   42.5170 O.3   317  NAD317     -0.3112
      5  C5B       67.9450   10.5800   42.8790 C.3   317  NAD317      0.1813
      6  C4B       67.1830   10.1800   41.6370 C.3   317  NAD317      0.1821
      7  O4B       66.0250    9.3690   42.0280 O.3   317  NAD317     -0.3135
      8  C3B       66.6630   11.5070   41.0480 C.3   317  NAD317      0.2184
      9  O3B       67.0040   11.6420   39.6730 O.3   317  NAD317     -0.2174
     10  C2B       65.1290   11.3920   41.3060 C.3   317  NAD317      0.2570
     11  O2B       64.3490   12.0780   40.3340 O.3   317  NAD317     -0.2130
     12  C1B       64.9280    9.8700   41.1930 C.3   317  NAD317      0.3186
     13  N9A       63.6630    9.4440   41.7720 N.pl3 317  NAD317     -0.1439
     14  C8A       62.9170    9.9890   42.8150 C.3   317  NAD317      0.3377
     15  N7A       61.8890    9.2350   43.0210 N.2   317  NAD317     -0.2095
     16  C5A       61.9120    8.1670   42.1570 C.2   317  NAD317      0.2526
     17  C6A       61.0880    7.0530   41.8830 C.2   317  NAD317      0.4393
     18  N6A       59.9200    6.8150   42.5780 N.pl3 317  NAD317      0.2180
     19  N1A       61.4780    6.2280   40.9130 N.2   317  NAD317      0.0021
     20  C2A       62.5970    6.4270   40.1800 C.3   317  NAD317      0.5254
     21  N3A       63.3900    7.4740   40.3860 N.2   317  NAD317     -0.0055
     22  C4A       63.0590    8.3140   41.4030 C.2   317  NAD317      0.3518
     23  O3        70.4150   11.5700   44.6850 O.3   317  NAD317     -0.2703
     24  PN        71.8070   10.7060   44.5500 P.3   317  NAD317      0.2189
     25  O1N       72.8470   11.5710   45.3150 O.3   317  NAD317     -0.4371
     26  O2N       72.1970   10.2930   43.1660 O.co2 317  NAD317     -0.5170
     27  O5D       71.6620    9.5220   45.5400 O.3   317  NAD317     -0.3112
     28  C5D       71.0490    8.3780   45.0390 C.3   317  NAD317      0.1813
     29  C4D       71.2170    7.0970   45.8600 C.3   317  NAD317      0.1799
     30  O4D       72.6670    6.8560   45.7750 O.3   317  NAD317     -0.3327
     31  C3D       70.9120    7.2960   47.3760 C.3   317  NAD317      0.2158
     32  O3D       70.5310    6.0790   48.0110 O.3   317  NAD317     -0.2175
     33  C2D       72.2790    7.7960   47.8900 C.3   317  NAD317      0.2309
     34  O2D       72.4830    7.4160   49.2580 O.3   317  NAD317     -0.2158
     35  C1D       73.2760    6.9330   47.0890 C.3   317  NAD317      0.2263
     36  N1N       74.6430    7.4950   46.9380 N.pl3 317  NAD317     -0.2787
     37  C2N       75.6380    6.6390   47.1480 C.3   317  NAD317      0.1244
     38  C3N       76.9530    7.0850   47.0560 C.2   317  NAD317      0.0544
     39  C7N       78.0650    6.1220   47.3240 C.2   317  NAD317      0.2818
     40  O7N       79.1390    6.5770   47.7080 O.2   317  NAD317     -0.2670
     41  N7N       77.9160    4.7670   47.1890 N.am  317  NAD317     -0.0839
     42  C4N       77.1630    8.4260   46.6480 C.2   317  NAD317      0.0033
     43  C5N       76.0770    9.2770   46.3850 C.2   317  NAD317      0.0157
     44  C6N       74.7910    8.7550   46.5500 C.2   317  NAD317      0.0633
@<TRIPOS>UNITY_ATOM_ATTR
26 1
charge -1
@<TRIPOS>BOND
     1     9     8    1
     2    20    21    1
     3    20    19    1
     4    11    10    1
     5    21    22    2
     6    19    17    2
     7     8    10    1
     8     8     6    1
     9    12    10    1
    10    12    13    1
    11    12     7    1
    12    22    13    1
    13    22    16    1
    14     6     7    1
    15     6     5    1
    16    13    14    1
    17    17    16    1
    18    17    18    1
    19    16    15    2
    20     4     5    1
    21     4     1    1
    22     3     1    2
    23    14    15    1
    24    26    24    2
    25     1     2    1
    26     1    23    1
    27    24    23    1
    28    24    25    1
    29    24    27    1
    30    28    27    1
    31    28    29    1
    32    30    29    1
    33    30    35    1
    34    29    31    1
    35    43    44    2
    36    43    42    1
    37    44    36    1
    38    42    38    2
    39    36    35    1
    40    36    37    1
    41    38    37    1
    42    38    39    1
    43    35    33    1
    44    41    39   am
    45    39    40    2
    46    31    33    1
    47    31    32    1
    48    33    34    1
