@<TRIPOS>MOLECULE
3oa6_III_G_1.pdb
 41 41 0 0 0
SMALL
GASTEIGER

@<TRIPOS>ATOM
      1  N         -0.7400  -15.4310   21.9340 N.3    18  HIS18      -0.1227
      2  CA         0.7240  -15.2410   22.1410 C.3    18  HIS18       0.1749
      3  C          1.0040  -14.0690   23.0730 C.2    18  HIS18       0.2596
      4  O          2.1540  -13.7460   23.3740 O.2    18  HIS18      -0.2718
      5  CB         1.4070  -15.0170   20.7940 C.3    18  HIS18       0.0718
      6  CG         0.5440  -14.3140   19.7920 C.2    18  HIS18       0.0650
      7  ND1        0.4250  -12.9400   19.7390 N.2    18  HIS18      -0.2310
      8  CD2       -0.2420  -14.7970   18.8020 C.3    18  HIS18       0.1683
      9  CE1       -0.3970  -12.6090   18.7590 C.2    18  HIS18       0.1939
     10  NE2       -0.8150  -13.7170   18.1750 N.2    18  HIS18      -0.2440
     11  N         -0.0630  -13.4470   23.5460 N.am   19  ARG19      -0.1966
     12  CA         0.0680  -12.2520   24.3800 C.3    19  ARG19       0.1729
     13  C         -0.6480  -12.3220   25.7060 C.2    19  ARG19       0.2616
     14  O         -1.8300  -12.6460   25.7960 O.2    19  ARG19      -0.2715
     15  CB        -0.4410  -11.0190   23.6250 C.3    19  ARG19       0.0348
     16  CG        -0.1190   -9.6960   24.3160 C.3    19  ARG19       0.0492
     17  CD         1.2010   -9.1300   23.8020 C.3    19  ARG19       0.2205
     18  NE         1.1280   -8.7220   22.4010 N.pl3  19  ARG19      -0.0865
     19  CZ         1.3110   -9.5450   21.3730 C.cat  19  ARG19       0.5346
     20  NH1        1.5650  -10.8300   21.5840 N.pl3  19  ARG19       0.1354
     21  NH2        1.2310   -9.0850   20.1370 N.pl3  19  ARG19       0.1354
     22  N          0.1200  -11.9800   26.7250 N.am   20  LYS20      -0.1963
     23  CA        -0.3910  -11.5530   28.0390 C.3    20  LYS20       0.1728
     24  CB        -1.0880  -10.2010   27.8210 C.3    20  LYS20       0.0311
     25  CG        -1.1920   -9.3760   29.1030 C.3    20  LYS20       0.0038
     26  CD        -0.4890   -8.0310   28.9470 C.3    20  LYS20       0.0189
     27  CE        -0.9470   -7.2380   27.7300 C.3    20  LYS20       0.0888
     28  NZ        -1.0190   -5.8290   28.0320 N.3    20  LYS20      -0.2165
     29  CM        -2.2870   -5.2280   28.3770 C.3    20  LYS20       0.1075
     30  C         -1.2910  -12.5020   28.7880 C.2    20  LYS20       0.2616
     31  O         -1.0120  -13.6940   28.8970 O.2    20  LYS20      -0.2715
     32  N         -2.3920  -11.9600   29.2910 N.am   21  VAL21      -0.1963
     33  CA        -3.2590  -12.6800   30.2290 C.3    21  VAL21       0.1728
     34  C         -4.6340  -13.0220   29.6820 C.2    21  VAL21       0.2616
     35  O         -5.2970  -12.2250   29.0190 O.2    21  VAL21      -0.2715
     36  CB        -3.4550  -11.8710   31.5280 C.3    21  VAL21       0.0334
     37  N         -5.0580  -14.2320   30.0050 N.am   22  LEU22      -0.1977
     38  CA        -6.4300  -14.6740   29.7160 C.3    22  LEU22       0.1597
     39  C         -7.4250  -13.7480   30.4140 C.2    22  LEU22       0.2287
     40  O         -7.2290  -12.5300   30.4610 O.2    22  LEU22      -0.2864
     41  CB        -6.6680  -16.1280   30.1570 C.3    22  LEU22       0.0319
@<TRIPOS>BOND
     1    10     9    2
     2    10     8    1
     3     9     7    1
     4     8     6    1
     5     7     6    2
     6     6     5    1
     7    21    19    1
     8     5     2    1
     9    19    20    1
    10    19    18    2
    11     1     2    1
    12     2     3    1
    13    18    17    1
    14     3     4    2
    15     3    11   am
    16    11    12    1
    17    15    16    1
    18    15    12    1
    19    17    16    1
    20    12    13    1
    21    13    14    2
    22    13    22   am
    23    22    23    1
    24    27    28    1
    25    27    26    1
    26    24    23    1
    27    24    25    1
    28    28    29    1
    29    23    30    1
    30    30    31    2
    31    30    32   am
    32    26    25    1
    33    35    34    2
    34    32    33    1
    35    34    37   am
    36    34    33    1
    37    38    37    1
    38    38    41    1
    39    38    39    1
    40    33    36    1
    41    39    40    2
