@<TRIPOS>MOLECULE
3oa8_HEC_A_1.pdb
 43 50 0 0 0
SMALL
GASTEIGER

@<TRIPOS>ATOM
      1 FE        -26.8810   17.7420   17.2130 Fe    401  HEC401      0.0000
      2  CHA      -28.0250   19.1640   14.3590 C.2   401  HEC401      0.0000
      3  CHB      -30.0060   18.0710   18.5970 C.2   401  HEC401      0.0000
      4  CHC      -25.8360   16.0100   19.8780 C.2   401  HEC401      0.0000
      5  CHD      -23.6770   17.9130   16.0150 C.2   401  HEC401      0.0000
      6  NA       -28.6540   18.4650   16.6040 N.2   401  HEC401      0.0000
      7  C1A      -28.9210   19.0410   15.3800 C.2   401  HEC401      0.0000
      8  C2A      -30.3010   19.4670   15.3100 C.2   401  HEC401      0.0000
      9  C3A      -30.8590   19.1630   16.4860 C.2   401  HEC401      0.0000
     10  C4A      -29.8280   18.5220   17.3160 C.2   401  HEC401      0.0000
     11  CMA      -32.3190   19.4140   16.9430 C.3   401  HEC401      0.0000
     12  CAA      -30.9850   20.1280   14.0820 C.3   401  HEC401      0.0000
     13  CBA      -30.4160   21.5260   13.8860 C.3   401  HEC401      0.0000
     14  CGA      -31.0500   22.2580   12.7200 C.2   401  HEC401      0.0000
     15  O1A      -31.6320   21.6060   11.8030 O.co2 401  HEC401      0.0000
     16  O2A      -30.9450   23.5200   12.7310 O.co2 401  HEC401      0.0000
     17  NB       -27.7680   17.1760   18.9290 N.ar  401  HEC401      0.0000
     18  C1B      -29.0790   17.3010   19.2810 C.ar  401  HEC401      0.0000
     19  C2B      -29.3530   16.4290   20.4070 C.ar  401  HEC401      0.0000
     20  C3B      -28.1810   15.8590   20.7810 C.ar  401  HEC401      0.0000
     21  C4B      -27.1650   16.2960   19.8250 C.ar  401  HEC401      0.0000
     22  CMB      -30.7420   16.3290   21.1020 C.3   401  HEC401      0.0000
     23  CAB      -27.9770   14.8480   21.9270 C.3   401  HEC401      0.0000
     24  CBB      -28.9010   13.5910   21.8050 C.3   401  HEC401      0.0000
     25  NC       -25.1050   17.1040   17.8210 N.2   401  HEC401      0.0000
     26  C1C      -24.8700   16.4350   19.0080 C.2   401  HEC401      0.0000
     27  C2C      -23.4510   16.2050   19.1610 C.2   401  HEC401      0.0000
     28  C3C      -22.8710   16.7050   18.0420 C.2   401  HEC401      0.0000
     29  C4C      -23.8930   17.2860   17.2310 C.2   401  HEC401      0.0000
     30  CMC      -22.8170   15.4530   20.3510 C.3   401  HEC401      0.0000
     31  CAC      -21.3960   16.7290   17.5750 C.3   401  HEC401      0.0000
     32  CBC      -20.3950   15.7680   18.2240 C.3   401  HEC401      0.0000
     33  ND       -26.0020   18.4400   15.5050 N.ar  401  HEC401      0.0000
     34  C1D      -24.6530   18.3510   15.1990 C.ar  401  HEC401      0.0000
     35  C2D      -24.4320   18.7800   13.8230 C.ar  401  HEC401      0.0000
     36  C3D      -25.7960   19.1550   13.3240 C.ar  401  HEC401      0.0000
     37  C4D      -26.6950   18.9400   14.4380 C.ar  401  HEC401      0.0000
     38  CMD      -23.0970   18.8630   13.0620 C.3   401  HEC401      0.0000
     39  CAD      -26.1320   19.7240   11.9370 C.3   401  HEC401      0.0000
     40  CBD      -26.0130   21.2450   12.0930 C.3   401  HEC401      0.0000
     41  CGD      -26.0860   21.9430   10.7560 C.2   401  HEC401      0.0000
     42  O1D      -25.5190   23.0710   10.6500 O.co2 401  HEC401      0.0000
     43  O2D      -26.6980   21.3710    9.8040 O.co2 401  HEC401      0.0000
@<TRIPOS>BOND
     1    43    41   ar
     2    42    41   ar
     3    41    40    1
     4    15    14   ar
     5    39    40    1
     6    39    36    1
     7    14    16   ar
     8    14    13    1
     9    38    35    1
    10    36    35   ar
    11    36    37   ar
    12    35    34   ar
    13    13    12    1
    14    12     8    1
    15     2    37    2
    16     2     7    1
    17    37    33   ar
    18    34    33   ar
    19    34     5    2
    20     8     7    1
    21     8     9    2
    22     7     6    2
    23    33     1    1
    24     5    29    1
    25     9    11    1
    26     9    10    1
    27     6     1    1
    28     6    10    1
    29     1    25    1
    30     1    17    1
    31    29    25    2
    32    29    28    1
    33    10     3    2
    34    31    28    1
    35    31    32    1
    36    25    26    1
    37    28    27    2
    38     3    18    1
    39    17    18   ar
    40    17    21   ar
    41    26    27    1
    42    26     4    2
    43    27    30    1
    44    18    19   ar
    45    21     4    1
    46    21    20   ar
    47    19    20   ar
    48    19    22    1
    49    20    23    1
    50    24    23    1
