@<TRIPOS>MOLECULE
3oaa_ADP_b_1.pdb
 27 29 0 0 0
SMALL
GASTEIGER

@<TRIPOS>ATOM
      1  PB        -4.0650  -26.3920 -120.4850 P.3   600  ADP600      0.5373
      2  O1B       -3.1530  -25.2350 -120.4000 O.3   600  ADP600     -0.1143
      3  O2B       -3.1850  -27.6760 -120.4820 O.2   600  ADP600     -0.2221
      4  O3B       -5.0280  -26.4010 -119.3400 O.3   600  ADP600     -0.1143
      5  PA        -3.9640  -26.3520 -123.1580 P.3   600  ADP600      0.2231
      6  O1A       -3.0140  -25.2320 -123.1100 O.3   600  ADP600     -0.4370
      7  O2A       -3.2480  -27.6240 -123.2880 O.2   600  ADP600     -0.5169
      8  O3A       -4.7920  -26.3240 -121.8690 O.3   600  ADP600     -0.2261
      9  O5'       -4.8970  -26.1170 -124.3850 O.3   600  ADP600     -0.3111
     10  C5'       -6.2050  -26.6070 -124.3800 C.3   600  ADP600      0.1813
     11  C4'       -7.1700  -25.9020 -125.1800 C.3   600  ADP600      0.1821
     12  O4'       -6.8200  -24.4860 -125.2860 O.3   600  ADP600     -0.3135
     13  C3'       -7.1450  -26.3930 -126.5670 C.3   600  ADP600      0.2184
     14  O3'       -8.1580  -27.2870 -126.7910 O.3   600  ADP600     -0.2174
     15  C2'       -7.3240  -25.2040 -127.4130 C.3   600  ADP600      0.2570
     16  O2'       -8.4640  -25.2950 -128.1390 O.3   600  ADP600     -0.2130
     17  C1'       -7.4160  -24.0500 -126.4760 C.3   600  ADP600      0.3186
     18  N9        -6.7760  -22.8980 -127.0720 N.pl3 600  ADP600     -0.1439
     19  C8        -5.6670  -22.2780 -126.6390 C.3   600  ADP600      0.3377
     20  N7        -5.3840  -21.2500 -127.4650 N.2   600  ADP600     -0.2095
     21  C5        -6.3130  -21.2070 -128.4370 C.2   600  ADP600      0.2526
     22  C6        -6.5320  -20.3820 -129.5460 C.2   600  ADP600      0.4393
     23  N6        -5.6020  -19.2460 -129.8470 N.pl3 600  ADP600      0.2180
     24  N1        -7.5950  -20.6220 -130.3410 N.2   600  ADP600      0.0021
     25  C2        -8.4330  -21.6310 -130.0860 C.3   600  ADP600      0.5254
     26  N3        -8.2550  -22.4470 -129.0230 N.2   600  ADP600     -0.0055
     27  C4        -7.2060  -22.2540 -128.1870 C.2   600  ADP600      0.3518
@<TRIPOS>BOND
     1    24    25    1
     2    24    22    2
     3    25    26    1
     4    23    22    1
     5    22    21    1
     6    26    27    2
     7    21    27    1
     8    21    20    2
     9    27    18    1
    10    16    15    1
    11    20    19    1
    12    15    13    1
    13    15    17    1
    14    18    19    1
    15    18    17    1
    16    14    13    1
    17    13    11    1
    18    17    12    1
    19    12    11    1
    20    11    10    1
    21     9    10    1
    22     9     5    1
    23     7     5    2
    24     5     6    1
    25     5     8    1
    26     8     1    1
    27     1     3    2
    28     1     2    1
    29     1     4    1
