@<TRIPOS>MOLECULE
3oaa_ANP_a_1.pdb
 31 33 0 0 0
SMALL
GASTEIGER

@<TRIPOS>ATOM
      1  PG       -25.4770  -43.8150 -108.8770 P.3   600  ANP600      0.4884
      2  O1G      -24.6600  -43.2090 -107.6980 O.3   600  ANP600     -0.1240
      3  O2G      -24.4400  -44.4560 -109.9010 O.2   600  ANP600     -0.2331
      4  O3G      -26.4790  -44.8880 -108.3570 O.3   600  ANP600     -0.1240
      5  PB       -25.6610  -42.1680 -111.2370 P.3   600  ANP600      0.4669
      6  O1B      -24.7770  -40.9450 -110.7190 O.3   600  ANP600     -0.1253
      7  O2B      -24.9430  -43.3000 -112.0850 O.2   600  ANP600     -0.2351
      8  N3B      -26.3450  -42.5430 -109.6710 N.3   600  ANP600     -0.0163
      9  PA       -27.9270  -42.2650 -112.7010 P.3   600  ANP600      0.2220
     10  O1A      -27.3470  -42.3090 -114.0520 O.2   600  ANP600     -0.5170
     11  O2A      -28.1840  -43.6610 -112.1310 O.3   600  ANP600     -0.4370
     12  O3A      -26.9830  -41.4510 -111.7920 O.3   600  ANP600     -0.2360
     13  O5'      -29.2500  -41.4520 -112.8040 O.3   600  ANP600     -0.3111
     14  C5'      -30.1520  -41.3640 -111.6910 C.3   600  ANP600      0.1813
     15  C4'      -31.4140  -40.9450 -112.0050 C.3   600  ANP600      0.1821
     16  O4'      -31.3240  -39.7910 -112.9310 O.3   600  ANP600     -0.3135
     17  C3'      -32.0930  -42.0190 -112.7350 C.3   600  ANP600      0.2184
     18  O3'      -33.3150  -42.2770 -112.1690 O.3   600  ANP600     -0.2174
     19  C2'      -32.2340  -41.5270 -114.1210 C.3   600  ANP600      0.2570
     20  O2'      -33.3150  -41.9570 -114.7180 O.3   600  ANP600     -0.2130
     21  C1'      -32.2130  -40.0350 -113.9830 C.3   600  ANP600      0.3186
     22  N9       -31.7730  -39.3880 -115.1600 N.pl3 600  ANP600     -0.1439
     23  C8       -30.5100  -39.3830 -115.5940 C.3   600  ANP600      0.3377
     24  N7       -30.4650  -38.6470 -116.7190 N.2   600  ANP600     -0.2095
     25  C5       -31.7020  -38.1800 -116.9830 C.2   600  ANP600      0.2526
     26  C6       -32.2270  -37.3930 -117.9760 C.2   600  ANP600      0.4393
     27  N6       -31.3770  -36.8880 -119.0330 N.pl3 600  ANP600      0.2180
     28  N1       -33.5360  -37.1000 -117.9560 N.2   600  ANP600      0.0021
     29  C2       -34.3400  -37.5640 -116.9790 C.3   600  ANP600      0.5254
     30  N3       -33.8640  -38.3200 -116.0120 N.2   600  ANP600     -0.0055
     31  C4       -32.5530  -38.6460 -115.9860 C.2   600  ANP600      0.3518
@<TRIPOS>BOND
     1    27    26    1
     2    26    28    2
     3    26    25    1
     4    28    29    1
     5    25    24    2
     6    25    31    1
     7    29    30    1
     8    24    23    1
     9    30    31    2
    10    31    22    1
    11    23    22    1
    12    22    21    1
    13    20    19    1
    14    19    21    1
    15    19    17    1
    16    10     9    2
    17    21    16    1
    18    16    15    1
    19    13     9    1
    20    13    14    1
    21    17    18    1
    22    17    15    1
    23     9    11    1
    24     9    12    1
    25     7     5    2
    26    15    14    1
    27    12     5    1
    28     5     6    1
    29     5     8    1
    30     3     1    2
    31     8     1    1
    32     1     4    1
    33     1     2    1
