@<TRIPOS>MOLECULE
3oab_IPE_D_1.pdb
 14 13 0 0 0
SMALL
GASTEIGER

@<TRIPOS>ATOM
      1  C1       -28.9180  -14.5390   21.0450 C.3   801  IPE801      0.1747
      2  O1       -27.9690  -15.1820   21.9150 O.3   801  IPE801     -0.3089
      3  C2       -28.1570  -14.8490   19.7640 C.2   801  IPE801     -0.0024
      4  C3       -28.3010  -15.9560   19.0240 C.2   801  IPE801     -0.0454
      5  C4       -29.2960  -17.1080   19.3120 C.3   801  IPE801      0.0261
      6  C5       -27.3480  -16.0090   17.9040 C.3   801  IPE801      0.0261
      7  PA       -27.8650  -15.0220   23.4410 P.3   801  IPE801      0.2233
      8  O1A      -28.9700  -15.8720   24.0830 O.3   801  IPE801     -0.4370
      9  O2A      -26.3830  -15.4180   23.6630 O.2   801  IPE801     -0.5169
     10  O3A      -28.1860  -13.6740   24.0130 O.3   801  IPE801     -0.2261
     11  PB       -27.5610  -13.0650   25.2580 P.3   801  IPE801      0.5373
     12  O1B      -26.2450  -12.3640   25.0410 O.2   801  IPE801     -0.2221
     13  O2B      -27.5050  -14.0740   26.3270 O.3   801  IPE801     -0.1143
     14  O3B      -28.4140  -11.8820   25.8310 O.3   801  IPE801     -0.1143
@<TRIPOS>BOND
     1     6     4    1
     2     4     5    1
     3     4     3    2
     4     3     1    1
     5     1     2    1
     6     2     7    1
     7     7     9    2
     8     7    10    1
     9     7     8    1
    10    10    11    1
    11    12    11    2
    12    11    14    1
    13    11    13    1
