@<TRIPOS>MOLECULE
3oab_DST_A_1.pdb
 14 13 0 0 0
SMALL
GASTEIGER

@<TRIPOS>ATOM
      1  O4       -16.6350   47.0400   24.3800 O.3   804  DST804     -0.1143
      2  P1       -15.5210   48.0620   24.4310 P.3   804  DST804      0.5394
      3  O6       -15.7560   48.6670   23.0180 O.2   804  DST804     -0.2220
      4  O5       -14.1490   47.4070   24.3330 O.3   804  DST804     -0.1143
      5  O2       -15.5340   49.1400   25.5260 O.3   804  DST804     -0.1955
      6  P3       -15.5000   48.8310   27.0170 P.3   804  DST804      0.4273
      7  O8       -15.3950   50.1440   27.7460 O.3   804  DST804     -0.1309
      8  O7       -16.7200   47.8400   27.1980 O.2   804  DST804     -0.2431
      9  S9       -13.8050   47.9330   27.6110 S.3   804  DST804     -0.0237
     10  C10      -13.8550   46.1260   27.4900 C.3   804  DST804      0.0942
     11  C11      -12.9310   45.5090   28.5180 C.2   804  DST804     -0.0224
     12  C12      -11.5790   45.7220   28.5900 C.2   804  DST804     -0.0470
     13  C13      -10.7710   46.6220   27.6320 C.3   804  DST804      0.0261
     14  C14      -10.8410   45.0220   29.6770 C.3   804  DST804      0.0261
@<TRIPOS>BOND
     1     3     2    2
     2     4     2    1
     3     1     2    1
     4     2     5    1
     5     5     6    1
     6     6     8    2
     7     6     9    1
     8     6     7    1
     9    10     9    1
    10    10    11    1
    11    13    12    1
    12    11    12    2
    13    12    14    1
