@<TRIPOS>MOLECULE
3oac_DST_D_1.pdb
 14 13 0 0 0
SMALL
GASTEIGER

@<TRIPOS>ATOM
      1  O4        37.4740   38.3140   49.2980 O.3   2002  DST2002    -0.1143
      2  P1        36.9040   39.6840   49.1070 P.3   2002  DST2002     0.5394
      3  O6        37.1240   40.2320   50.5360 O.3   2002  DST2002    -0.1143
      4  O5        35.4420   39.6560   48.9470 O.2   2002  DST2002    -0.2220
      5  O2        37.4560   40.5830   48.0260 O.3   2002  DST2002    -0.1955
      6  P3        38.9490   40.7120   47.6350 P.3   2002  DST2002     0.4273
      7  O8        39.3770   42.0840   48.1290 O.3   2002  DST2002    -0.1309
      8  O7        39.6050   39.3390   48.0750 O.2   2002  DST2002    -0.2431
      9  S9        39.0050   40.7460   45.6120 S.3   2002  DST2002    -0.0237
     10  C10       37.4480   40.0720   44.9830 C.3   2002  DST2002     0.0942
     11  C11       37.5860   39.2960   43.6810 C.2   2002  DST2002    -0.0224
     12  C12       37.5450   39.8390   42.4240 C.2   2002  DST2002    -0.0470
     13  C13       37.7040   38.9270   41.2340 C.3   2002  DST2002     0.0261
     14  C14       37.3500   41.3380   42.1700 C.3   2002  DST2002     0.0261
@<TRIPOS>BOND
     1    13    12    1
     2    14    12    1
     3    12    11    2
     4    11    10    1
     5    10     9    1
     6     9     6    1
     7     6     5    1
     8     6     8    2
     9     6     7    1
    10     5     2    1
    11     4     2    2
    12     2     1    1
    13     2     3    1
