@<TRIPOS>MOLECULE
3oac_IPE_D_1.pdb
 14 13 0 0 0
SMALL
GASTEIGER

@<TRIPOS>ATOM
      1  C1        32.8770   41.1310   46.2680 C.3   2001  IPE2001     0.1747
      2  O1        31.6190   41.4710   45.6860 O.3   2001  IPE2001    -0.3089
      3  C2        33.9880   41.6570   45.3520 C.2   2001  IPE2001    -0.0024
      4  C3        34.7420   42.8040   45.5200 C.2   2001  IPE2001    -0.0454
      5  C4        34.6110   43.7920   46.6930 C.3   2001  IPE2001     0.0261
      6  C5        35.7630   43.1280   44.4850 C.3   2001  IPE2001     0.0261
      7  PA        30.2770   41.5150   46.5040 P.3   2001  IPE2001     0.2233
      8  O1A       30.5820   42.2770   47.8270 O.3   2001  IPE2001    -0.4370
      9  O2A       29.3080   42.0690   45.5060 O.2   2001  IPE2001    -0.5169
     10  O3A       29.6890   40.2580   47.1410 O.3   2001  IPE2001    -0.2261
     11  PB        28.3860   39.5230   46.8290 P.3   2001  IPE2001     0.5373
     12  O1B       28.1700   38.8370   45.4740 O.2   2001  IPE2001    -0.2221
     13  O2B       27.2170   40.3560   47.2960 O.3   2001  IPE2001    -0.1143
     14  O3B       28.2900   38.2740   47.7210 O.3   2001  IPE2001    -0.1143
@<TRIPOS>BOND
     1     6     4    1
     2     3     4    2
     3     3     1    1
     4    12    11    2
     5     9     7    2
     6     4     5    1
     7     2     1    1
     8     2     7    1
     9     7    10    1
    10     7     8    1
    11    11    10    1
    12    11    13    1
    13    11    14    1
