@<TRIPOS>MOLECULE
3oad_LPO_A_1.pdb
 44 48 0 0 0
SMALL
GASTEIGER

@<TRIPOS>ATOM
      1  C1        24.4060   -6.2150    2.7660 C.3   167  LPO167      0.0540
      2  C2        23.9170   -6.2260    4.2060 C.3   167  LPO167      0.0916
      3  N3        24.8310   -6.8160    5.1760 N.3   167  LPO167     -0.2174
      4  C4        26.2760   -6.7320    5.0900 C.3   167  LPO167      0.1006
      5  C5        26.7450   -6.8380    3.6500 C.3   167  LPO167      0.1259
      6  C6        25.9030   -5.9530    2.7080 C.3   167  LPO167      0.1575
      7  C7        28.1890   -6.3940    3.5140 C.2   167  LPO167      0.2295
      8  N8        29.0470   -7.1060    2.7560 N.am  167  LPO167     -0.2769
      9  O9        26.1930   -4.5960    3.0710 O.3   167  LPO167     -0.2205
     10  C10       26.3730   -6.1550    1.2990 C.ar  167  LPO167      0.0250
     11  C11       25.8530   -7.1480    0.4570 C.ar  167  LPO167      0.1001
     12  N12       26.3100   -7.2910   -0.7920 N.ar  167  LPO167     -0.2104
     13  C13       27.3180   -6.4800   -1.2490 C.ar  167  LPO167      0.2250
     14  C14       27.8600   -5.4930   -0.4440 C.ar  167  LPO167      0.0575
     15  C15       27.3750   -5.3090    0.8480 C.ar  167  LPO167      0.0044
     16  O16       27.8430   -6.5630   -2.5090 O.3   167  LPO167     -0.4561
     17  C17       27.6400   -7.6570   -3.3780 C.3   167  LPO167      0.2542
     18  C18       28.9700   -7.8730   -4.0700 C.3   167  LPO167      0.2526
     19  O19       29.5750   -8.9870   -3.4260 O.3   167  LPO167     -0.4697
     20  C20       30.9290   -9.1390   -3.4290 C.ar  167  LPO167      0.1596
     21  C21       31.6230   -9.5180   -4.5600 C.ar  167  LPO167      0.0921
     22  C22       33.0050   -9.6510   -4.5030 C.ar  167  LPO167      0.0103
     23  C23       33.6720   -9.4260   -3.3040 C.ar  167  LPO167     -0.0200
     24  C24       32.9650   -9.0500   -2.1610 C.ar  167  LPO167      0.0103
     25  C25       31.5850   -8.9240   -2.2440 C.ar  167  LPO167      0.0921
     26 CL26       30.5730   -8.4710   -0.8530 Cl    167  LPO167     -0.0791
     27 CL27       30.7270   -9.8440   -6.0710 Cl    167  LPO167     -0.0791
     28  C28       35.1650   -9.5700   -3.2350 C.3   167  LPO167      0.0311
     29  O29       28.5570   -5.3580    4.0840 O.2   167  LPO167     -0.2747
     30  C30       30.4260   -6.6640    2.5470 C.3   167  LPO167      0.1209
     31  C31       28.6700   -8.3370    1.9920 C.3   167  LPO167      0.0758
     32  C32       31.4730   -7.0620    3.5680 C.ar  167  LPO167      0.0079
     33  C33       31.2040   -7.7810    4.7290 C.ar  167  LPO167     -0.0060
     34  C34       32.2240   -8.1330    5.6190 C.ar  167  LPO167     -0.0199
     35  C35       33.5330   -7.7770    5.3600 C.ar  167  LPO167     -0.0033
     36  C36       33.8070   -7.0770    4.1990 C.ar  167  LPO167      0.0108
     37  C37       32.7780   -6.7120    3.3220 C.ar  167  LPO167      0.0553
     38  C38       28.2440   -9.4630    2.9250 C.3   167  LPO167      0.0215
     39  C39       29.6110   -9.5210    2.2630 C.3   167  LPO167      0.0215
     40 CL40       33.1740   -5.8050    1.8230 Cl    167  LPO167     -0.0825
     41  C41       31.9200   -8.9350    6.8700 C.3   167  LPO167      0.0584
     42  C42       32.1490  -10.4020    6.4850 C.3   167  LPO167      0.1469
     43  O43       31.7530  -11.3980    7.4380 O.3   167  LPO167     -0.3507
     44  C44       30.7070  -11.0300    8.3500 C.3   167  LPO167      0.1741
@<TRIPOS>BOND
     1    27    21    1
     2    21    22   ar
     3    21    20   ar
     4    22    23   ar
     5    18    19    1
     6    18    17    1
     7    20    19    1
     8    20    25   ar
     9    17    16    1
    10    23    28    1
    11    23    24   ar
    12    16    13    1
    13    25    24   ar
    14    25    26    1
    15    13    12   ar
    16    13    14   ar
    17    12    11   ar
    18    14    15   ar
    19    11    10   ar
    20    15    10   ar
    21    10     6    1
    22    40    37    1
    23    31    39    1
    24    31     8    1
    25    31    38    1
    26    39    38    1
    27    30     8    1
    28    30    32    1
    29     6     1    1
    30     6     9    1
    31     6     5    1
    32     8     7   am
    33     1     2    1
    34    37    32   ar
    35    37    36   ar
    36     7     5    1
    37     7    29    2
    38    32    33   ar
    39     5     4    1
    40    36    35   ar
    41     2     3    1
    42    33    34   ar
    43     4     3    1
    44    35    34   ar
    45    34    41    1
    46    42    41    1
    47    42    43    1
    48    43    44    1
