@<TRIPOS>MOLECULE
3oae_JHM_A_1.pdb
 15 15 0 0 0
SMALL
GASTEIGER

@<TRIPOS>ATOM
      1  S         -8.6960  -34.7730   23.9990 S.3   507  JHM507     -0.0001
      2  C1       -11.3530  -30.7900   21.1300 C.3   507  JHM507      0.2716
      3  O1       -11.3520  -29.4090   21.5660 O.3   507  JHM507     -0.1898
      4  C2       -12.7690  -31.3370   21.2070 C.3   507  JHM507      0.0999
      5  C3       -13.2260  -31.1930   22.6620 C.3   507  JHM507      0.1898
      6  O3       -14.5550  -31.6300   22.7780 O.3   507  JHM507     -0.2201
      7  C4       -12.3030  -32.0920   23.5240 C.3   507  JHM507      0.2118
      8  O4       -12.6520  -31.9840   24.8850 O.3   507  JHM507     -0.2177
      9  C5       -10.8530  -31.5620   23.3280 C.3   507  JHM507      0.1825
     10  O5       -10.4880  -31.5580   21.9450 O.3   507  JHM507     -0.3255
     11  C6        -9.7560  -32.3420   24.0500 C.3   507  JHM507      0.2046
     12  O6        -9.6880  -33.6450   23.5260 O.3   507  JHM507     -0.2384
     13  O7        -7.4350  -34.4730   23.3540 O.2   507  JHM507     -0.3452
     14  O8        -9.2750  -36.0320   23.5770 O.2   507  JHM507     -0.3452
     15  O9        -8.6230  -34.6550   25.4420 O.3   507  JHM507     -0.2682
@<TRIPOS>BOND
     1     2     4    1
     2     2     3    1
     3     2    10    1
     4     4     5    1
     5    10     9    1
     6     5     6    1
     7     5     7    1
     8     9     7    1
     9     9    11    1
    10    13     1    2
    11     7     8    1
    12    12     1    1
    13    12    11    1
    14    14     1    2
    15     1    15    1
