@<TRIPOS>MOLECULE
3oae_IDS_B_1.pdb
 15 15 0 0 0
SMALL
GASTEIGER

@<TRIPOS>ATOM
      1  C1       -18.7530  -30.6520   32.7340 C.3   506  IDS506      0.1772
      2  C2       -18.0960  -30.0370   33.9330 C.3   506  IDS506      0.2028
      3  C3       -18.0220  -28.5110   33.8770 C.3   506  IDS506      0.1868
      4  C4       -19.3250  -27.8810   33.4190 C.3   506  IDS506      0.0768
      5  C5       -19.7370  -28.5680   32.1560 C.3   506  IDS506      0.2204
      6  C6       -20.9380  -27.9210   31.4700 C.2   506  IDS506      0.3914
      7  O2       -18.8280  -30.3650   35.0380 O.3   506  IDS506     -0.2385
      8  O3       -17.0290  -28.1590   32.9490 O.3   506  IDS506     -0.2203
      9  O5       -19.9400  -29.9470   32.4120 O.3   506  IDS506     -0.3422
     10  O61      -21.9390  -28.5800   31.1910 O.co2 506  IDS506     -0.2430
     11  O62      -20.9190  -26.7170   31.1800 O.co2 506  IDS506     -0.2430
     12  S        -18.3910  -31.2500   36.2080 S.3   506  IDS506     -0.0001
     13  O1S      -17.1580  -30.6890   36.6480 O.2   506  IDS506     -0.3452
     14  O2S      -19.4380  -31.1700   37.1680 O.3   506  IDS506     -0.2682
     15  O3S      -18.2370  -32.5570   35.6780 O.2   506  IDS506     -0.3452
@<TRIPOS>BOND
     1    11     6   ar
     2    10     6   ar
     3     6     5    1
     4     5     9    1
     5     5     4    1
     6     9     1    1
     7     1     2    1
     8     8     3    1
     9     4     3    1
    10     3     2    1
    11     2     7    1
    12     7    12    1
    13    15    12    2
    14    12    13    2
    15    12    14    1
