@<TRIPOS>MOLECULE
3oaf_OAG_A_1.pdb
 22 24 0 0 0
SMALL
GASTEIGER

@<TRIPOS>ATOM
      1  C1        -2.9690  -15.1060   -1.6290 C.3   187  OAG187      0.1401
      2  N1        -2.3780  -13.7100   -1.6360 N.pl3 187  OAG187     -0.2319
      3 CL2        -2.2540  -10.6050   -0.6920 Cl    187  OAG187     -0.0809
      4 CL5        -6.7630  -13.7800   -3.5800 Cl    187  OAG187     -0.0822
      5  C9        -2.8470  -17.1160   -0.0860 C.2   187  OAG187      0.0141
      6  C1'       -3.3870  -12.8590   -1.8370 C.ar  187  OAG187      0.0770
      7  N1'       -3.3100  -17.5210    3.4980 N.2   187  OAG187     -0.2706
      8  C10       -3.0890  -15.7440   -0.2030 C.2   187  OAG187      0.0201
      9  C11       -3.5200  -11.4870   -1.4930 C.ar  187  OAG187      0.0725
     10  C12       -5.7640  -11.4500   -2.4460 C.ar  187  OAG187      0.0123
     11  C2'       -3.0770  -18.8350    3.6260 C.1   187  OAG187      0.2517
     12  N2'       -3.0710  -19.4020    4.8800 N.pl3 187  OAG187     -0.0226
     13  C3'       -4.7080  -10.8030   -1.7920 C.ar  187  OAG187      0.0136
     14  N3'       -2.7600  -19.5830    2.5460 N.2   187  OAG187     -0.3061
     15  C4'       -2.7470  -19.1250    1.3100 C.2   187  OAG187      0.2431
     16  N4'       -2.4600  -19.9410    0.3060 N.pl3 187  OAG187     -0.0914
     17  C4A       -2.9250  -17.7340    1.1670 C.2   187  OAG187      0.1225
     18  C5'       -5.5980  -12.7990   -2.7890 C.ar  187  OAG187      0.0590
     19  C6'       -4.4380  -13.4790   -2.4750 C.ar  187  OAG187      0.0283
     20  C7'       -3.3850  -15.0140    0.9670 C.2   187  OAG187      0.1080
     21  N8'       -3.4640  -15.5840    2.1790 N.2   187  OAG187     -0.1817
     22  C8A       -3.2180  -16.9290    2.2900 C.1   187  OAG187      0.1049
@<TRIPOS>BOND
     1     4    18    1
     2    18    19   ar
     3    18    10   ar
     4    19     6   ar
     5    10    13   ar
     6     6     2    1
     7     6     9   ar
     8    13     9   ar
     9     2     1    1
    10     1     8    1
    11     9     3    1
    12     8     5    1
    13     8    20    2
    14     5    17    2
    15    16    15    1
    16    20    21    1
    17    17    15    1
    18    17    22    1
    19    15    14    2
    20    21    22    2
    21    22     7    2
    22    14    11    2
    23     7    11    2
    24    11    12    1
