@<TRIPOS>MOLECULE
3oag_LPQ_A_1.pdb
 44 49 0 0 0
SMALL
GASTEIGER

@<TRIPOS>ATOM
      1  C1        24.5230   -6.0440    2.9490 C.3   167  LPQ167      0.0237
      2  C2        24.1430   -6.3550    4.4020 C.3   167  LPQ167      0.0891
      3  N3        25.1640   -7.0420    5.1710 N.3   167  LPQ167     -0.2175
      4  C4        26.5340   -6.5420    5.0810 C.3   167  LPQ167      0.0981
      5  C5        26.9580   -6.5630    3.6080 C.3   167  LPQ167      0.0981
      6  C6        26.0030   -5.7140    2.7330 C.3   167  LPQ167      0.0353
      7  C7        26.4060   -5.9330    1.3080 C.ar  167  LPQ167     -0.0026
      8  C8        25.8840   -6.9640    0.5150 C.ar  167  LPQ167      0.0978
      9  N9        26.2980   -7.1330   -0.7570 N.ar  167  LPQ167     -0.2105
     10  C10       27.2550   -6.3340   -1.3050 C.ar  167  LPQ167      0.2250
     11  C11       27.8080   -5.3070   -0.5490 C.ar  167  LPQ167      0.0574
     12  C12       27.3860   -5.1070    0.7580 C.ar  167  LPQ167      0.0021
     13  O13       27.7150   -6.4780   -2.5960 O.3   167  LPQ167     -0.4561
     14  C14       27.5980   -7.6750   -3.3600 C.3   167  LPQ167      0.2542
     15  C15       28.3770   -6.1370    3.2840 C.2   167  LPQ167      0.2271
     16  O16       28.7510   -5.0350    3.6700 O.2   167  LPQ167     -0.2748
     17  N17       29.1760   -6.9380    2.5360 N.am  167  LPQ167     -0.2770
     18  C18       28.8810   -7.9000   -4.1510 C.3   167  LPQ167      0.2526
     19  O19       29.4640   -9.1500   -3.7520 O.3   167  LPQ167     -0.4697
     20  C20       30.8190   -9.2030   -3.5710 C.ar  167  LPQ167      0.1596
     21  C21       31.6330   -9.4900   -4.6450 C.ar  167  LPQ167      0.0921
     22  C22       33.0180   -9.5310   -4.5060 C.ar  167  LPQ167      0.0103
     23  C23       33.5790   -9.2960   -3.2560 C.ar  167  LPQ167     -0.0200
     24  C24       32.7690   -9.0080   -2.1660 C.ar  167  LPQ167      0.0103
     25  C25       31.3900   -8.9610   -2.3340 C.ar  167  LPQ167      0.0921
     26 CL26       30.8500   -9.8110   -6.2030 Cl    167  LPQ167     -0.0791
     27 CL27       30.3270   -8.5940   -0.9540 Cl    167  LPQ167     -0.0791
     28  C28       35.0700   -9.3470   -3.0830 C.3   167  LPQ167      0.0311
     29  C29       30.5130   -6.5740    2.0410 C.3   167  LPQ167      0.1209
     30  C30       28.7560   -8.2480    1.9840 C.3   167  LPQ167      0.0758
     31  C31       31.7500   -6.6210    2.9030 C.ar  167  LPQ167      0.0080
     32  C32       31.6620   -6.8330    4.2670 C.ar  167  LPQ167     -0.0046
     33  C33       32.8200   -6.8680    5.0310 C.ar  167  LPQ167     -0.0050
     34  C34       34.0690   -6.6940    4.4470 C.ar  167  LPQ167     -0.0020
     35  C35       34.1610   -6.4870    3.0730 C.ar  167  LPQ167      0.0109
     36  C36       33.0000   -6.4520    2.3090 C.ar  167  LPQ167      0.0553
     37 CL37       33.1700   -6.1840    0.5440 Cl    167  LPQ167     -0.0825
     38  C38       32.7090   -7.0760    6.5160 C.3   167  LPQ167      0.1149
     39  N39       32.6750   -5.7730    7.1880 N.3   167  LPQ167     -0.2147
     40  C40       28.5070   -9.2610    3.0980 C.3   167  LPQ167      0.0215
     41  C41       29.8030   -9.3240    2.3130 C.3   167  LPQ167      0.0215
     42  C42       31.6180   -4.7750    6.9790 C.3   167  LPQ167      0.0733
     43  C43       30.9260   -4.4060    8.2910 C.3   167  LPQ167      0.0188
     44  C44       30.2260   -5.3180    7.2850 C.3   167  LPQ167      0.0188
@<TRIPOS>BOND
     1    26    21    1
     2    21    22   ar
     3    21    20   ar
     4    22    23   ar
     5    18    19    1
     6    18    14    1
     7    19    20    1
     8    20    25   ar
     9    14    13    1
    10    23    28    1
    11    23    24   ar
    12    13    10    1
    13    25    24   ar
    14    25    27    1
    15    10     9   ar
    16    10    11   ar
    17     9     8   ar
    18    11    12   ar
    19     8     7   ar
    20    37    36    1
    21    12     7   ar
    22     7     6    1
    23    30    41    1
    24    30    17    1
    25    30    40    1
    26    29    17    1
    27    29    31    1
    28    36    31   ar
    29    36    35   ar
    30    41    40    1
    31    17    15   am
    32     6     1    1
    33     6     5    1
    34    31    32   ar
    35     1     2    1
    36    35    34   ar
    37    15     5    1
    38    15    16    2
    39     5     4    1
    40    32    33   ar
    41     2     3    1
    42    34    33   ar
    43    33    38    1
    44     4     3    1
    45    38    39    1
    46    42    39    1
    47    42    44    1
    48    42    43    1
    49    44    43    1
