@<TRIPOS>MOLECULE
3oah_OAH_A_1.pdb
 22 24 0 0 0
SMALL
GASTEIGER

@<TRIPOS>ATOM
      1  P        -47.2780   93.1790  240.0370 P.3   999  OAH999      0.5327
      2  N1       -43.3960   85.4400  244.0530 N.2   999  OAH999      0.0021
      3  C2       -43.7070   86.2380  243.0460 C.3   999  OAH999      0.5254
      4  N3       -44.6820   87.1250  243.1390 N.2   999  OAH999     -0.0055
      5  C4       -45.3920   87.2410  244.2710 C.2   999  OAH999      0.3518
      6  C5       -45.0960   86.4200  245.3500 C.2   999  OAH999      0.2526
      7  C6       -44.0620   85.5010  245.2140 C.2   999  OAH999      0.4393
      8  N6       -43.7300   84.7030  246.2250 N.pl3 999  OAH999      0.2180
      9  N7       -45.9350   86.7350  246.3320 N.2   999  OAH999     -0.2095
     10  C8       -46.7270   87.7110  245.8940 C.3   999  OAH999      0.3377
     11  N9       -46.3990   88.0260  244.6420 N.pl3 999  OAH999     -0.1460
     12  C1'      -47.0220   89.0780  243.8070 C.3   999  OAH999      0.2873
     13  O1P      -46.2840   93.7130  241.1850 O.3   999  OAH999     -0.1145
     14  C2'      -48.5140   89.2780  244.0640 C.3   999  OAH999      0.1151
     15  O2P      -46.3370   92.7520  238.8030 O.2   999  OAH999     -0.2224
     16  C3'      -48.8030   90.2110  242.8890 C.3   999  OAH999      0.1883
     17  O3'      -48.4450   91.5570  243.2130 O.3   999  OAH999     -0.2202
     18  O3P      -48.3080   94.1730  239.6630 O.3   999  OAH999     -0.1145
     19  C4'      -47.8840   89.6770  241.7860 C.3   999  OAH999      0.1796
     20  O4'      -47.0170   88.7180  242.4180 O.3   999  OAH999     -0.3155
     21  C5'      -47.0640   90.8350  241.2140 C.3   999  OAH999      0.1859
     22  O5'      -47.9110   91.8140  240.6090 O.3   999  OAH999     -0.2675
@<TRIPOS>BOND
     1    15     1    2
     2    18     1    1
     3     1    22    1
     4     1    13    1
     5    22    21    1
     6    21    19    1
     7    19    20    1
     8    19    16    1
     9    20    12    1
    10    16    17    1
    11    16    14    1
    12     3     4    1
    13     3     2    1
    14     4     5    2
    15    12    14    1
    16    12    11    1
    17     2     7    2
    18     5    11    1
    19     5     6    1
    20    11    10    1
    21     7     6    1
    22     7     8    1
    23     6     9    2
    24    10     9    1
