@<TRIPOS>MOLECULE
3oai_MAL_A_1.pdb
 23 24 0 0 0
SMALL
GASTEIGER

@<TRIPOS>ATOM
      1  C1        -8.7140   -5.9110   53.8860 C.3   1122  MAL1122     0.2695
      2  C2        -9.9950   -6.1080   54.6910 C.3   1122  MAL1122     0.2406
      3  C3       -10.9790   -4.9560   54.5210 C.3   1122  MAL1122     0.2198
      4  C4       -10.2330   -3.6440   54.7520 C.3   1122  MAL1122     0.2144
      5  C5        -9.1010   -3.4680   53.7290 C.3   1122  MAL1122     0.1835
      6  C6        -8.1660   -2.3000   54.0910 C.3   1122  MAL1122     0.2142
      7  O1        -9.4470   -6.0030   52.4260 O.3   1122  MAL1122    -0.3257
      8  O2       -10.6250   -7.3140   54.2740 O.3   1122  MAL1122    -0.2149
      9  O3       -11.9960   -5.1080   55.4960 O.3   1122  MAL1122    -0.2174
     10  O4       -11.1390   -2.5570   54.7070 O.3   1122  MAL1122    -0.2176
     11  O5        -8.2200   -4.5930   53.6890 O.3   1122  MAL1122    -0.3256
     12  O6        -7.3310   -2.1350   52.9610 O.3   1122  MAL1122    -0.2176
     13  C1'       -8.9640   -7.8470   48.6990 C.3   1122  MAL1122     0.3023
     14  C2'       -9.1310   -8.7290   49.9360 C.3   1122  MAL1122     0.2433
     15  C3'       -9.6900   -8.0050   51.1300 C.3   1122  MAL1122     0.2168
     16  C4'       -8.9310   -6.7000   51.3110 C.3   1122  MAL1122     0.1804
     17  C5'       -8.9900   -5.8410   50.0610 C.3   1122  MAL1122     0.1804
     18  C6'       -8.0830   -4.6320   50.2440 C.3   1122  MAL1122     0.2141
     19  O1'      -10.1810   -7.6990   48.0570 O.3   1122  MAL1122    -0.1869
     20  O2'      -10.0160   -9.8220   49.6960 O.3   1122  MAL1122    -0.2148
     21  O3'       -9.3940   -8.8420   52.2320 O.3   1122  MAL1122    -0.2175
     22  O5'       -8.4790   -6.5420   48.9280 O.3   1122  MAL1122    -0.3237
     23  O6'       -8.3140   -3.7290   49.1870 O.3   1122  MAL1122    -0.2176
@<TRIPOS>BOND
     1    19    13    1
     2    13    22    1
     3    13    14    1
     4    22    17    1
     5    23    18    1
     6    20    14    1
     7    14    15    1
     8    17    18    1
     9    17    16    1
    10    15    16    1
    11    15    21    1
    12    16     7    1
    13     7     1    1
    14    12     6    1
    15    11     5    1
    16    11     1    1
    17     5     6    1
    18     5     4    1
    19     1     2    1
    20     8     2    1
    21     3     2    1
    22     3     4    1
    23     3     9    1
    24    10     4    1
