@<TRIPOS>MOLECULE
3oap_REA_A_1.pdb
 22 22 0 0 0
SMALL
GASTEIGER

@<TRIPOS>ATOM
      1  C1        67.1340   46.8800   32.2710 C.3   500  REA500      0.0037
      2  C2        67.3710   45.8710   33.3970 C.3   500  REA500      0.0003
      3  C3        66.5680   46.2470   34.6450 C.3   500  REA500      0.0000
      4  C4        65.0690   46.1840   34.3480 C.3   500  REA500      0.0003
      5  C5        64.7730   46.9430   33.0540 C.3   500  REA500      0.0040
      6  C6        65.6340   46.9170   31.9610 C.3   500  REA500      0.0217
      7  C7        65.1970   47.1340   30.6580 C.2   500  REA500     -0.0307
      8  C8        63.8520   47.1290   30.3020 C.2   500  REA500     -0.0267
      9  C9        63.4820   47.3760   28.9840 C.3   500  REA500      0.0433
     10  C10       62.1510   47.3370   28.5810 C.2   500  REA500     -0.0263
     11  C11       61.1050   47.0220   29.4410 C.2   500  REA500     -0.0260
     12  C12       59.8110   47.0190   28.9300 C.3   500  REA500      0.0479
     13  C13       58.6930   46.7030   29.6950 C.2   500  REA500     -0.0330
     14  C14       57.4420   46.7500   29.0890 C.2   500  REA500      0.0780
     15  C15       56.2640   46.4540   29.7670 C.2   500  REA500      0.3873
     16  C16       67.9010   46.4490   31.0190 C.3   500  REA500      0.0003
     17  C17       67.5960   48.2670   32.7210 C.3   500  REA500      0.0003
     18  C18       63.5410   47.8520   33.0270 C.3   500  REA500      0.0003
     19  C19       64.5570   47.7190   27.9510 C.3   500  REA500      0.0094
     20  C20       58.8470   46.2590   31.1510 C.3   500  REA500      0.0269
     21  O1        55.2360   47.0850   29.4360 O.co2 500  REA500     -0.2406
     22  O2        56.2800   45.5540   30.6340 O.co2 500  REA500     -0.2406
@<TRIPOS>BOND
     1    19     9    1
     2    10     9    1
     3    10    11    2
     4    12    11    1
     5    12    13    1
     6     9     8    1
     7    14    13    2
     8    14    15    1
     9    21    15   ar
    10    13    20    1
    11    15    22   ar
    12     8     7    2
    13     7     6    1
    14    16     1    1
    15     6     1    1
    16     6     5    1
    17     1    17    1
    18     1     2    1
    19    18     5    1
    20     5     4    1
    21     2     3    1
    22     4     3    1
