@<TRIPOS>MOLECULE
3oau_MAN_H_1.pdb
 12 12 0 0 0
SMALL
GASTEIGER

@<TRIPOS>ATOM
      1  C1       -25.5510   25.0610  -36.0800 C.3   228  MAN228      0.3024
      2  C2       -24.3310   25.5070  -35.2790 C.3   228  MAN228      0.2434
      3  C3       -23.7520   26.7410  -35.9720 C.3   228  MAN228      0.2199
      4  C4       -23.3680   26.3870  -37.4080 C.3   228  MAN228      0.2144
      5  C5       -24.5640   25.8210  -38.1690 C.3   228  MAN228      0.1836
      6  C6       -24.1170   25.3330  -39.5500 C.3   228  MAN228      0.2142
      7  O1       -26.5450   26.0920  -36.0700 O.3   228  MAN228     -0.1869
      8  O2       -23.3770   24.4350  -35.3030 O.3   228  MAN228     -0.2148
      9  O3       -22.6010   27.2450  -35.2930 O.3   228  MAN228     -0.2174
     10  O4       -22.8400   27.5380  -38.0760 O.3   228  MAN228     -0.2176
     11  O5       -25.1710   24.7480  -37.4290 O.3   228  MAN228     -0.3236
     12  O6       -25.0360   24.3670  -40.0790 O.3   228  MAN228     -0.2176
@<TRIPOS>BOND
     1    12     6    1
     2     6     5    1
     3     5    11    1
     4     5     4    1
     5    10     4    1
     6    11     1    1
     7     4     3    1
     8     1     7    1
     9     1     2    1
    10     3     9    1
    11     3     2    1
    12     8     2    1
