@<TRIPOS>MOLECULE
3oaw_OAW_A_1.pdb
 21 23 0 0 0
SMALL
GASTEIGER

@<TRIPOS>ATOM
      1  N1        47.3440   13.0850   28.4050 N.2     1  OAW1       -0.3275
      2  C2        47.9520   14.1050   29.0090 C.1     1  OAW1        0.2425
      3  N3        47.3110   14.8650   29.8820 N.2     1  OAW1       -0.3073
      4  C4        46.0130   14.6980   30.1420 C.2     1  OAW1        0.2351
      5  C5        45.3330   13.6210   29.5180 C.2     1  OAW1        0.2026
      6  C6        46.0590   12.8240   28.6110 C.2     1  OAW1        0.1563
      7  N7        49.2790   14.3730   28.7290 N.pl3   1  OAW1       -0.0232
      8  C8        46.0940   16.6900   31.5790 C.3     1  OAW1        0.0827
      9  C9        45.4010   11.6850   27.8850 C.3     1  OAW1        0.0704
     10  N10       45.3410   15.5350   31.0230 N.am    1  OAW1       -0.2272
     11  C11       44.0210   15.2550   31.3170 C.2     1  OAW1        0.2841
     12  C12       43.3630   14.0800   30.6660 C.2     1  OAW1        0.1847
     13  N13       44.0410   13.3580   29.8000 N.2     1  OAW1       -0.3912
     14  O14       43.3780   15.9550   32.0900 O.2     1  OAW1       -0.2667
     15  C15       41.9450   13.6940   30.9330 C.2     1  OAW1        0.0590
     16  C16       45.4680   18.0580   31.2970 C.3     1  OAW1        0.0220
     17  C17       46.5030   16.5210   33.0440 C.3     1  OAW1        0.0220
     18  C18       41.2280   12.7680   30.2100 C.2     1  OAW1        0.1221
     19  N19       40.0030   12.7080   30.7540 N.2     1  OAW1       -0.1509
     20  N20       39.9320   13.6000   31.8370 N.2     1  OAW1       -0.1694
     21  C21       41.0860   14.1770   31.9590 C.3     1  OAW1        0.1798
@<TRIPOS>BOND
     1     9     6    1
     2     1     6    2
     3     1     2    2
     4     6     5    1
     5     7     2    1
     6     2     3    2
     7     5    13    2
     8     5     4    1
     9    13    12    2
    10     3     4    2
    11     4    10    1
    12    18    19    1
    13    18    15    2
    14    12    15    1
    15    12    11    1
    16    19    20    2
    17    15    21    1
    18    10    11   am
    19    10     8    1
    20    16     8    1
    21    11    14    2
    22     8    17    1
    23    20    21    1
