@<TRIPOS>MOLECULE
3oax_ID3_A_1.pdb
 14 14 0 0 0
SMALL
GASTEIGER

@<TRIPOS>ATOM
      1  C1        -3.1540   43.5970   18.9160 C.3   6025  ID36025     0.0192
      2  O1        -2.4580   46.2260   13.4380 O.2   6025  ID36025    -0.2917
      3  C2        -3.6550   42.4270   19.7970 C.3   6025  ID36025     0.0297
      4  C3        -3.7290   41.0100   19.1450 C.2   6025  ID36025    -0.0262
      5  C4        -4.0420   40.9720   17.6200 C.2   6025  ID36025    -0.0094
      6  C5        -4.2060   42.3220   16.9450 C.2   6025  ID36025    -0.0297
      7  C6        -3.7380   43.5260   17.5080 C.2   6025  ID36025    -0.0440
      8  C7        -3.7540   44.8420   16.6830 C.3   6025  ID36025     0.0506
      9  C8        -3.1300   44.9540   15.4210 C.2   6025  ID36025     0.0156
     10  C9        -3.0030   46.2120   14.7240 C.2   6025  ID36025     0.1697
     11  C16       -1.6460   43.6170   18.9620 C.3   6025  ID36025     0.0044
     12  C17       -3.8600   44.8870   19.4780 C.3   6025  ID36025     0.0044
     13  C18       -4.8510   42.2700   15.5190 C.3   6025  ID36025     0.0304
     14  C19       -3.4590   47.5100   15.3770 C.3   6025  ID36025     0.0769
@<TRIPOS>BOND
     1     2    10    1
     2    10    14    1
     3    10     9    2
     4     9     8    1
     5    13     6    1
     6     8     7    1
     7     6     7    2
     8     6     5    1
     9     7     1    1
    10     5     4    2
    11     1    11    1
    12     1    12    1
    13     1     3    1
    14     4     3    1
