@<TRIPOS>MOLECULE
3oax_4E6_A_1.pdb
 16 15 0 0 0
SMALL
GASTEIGER

@<TRIPOS>ATOM
      1  C1        12.2700   45.4920    3.5050 C.3   1410  4E61410     0.0004
      2  C2        13.0810   46.7130    3.0320 C.3   1410  4E61410     0.0047
      3  C3        12.1150   47.9080    3.2500 C.3   1410  4E61410     0.0257
      4  C4        12.6670   49.2470    2.7080 C.2   1410  4E61410    -0.0307
      5  C5        11.9560   50.6030    2.6890 C.2   1410  4E61410    -0.0307
      6  C6        12.6970   51.7290    1.9650 C.3   1410  4E61410     0.0257
      7  C7        11.7650   52.9180    1.7680 C.3   1410  4E61410     0.0047
      8  C8        12.3260   53.9200    0.7820 C.3   1410  4E61410     0.0007
      9  C9        11.4140   55.0640    0.1600 C.3   1410  4E61410     0.0047
     10  C10       11.1130   56.3320   -0.7250 C.3   1410  4E61410     0.0257
     11  C11        9.8430   56.6620   -0.6110 C.2   1410  4E61410    -0.0307
     12  C12        9.1700   57.6420   -0.9310 C.2   1410  4E61410    -0.0307
     13  C13        8.0140   58.3180   -0.9970 C.3   1410  4E61410     0.0257
     14  C14        7.7840   59.6710   -1.4910 C.3   1410  4E61410     0.0047
     15  C15        6.2890   59.6580   -1.1770 C.3   1410  4E61410     0.0003
     16  C16        5.3290   60.6640   -1.4180 C.3   1410  4E61410     0.0000
@<TRIPOS>BOND
     1    14    15    1
     2    14    13    1
     3    16    15    1
     4    13    12    1
     5    12    11    2
     6    10    11    1
     7    10     9    1
     8     9     8    1
     9     8     7    1
    10     7     6    1
    11     6     5    1
    12     5     4    2
    13     4     3    1
    14     2     3    1
    15     2     1    1
