@<TRIPOS>MOLECULE
3oax_RET_A_1.pdb
 20 20 0 0 0
SMALL
GASTEIGER

@<TRIPOS>ATOM
      1  C1         6.8010   62.0710   17.5730 C.3   1296  RET1296     0.0183
      2  C2         6.1580   62.7670   16.3430 C.3   1296  RET1296     0.0044
      3  C3         7.1030   63.4040   15.3640 C.3   1296  RET1296     0.0047
      4  C4         8.2340   62.4740   14.9250 C.3   1296  RET1296     0.0217
      5  C5         8.9210   61.7320   16.0780 C.2   1296  RET1296    -0.0479
      6  C6         8.2380   61.4300   17.2920 C.2   1296  RET1296    -0.0310
      7  C7         8.8260   60.4750   18.2920 C.2   1296  RET1296    -0.0092
      8  C8         9.5990   59.3720   18.1260 C.2   1296  RET1296    -0.0224
      9  C9         9.9350   58.3070   19.0670 C.3   1296  RET1296     0.0436
     10  C10       10.6310   57.2410   18.5340 C.2   1296  RET1296    -0.0263
     11  C11       11.1230   56.1020   19.2990 C.2   1296  RET1296    -0.0260
     12  C12       11.5900   54.9480   18.7050 C.3   1296  RET1296     0.0473
     13  C13       11.1190   54.1880   17.5230 C.2   1296  RET1296    -0.0438
     14  C14       11.8410   53.0490   17.3190 C.2   1296  RET1296    -0.0339
     15  C15       11.5810   52.0020   16.3850 C.3   1296  RET1296     0.0300
     16  C16        6.8590   63.1530   18.6880 C.3   1296  RET1296     0.0043
     17  C17        5.7540   61.0000   18.0110 C.3   1296  RET1296     0.0043
     18  C18       10.3630   61.4310   15.7160 C.3   1296  RET1296     0.0260
     19  C19        9.4800   58.4740   20.5160 C.3   1296  RET1296     0.0094
     20  C20        9.9470   54.6270   16.6610 C.3   1296  RET1296     0.0264
@<TRIPOS>BOND
     1     4     3    1
     2     4     5    1
     3     3     2    1
     4    18     5    1
     5     5     6    2
     6     2     1    1
     7    15    14    1
     8    20    13    1
     9     6     1    1
    10     6     7    1
    11    14    13    2
    12    13    12    1
    13     1    17    1
    14     1    16    1
    15     8     7    2
    16     8     9    1
    17    10     9    1
    18    10    11    2
    19    12    11    1
    20     9    19    1
