@<TRIPOS>MOLECULE
3oay_BDF_H_1.pdb
 12 12 0 0 0
SMALL
GASTEIGER

@<TRIPOS>ATOM
      1  C1        50.9540  -16.5470  -29.4010 C.3   229  BDF229      0.2434
      2  C2        50.2900  -17.7480  -30.0670 C.3   229  BDF229      0.2807
      3  C3        49.3290  -17.3950  -31.2670 C.3   229  BDF229      0.2410
      4  C4        48.6260  -18.6480  -31.7460 C.3   229  BDF229      0.2198
      5  C5        47.8710  -19.2830  -30.5870 C.3   229  BDF229      0.2143
      6  C6        48.8160  -19.5520  -29.4130 C.3   229  BDF229      0.1803
      7  O1        49.8960  -15.7050  -28.8690 O.3   229  BDF229     -0.2148
      8  O2        51.3470  -18.5870  -30.5510 O.3   229  BDF229     -0.1896
      9  O3        50.0120  -16.8770  -32.4360 O.3   229  BDF229     -0.2149
     10  O4        47.6730  -18.3020  -32.7600 O.3   229  BDF229     -0.2174
     11  O5        46.8480  -18.3660  -30.1930 O.3   229  BDF229     -0.2176
     12  O6        49.5430  -18.4080  -29.0360 O.3   229  BDF229     -0.3254
@<TRIPOS>BOND
     1    10     4    1
     2     9     3    1
     3     4     3    1
     4     4     5    1
     5     3     2    1
     6     5    11    1
     7     5     6    1
     8     8     2    1
     9     2     1    1
    10     2    12    1
    11     6    12    1
    12     1     7    1
