@<TRIPOS>MOLECULE
3oaz_2M5_H_1.pdb
 14 14 0 0 0
SMALL
GASTEIGER

@<TRIPOS>ATOM
      1  C1        48.8490  -24.9550   39.5860 C.3   237  2M5237      0.2695
      2  O1        49.2280  -26.2040   40.2300 O.3   237  2M5237     -0.3259
      3  C2        49.9960  -24.4130   38.7440 C.3   237  2M5237      0.2406
      4  O2        49.4820  -23.2650   38.0380 O.3   237  2M5237     -0.2149
      5  C3        51.1810  -23.9800   39.6180 C.3   237  2M5237      0.2198
      6  O3        52.1490  -23.3300   38.7760 O.3   237  2M5237     -0.2174
      7  C4        50.7200  -23.0080   40.7240 C.3   237  2M5237      0.2143
      8  O4        51.8220  -22.6740   41.6060 O.3   237  2M5237     -0.2176
      9  C5        49.5390  -23.6030   41.5370 C.3   237  2M5237      0.1808
     10  O5        48.4230  -24.0380   40.6240 O.3   237  2M5237     -0.3257
     11  C6        48.9540  -22.6490   42.6040 C.3   237  2M5237      0.1817
     12  O6        48.3120  -21.5630   41.9340 O.3   237  2M5237     -0.2204
     13  CAI       47.9860  -23.3670   43.5580 C.3   237  2M5237      0.0382
     14  CAN       48.0140  -26.7840   40.6790 C.3   237  2M5237      0.1769
@<TRIPOS>BOND
     1     4     3    1
     2     3     1    1
     3     3     5    1
     4     6     5    1
     5     1     2    1
     6     1    10    1
     7     5     7    1
     8     2    14    1
     9    10     9    1
    10     7     9    1
    11     7     8    1
    12     9    11    1
    13    12    11    1
    14    11    13    1
