@<TRIPOS>MOLECULE
3ob0_2M6_H_1.pdb
 46 49 0 0 0
SMALL
GASTEIGER

@<TRIPOS>ATOM
      1  C1        12.5660  -10.6510  -58.5730 C.3   229  2M6229      0.2696
      2  O1        12.3820  -11.2910  -59.8360 O.3   229  2M6229     -0.3231
      3  C2        11.5630   -9.5590  -58.2840 C.3   229  2M6229      0.2406
      4  O2        11.7560   -9.0970  -56.9670 O.3   229  2M6229     -0.2149
      5  C3        11.7120   -8.4370  -59.3040 C.3   229  2M6229      0.2198
      6  O3        10.6470   -7.5070  -59.3480 O.3   229  2M6229     -0.2174
      7  C4        13.0810   -7.7920  -59.3580 C.3   229  2M6229      0.2143
      8  O4        13.1300   -7.1190  -60.6070 O.3   229  2M6229     -0.2176
      9  C5        14.0980   -8.9310  -59.4520 C.3   229  2M6229      0.1808
     10  O5        13.8690  -10.0170  -58.5140 O.3   229  2M6229     -0.3257
     11  C6        15.5850   -8.5300  -59.5090 C.3   229  2M6229      0.1817
     12  O6        16.3020   -8.7360  -58.2690 O.3   229  2M6229     -0.2204
     13  CAL       18.6980  -15.0610  -65.2700 C.3   229  2M6229      0.2113
     14  CAM       17.6130  -13.9910  -64.9830 C.3   229  2M6229      0.1859
     15  CAN       16.7120  -13.6300  -66.1600 C.3   229  2M6229      0.2403
     16  CAO       17.3300  -13.7780  -67.5750 C.3   229  2M6229      0.3022
     17  OAP       18.3560  -14.7990  -67.7920 O.3   229  2M6229     -0.3236
     18  CAQ       18.7740  -15.6510  -66.6810 C.3   229  2M6229      0.1835
     19  CAR       18.1850  -17.0690  -66.6860 C.3   229  2M6229      0.2142
     20  OAS       16.9180  -14.6870  -63.9150 O.3   229  2M6229     -0.3256
     21  OAT       15.4100  -14.2190  -66.0380 O.3   229  2M6229     -0.2149
     22  CAU       17.6510  -14.6580  -60.3200 C.3   229  2M6229      0.2143
     23  CAV       17.4710  -13.2310  -60.8690 C.3   229  2M6229      0.2166
     24  CAW       16.2410  -13.0940  -61.7700 C.3   229  2M6229      0.2066
     25  CAX       16.0380  -14.2050  -62.8440 C.3   229  2M6229      0.2663
     26  OAY       15.9960  -15.4110  -62.0700 O.3   229  2M6229     -0.3257
     27  CAZ       17.2750  -15.7130  -61.4220 C.3   229  2M6229      0.1835
     28  CBA       17.0170  -17.0670  -60.8220 C.3   229  2M6229      0.2142
     29  OBB       19.0160  -14.7400  -59.8310 O.3   229  2M6229     -0.2176
     30  OBC       17.4140  -12.3300  -59.7550 O.3   229  2M6229     -0.2175
     31  OBD       16.3850  -17.8680  -61.8240 O.3   229  2M6229     -0.2176
     32  OBE       15.1810  -13.3620  -60.8210 O.3   229  2M6229     -0.3232
     33  OBF       17.4330  -17.4290  -67.8790 O.3   229  2M6229     -0.2176
     34  OBG       19.9930  -14.7390  -64.7260 O.3   229  2M6229     -0.2177
     35  CBH       11.3740  -13.2790  -61.4740 C.3   229  2M6229      0.2143
     36  CBI       12.2470  -13.6460  -60.2390 C.3   229  2M6229      0.2166
     37  CBJ       13.1690  -12.5120  -59.8320 C.3   229  2M6229      0.2066
     38  CBK       14.1610  -12.3850  -60.9490 C.3   229  2M6229      0.2664
     39  OBL       13.5830  -12.2200  -62.2830 O.3   229  2M6229     -0.3257
     40  CBM       12.2600  -12.7500  -62.6090 C.3   229  2M6229      0.1835
     41  CBN       11.5560  -11.7670  -63.5460 C.3   229  2M6229      0.2142
     42  OBO       10.8060  -14.4920  -61.9700 O.3   229  2M6229     -0.2176
     43  OBP       11.4820  -14.0900  -59.1310 O.3   229  2M6229     -0.2175
     44  OBQ       12.3820  -11.5800  -64.7360 O.3   229  2M6229     -0.2176
     45  OBS       17.7200  -12.5060  -68.1650 O.3   229  2M6229     -0.1869
     46  CBT       16.1820   -9.5310  -60.4690 C.3   229  2M6229      0.0382
@<TRIPOS>BOND
     1    45    16    1
     2    33    19    1
     3    17    16    1
     4    17    18    1
     5    16    15    1
     6    19    18    1
     7    18    13    1
     8    15    21    1
     9    15    14    1
    10    13    14    1
    11    13    34    1
    12    14    20    1
    13    44    41    1
    14    20    25    1
    15    41    40    1
    16    25    26    1
    17    25    24    1
    18    40    39    1
    19    40    35    1
    20    39    38    1
    21    26    27    1
    22    42    35    1
    23    31    28    1
    24    24    23    1
    25    24    32    1
    26    35    36    1
    27    27    28    1
    28    27    22    1
    29    38    32    1
    30    38    37    1
    31    23    22    1
    32    23    30    1
    33     8     7    1
    34    46    11    1
    35    22    29    1
    36    36    37    1
    37    36    43    1
    38     2    37    1
    39     2     1    1
    40    11     9    1
    41    11    12    1
    42     9     7    1
    43     9    10    1
    44     7     5    1
    45     6     5    1
    46     5     3    1
    47     1    10    1
    48     1     3    1
    49     3     4    1
