@<TRIPOS>MOLECULE
3ob4_MLR_A_1.pdb
 34 36 0 0 0
SMALL
GASTEIGER

@<TRIPOS>ATOM
      1  C1A       18.0950   -3.5100   30.3770 C.3   400  MLR400      0.3023
      2  C2A       17.5990   -2.4240   29.4750 C.3   400  MLR400      0.2433
      3  C3A       18.2370   -2.4190   28.0940 C.3   400  MLR400      0.2168
      4  C4A       19.5680   -3.1670   27.9970 C.3   400  MLR400      0.1804
      5  C5A       19.9220   -4.0770   29.1750 C.3   400  MLR400      0.1804
      6  C6A       21.3500   -4.5860   29.1590 C.3   400  MLR400      0.2141
      7  O1X       17.5000   -4.7550   30.0060 O.3   400  MLR400     -0.1869
      8  O2A       16.1930   -2.3620   29.4560 O.3   400  MLR400     -0.2148
      9  O3A       18.2330   -1.1490   27.4860 O.3   400  MLR400     -0.2175
     10  O4A       20.0050   -3.7850   26.6680 O.3   400  MLR400     -0.3257
     11  O5A       19.5010   -3.5930   30.3880 O.3   400  MLR400     -0.3237
     12  O6A       21.6020   -5.8950   29.6650 O.3   400  MLR400     -0.2176
     13  C1B       20.5960   -2.8080   25.8160 C.3   400  MLR400      0.2695
     14  C2B       19.9100   -2.8650   24.4620 C.3   400  MLR400      0.2404
     15  C3B       20.2800   -4.1400   23.6990 C.3   400  MLR400      0.2167
     16  C4B       21.6540   -4.6680   23.9370 C.3   400  MLR400      0.1804
     17  C5B       22.3440   -4.2310   25.2160 C.3   400  MLR400      0.1803
     18  C6B       23.8500   -4.4730   25.2180 C.3   400  MLR400      0.2141
     19  O2B       18.4760   -2.4310   24.4040 O.3   400  MLR400     -0.2149
     20  O3B       19.9320   -4.1340   22.3460 O.3   400  MLR400     -0.2175
     21  O4B       21.6830   -6.0870   23.8220 O.3   400  MLR400     -0.3257
     22  O5B       22.0070   -2.9590   25.7220 O.3   400  MLR400     -0.3257
     23  O6B       24.5090   -4.4440   26.4670 O.3   400  MLR400     -0.2176
     24  C1C       22.3450   -6.5740   22.6630 C.3   400  MLR400      0.2695
     25  C2C       21.5820   -7.4560   22.0400 C.3   400  MLR400      0.2406
     26  C3C       21.7330   -8.9410   22.4430 C.3   400  MLR400      0.2198
     27  C4C       23.1100   -9.3940   22.9500 C.3   400  MLR400      0.2144
     28  C5C       24.0290   -8.2630   23.4640 C.3   400  MLR400      0.1835
     29  C6C       25.5050   -8.5670   23.7770 C.3   400  MLR400      0.2142
     30  O2C       20.1570   -7.0110   21.7620 O.3   400  MLR400     -0.2149
     31  O3C       21.2160   -9.7750   21.4780 O.3   400  MLR400     -0.2174
     32  O4C       23.1300  -10.7500   23.6030 O.3   400  MLR400     -0.2176
     33  O5C       23.7380   -6.9070   22.8760 O.3   400  MLR400     -0.3256
     34  O6C       26.1050   -7.9090   24.8720 O.3   400  MLR400     -0.2176
@<TRIPOS>BOND
     1    31    26    1
     2    30    25    1
     3    25    26    1
     4    25    24    1
     5    20    15    1
     6    26    27    1
     7    24    33    1
     8    24    21    1
     9    33    28    1
    10    27    28    1
    11    27    32    1
    12    28    29    1
    13    15    16    1
    14    15    14    1
    15    29    34    1
    16    21    16    1
    17    16    17    1
    18    19    14    1
    19    14    13    1
    20    17    18    1
    21    17    22    1
    22    18    23    1
    23    22    13    1
    24    13    10    1
    25    10     4    1
    26     9     3    1
    27     4     3    1
    28     4     5    1
    29     3     2    1
    30     6     5    1
    31     6    12    1
    32     5    11    1
    33     8     2    1
    34     2     1    1
    35     7     1    1
    36     1    11    1
