@<TRIPOS>MOLECULE
3ob6_ARG_A_1.pdb
 12 11 0 0 0
SMALL
GASTEIGER

@<TRIPOS>ATOM
      1  N         38.8730   -5.6200   32.4430 N.3   450  ARG450     -0.1208
      2  CA        39.5520   -4.3960   31.9950 C.3   450  ARG450      0.1944
      3  C         40.4970   -3.8820   33.1010 C.2   450  ARG450      0.3819
      4  O         40.0810   -3.6620   34.2490 O.co2 450  ARG450     -0.2441
      5  CB        38.5240   -3.3170   31.5610 C.3   450  ARG450      0.0343
      6  CG        39.1150   -1.9240   31.1820 C.3   450  ARG450      0.0490
      7  CD        38.2760   -1.1830   30.1230 C.3   450  ARG450      0.2205
      8  NE        38.7340   -1.4460   28.7480 N.pl3 450  ARG450     -0.0865
      9  CZ        38.0330   -1.2140   27.6260 C.cat 450  ARG450      0.5346
     10  NH1       36.7990   -0.7010   27.6560 N.pl3 450  ARG450      0.1354
     11  NH2       38.5780   -1.4990   26.4440 N.pl3 450  ARG450      0.1354
     12  OXT       41.7070   -3.7010   32.8740 O.co2 450  ARG450     -0.2441
@<TRIPOS>BOND
     1    11     9    1
     2     9    10    1
     3     9     8    2
     4     8     7    1
     5     7     6    1
     6     6     5    1
     7     5     2    1
     8     2     1    1
     9     2     3    1
    10    12     3   ar
    11     3     4   ar
