@<TRIPOS>MOLECULE
3ob7_GSH_A_1.pdb
 20 19 0 0 0
SMALL
GASTEIGER

@<TRIPOS>ATOM
      1  N1        20.1680   -6.7480  103.8100 N.3   581  GSH581     -0.1208
      2  CA1       21.0320   -5.7010  104.3610 C.3   581  GSH581      0.1948
      3  C1        20.1560   -4.5400  104.5650 C.2   581  GSH581      0.3819
      4  O11       19.8380   -4.2330  105.6620 O.co2 581  GSH581     -0.2441
      5  O12       19.7040   -3.8990  103.5080 O.co2 581  GSH581     -0.2441
      6  CB1       22.1390   -5.3800  103.3520 C.3   581  GSH581      0.0402
      7  CG1       22.9890   -6.6420  103.1500 C.3   581  GSH581      0.0889
      8  CD1       24.0640   -6.5000  102.0740 C.2   581  GSH581      0.2418
      9  OE1       24.2300   -5.4540  101.4380 O.2   581  GSH581     -0.2733
     10  N2        24.7330   -7.6430  101.8540 N.am  581  GSH581     -0.1968
     11  CA2       25.7460   -7.8590  100.7890 C.3   581  GSH581      0.1843
     12  C2        24.9170   -8.5520   99.6920 C.2   581  GSH581      0.2627
     13  O2        23.7330   -8.7520   99.9070 O.2   581  GSH581     -0.2714
     14  CB2       26.8050   -8.8450  101.3330 C.3   581  GSH581      0.0997
     15  SG2       27.8490   -8.0990  102.6280 S.3   581  GSH581     -0.0797
     16  N3        25.4030   -8.9730   98.5050 N.am  581  GSH581     -0.1917
     17  CA3       24.5530   -9.6500   97.4880 C.3   581  GSH581      0.2285
     18  C3        25.3080  -10.0550   96.2520 C.2   581  GSH581      0.3865
     19  O31       26.5290   -9.8060   96.1780 O.co2 581  GSH581     -0.2437
     20  O32       24.6730  -10.6370   95.3390 O.co2 581  GSH581     -0.2437
@<TRIPOS>BOND
     1    20    18   ar
     2    19    18   ar
     3    18    17    1
     4    17    16    1
     5    16    12   am
     6    12    13    2
     7    12    11    1
     8    11    14    1
     9    11    10    1
    10    14    15    1
    11     9     8    2
    12    10     8   am
    13     8     7    1
    14     7     6    1
    15     6     2    1
    16     5     3   ar
    17     1     2    1
    18     2     3    1
    19     3     4   ar
