@<TRIPOS>MOLECULE
3ob8_GAL_A_1.pdb
 12 12 0 0 0
SMALL
GASTEIGER

@<TRIPOS>ATOM
      1  C1       -26.1710   24.3370  -20.8270 C.3   2001  GAL2001     0.3024
      2  C2       -25.2450   24.6500  -22.0140 C.3   2001  GAL2001     0.2434
      3  C3       -24.2740   23.4970  -22.2840 C.3   2001  GAL2001     0.2199
      4  C4       -23.5370   23.1770  -20.9860 C.3   2001  GAL2001     0.2144
      5  C5       -24.5690   22.7450  -19.9450 C.3   2001  GAL2001     0.1836
      6  C6       -23.9390   22.4690  -18.5870 C.3   2001  GAL2001     0.2142
      7  O1       -26.7820   25.5250  -20.3690 O.3   2001  GAL2001    -0.1869
      8  O2       -25.9850   24.9370  -23.1810 O.3   2001  GAL2001    -0.2148
      9  O3       -23.3710   23.8220  -23.3300 O.3   2001  GAL2001    -0.2174
     10  O4       -22.8320   24.3390  -20.5550 O.3   2001  GAL2001    -0.2176
     11  O5       -25.4720   23.8040  -19.7190 O.3   2001  GAL2001    -0.3236
     12  O6       -23.5690   21.1160  -18.4950 O.3   2001  GAL2001    -0.2176
@<TRIPOS>BOND
     1     9     3    1
     2     8     2    1
     3     3     2    1
     4     3     4    1
     5     2     1    1
     6     4    10    1
     7     4     5    1
     8     1     7    1
     9     1    11    1
    10     5    11    1
    11     5     6    1
    12     6    12    1
