@<TRIPOS>MOLECULE
3obb_EPE_A_1.pdb
 15 15 0 0 0
SMALL
GASTEIGER

@<TRIPOS>ATOM
      1  N1         0.2330   40.7410   49.1510 N.3   299  EPE299     -0.2689
      2  C2         1.2700   41.0700   50.1450 C.3   299  EPE299      0.0897
      3  C3         0.6270   41.2860   51.5080 C.3   299  EPE299      0.0897
      4  N4        -0.5430   42.1530   51.5210 N.3   299  EPE299     -0.2681
      5  C5        -1.3960   42.2430   50.3450 C.3   299  EPE299      0.0897
      6  C6        -0.7880   41.7970   49.0140 C.3   299  EPE299      0.0897
      7  C7        -1.2120   42.4170   52.7850 C.3   299  EPE299      0.1081
      8  C8        -0.3770   42.2820   54.0640 C.3   299  EPE299      0.1993
      9  O8         0.2860   41.0470   54.1780 O.3   299  EPE299     -0.2189
     10  C9        -0.3000   39.3600   49.2200 C.3   299  EPE299      0.0939
     11  C10        0.7410   38.3640   49.7230 C.3   299  EPE299      0.1225
     12  S          0.7020   36.8370   48.7740 S.3   299  EPE299     -0.1946
     13  O1S        1.9600   36.1180   48.8150 O.3   299  EPE299     -0.3074
     14  O2S        0.4650   37.1900   47.3830 O.3   299  EPE299     -0.3074
     15  O3S       -0.3460   35.9470   49.2990 O.3   299  EPE299     -0.3074
@<TRIPOS>BOND
     1    14    12    1
     2    12    13    1
     3    12    15    1
     4    12    11    1
     5     6     1    1
     6     6     5    1
     7     1    10    1
     8     1     2    1
     9    10    11    1
    10     2     3    1
    11     5     4    1
    12     3     4    1
    13     4     7    1
    14     7     8    1
    15     8     9    1
