@<TRIPOS>MOLECULE
3obg_SB2_A_1.pdb
 27 30 0 0 0
SMALL
GASTEIGER

@<TRIPOS>ATOM
      1  O2        -3.0610    5.7050  -23.6560 O.2   361  SB2361     -0.2514
      2  C1        -3.3630    6.4530  -21.0180 C.3   361  SB2361      0.1110
      3  S1        -2.1150    6.3980  -22.3280 S.O   361  SB2361      0.0658
      4  CA1        0.3140    4.1380  -19.9840 C.ar  361  SB2361      0.0126
      5  CA2       -0.5540    5.1350  -20.4430 C.ar  361  SB2361      0.0094
      6  CA3       -0.9920    5.1310  -21.7760 C.ar  361  SB2361      0.0562
      7  CA4       -0.6090    4.1500  -22.6900 C.ar  361  SB2361      0.0094
      8  CA5        0.2590    3.1710  -22.2240 C.ar  361  SB2361      0.0126
      9  CA6        0.7470    3.1860  -20.9070 C.ar  361  SB2361      0.0856
     10  NB1        3.1230   -3.9510  -21.7050 N.ar  361  SB2361     -0.2423
     11  CB2        3.0090   -3.6590  -20.4020 C.ar  361  SB2361      0.0990
     12  CB3        2.8360   -2.3330  -19.9940 C.ar  361  SB2361      0.0233
     13  CB4        2.8010   -1.3200  -20.9540 C.ar  361  SB2361      0.0362
     14  CB5        2.9180   -1.6590  -22.2940 C.ar  361  SB2361      0.0233
     15  CB6        3.0870   -2.9950  -22.6470 C.ar  361  SB2361      0.0990
     16  NC1        1.6540    0.8740  -21.1520 N.2   361  SB2361     -0.3372
     17  CC2        1.6320    2.0670  -20.5250 C.1   361  SB2361      0.1379
     18  NC3        2.4640    2.1500  -19.4570 N.2   361  SB2361     -0.3372
     19  CC4        3.0770    0.9430  -19.4690 C.2   361  SB2361      0.1740
     20  CC5        2.5450    0.0840  -20.5450 C.2   361  SB2361      0.1741
     21  CD1        3.5110    0.6390  -17.1390 C.ar  361  SB2361      0.0050
     22  CD2        4.2560    0.2090  -16.0660 C.ar  361  SB2361      0.0297
     23  CD3        5.4850   -0.3890  -16.3110 C.ar  361  SB2361      0.1401
     24  CD4        5.9860   -0.5400  -17.6250 C.ar  361  SB2361      0.0297
     25  CD5        5.2280   -0.0970  -18.7020 C.ar  361  SB2361      0.0050
     26  CD6        4.0090    0.5260  -18.4230 C.ar  361  SB2361      0.0333
     27  FD3        6.1910   -0.8160  -15.2390 F     361  SB2361     -0.2042
@<TRIPOS>BOND
     1     1     3    2
     2     7     8   ar
     3     7     6   ar
     4    15    14   ar
     5    15    10   ar
     6     3     6    1
     7     3     2    1
     8    14    13   ar
     9     8     9   ar
    10     6     5   ar
    11    10    11   ar
    12    16    20    2
    13    16    17    2
    14    13    20    1
    15    13    12   ar
    16     9    17    1
    17     9     4   ar
    18    20    19    1
    19    17    18    2
    20     5     4   ar
    21    11    12   ar
    22    19    18    2
    23    19    26    1
    24    25    26   ar
    25    25    24   ar
    26    26    21   ar
    27    24    23   ar
    28    21    22   ar
    29    23    22   ar
    30    23    27    1
