@<TRIPOS>MOLECULE
3obj_BMU_A_1.pdb
 21 22 0 0 0
SMALL
GASTEIGER

@<TRIPOS>ATOM
      1  C1       -18.1180    4.9210  -18.7100 C.2   361  BMU361      0.3491
      2  O1       -17.2130    4.5340  -19.4140 O.2   361  BMU361     -0.2484
      3  N2       -19.3440    4.4090  -18.7300 N.am  361  BMU361     -0.1606
      4  C3       -19.8900    3.4720  -19.5220 C.ar  361  BMU361      0.0750
      5  C4       -19.1800    2.3600  -20.0030 C.ar  361  BMU361      0.0175
      6  C5       -19.8450    1.4250  -20.8290 C.ar  361  BMU361      0.0127
      7  C6       -21.2050    1.6090  -21.1470 C.ar  361  BMU361      0.0578
      8 CL6       -22.0840    0.4160  -22.1570 Cl    361  BMU361     -0.0822
      9  C7       -21.9000    2.7220  -20.6540 C.ar  361  BMU361      0.0127
     10  C8       -21.2370    3.6460  -19.8340 C.ar  361  BMU361      0.0175
     11  N9       -17.9410    5.9230  -17.8550 N.am  361  BMU361     -0.1421
     12  C10      -16.7860    6.6200  -17.8170 C.ar  361  BMU361      0.1543
     13  C14      -15.8570    7.0300  -18.7800 C.ar  361  BMU361      0.0523
     14  C13      -14.8880    7.6650  -18.0330 C.ar  361  BMU361      0.0807
     15  N12      -15.1840    7.6750  -16.7220 N.ar  361  BMU361     -0.1725
     16  N11      -16.4080    7.0000  -16.6030 N.ar  361  BMU361     -0.2342
     17  C15      -16.9340    6.8650  -15.2110 C.3   361  BMU361      0.1552
     18  C17      -14.0600    9.6980  -19.1370 C.3   361  BMU361      0.0060
     19  C18      -13.0760    7.4980  -19.7350 C.3   361  BMU361      0.0060
     20  C19      -12.5320    8.5440  -17.5590 C.3   361  BMU361      0.0060
     21  C16      -13.6470    8.3320  -18.6030 C.3   361  BMU361      0.0372
@<TRIPOS>BOND
     1     8     7    1
     2     7     6   ar
     3     7     9   ar
     4     6     5   ar
     5     9    10   ar
     6     5     4   ar
     7    10     4   ar
     8    19    21    1
     9     4     3    1
    10     2     1    2
    11    18    21    1
    12    13    14   ar
    13    13    12   ar
    14     3     1   am
    15     1    11   am
    16    21    14    1
    17    21    20    1
    18    14    15   ar
    19    11    12    1
    20    12    16   ar
    21    15    16   ar
    22    16    17    1
