@<TRIPOS>MOLECULE
3obk_PBG_A_1.pdb
 16 16 0 0 0
SMALL
GASTEIGER

@<TRIPOS>ATOM
      1  CHA      -28.7970  -33.8270   28.8200 C.3   360  PBG360      0.1506
      2  C1A      -30.1540  -33.2130   28.9290 C.2   360  PBG360      0.0603
      3  C2A      -31.1700  -33.2780   27.9800 C.3   360  PBG360      0.0726
      4  C3A      -32.2340  -32.5740   28.5130 C.2   360  PBG360      0.0027
      5  C4A      -31.8710  -32.1840   29.7890 C.2   360  PBG360      0.0942
      6  NA       -30.6020  -32.5550   30.0080 N.2   360  PBG360     -0.2509
      7  C5A      -31.1120  -33.8210   26.5720 C.3   360  PBG360      0.1241
      8  C6A      -30.9820  -35.2750   26.4250 C.2   360  PBG360      0.3656
      9  O1A      -30.5660  -35.9120   27.4290 O.co2 360  PBG360     -0.2456
     10  O2A      -31.1960  -35.8150   25.3160 O.co2 360  PBG360     -0.2456
     11  C7A      -33.5140  -32.3040   27.8220 C.2   360  PBG360      0.0044
     12  C8A      -34.4050  -31.2880   28.4330 C.2   360  PBG360      0.0859
     13  C9A      -35.5260  -30.7770   27.6280 C.2   360  PBG360      0.3880
     14  O3A      -35.9910  -29.6840   27.9380 O.co2 360  PBG360     -0.2405
     15  O4A      -35.8350  -31.2300   26.5150 O.co2 360  PBG360     -0.2405
     16  N1       -28.4570  -34.8770   29.7240 N.3   360  PBG360     -0.1249
@<TRIPOS>BOND
     1    10     8   ar
     2     8     7    1
     3     8     9   ar
     4    15    13   ar
     5     7     3    1
     6    13    14   ar
     7    13    12    1
     8    11    12    2
     9    11     4    1
    10     3     4    1
    11     3     2    1
    12     4     5    2
    13     1     2    1
    14     1    16    1
    15     2     6    2
    16     5     6    1
