@<TRIPOS>MOLECULE
3obp_URC_A_1.pdb
 12 13 0 0 0
SMALL
GASTEIGER

@<TRIPOS>ATOM
      1  N1        29.9870   27.7340   36.9250 N.2   302  URC302     -0.2289
      2  C2        29.1870   27.6310   38.0500 C.1   302  URC302      0.3754
      3  C6        31.2590   27.2860   36.6920 C.1   302  URC302      0.2604
      4  N3        29.7410   26.9100   39.1030 N.2   302  URC302     -0.2368
      5  O11       28.1300   28.0510   38.0620 O.2   302  URC302     -0.1738
      6  C4        30.9870   26.5040   38.9740 C.1   302  URC302      0.2099
      7  C5        31.7970   26.6130   37.8490 C.2   302  URC302      0.3262
      8  N9        31.7780   25.8750   39.9070 N.2   302  URC302     -0.2373
      9  O13       31.8430   27.4710   35.6350 O.2   302  URC302     -0.2051
     10  N7        32.9470   26.0350   37.9730 N.2   302  URC302     -0.2823
     11  C8        33.0020   25.5670   39.3140 C.1   302  URC302      0.3665
     12  O24       33.9790   24.9500   39.7990 O.2   302  URC302     -0.1745
@<TRIPOS>BOND
     1     9     3    2
     2     3     1    2
     3     3     7    1
     4     1     2    2
     5     7    10    2
     6     7     6    1
     7    10    11    2
     8     2     5    2
     9     2     4    2
    10     6     4    2
    11     6     8    2
    12    11    12    2
    13    11     8    2
