@<TRIPOS>MOLECULE
3obt_SLB_A_1.pdb
 21 21 0 0 0
SMALL
GASTEIGER

@<TRIPOS>ATOM
      1  C1        32.2420   46.7960  -33.2080 C.2     1  SLB1        0.4179
      2  C2        33.6220   46.7960  -33.7910 C.3     1  SLB1        0.3155
      3  C3        34.5240   45.7330  -33.1760 C.3     1  SLB1        0.1056
      4  C4        35.9530   45.9710  -33.7070 C.3     1  SLB1        0.1798
      5  C5        36.3960   47.4240  -33.5910 C.3     1  SLB1        0.1554
      6  C6        35.4020   48.3320  -34.3390 C.3     1  SLB1        0.1734
      7  C7        35.6540   49.8360  -34.1940 C.3     1  SLB1        0.2135
      8  C8        34.4530   50.5970  -34.7850 C.3     1  SLB1        0.2173
      9  C9        34.5020   52.1270  -34.8030 C.3     1  SLB1        0.2175
     10  C10       38.9460   47.7900  -33.6470 C.2     1  SLB1        0.2420
     11  C11       40.0500   47.9220  -34.6840 C.3     1  SLB1        0.0964
     12  N5        37.7360   47.5570  -34.2860 N.am    1  SLB1       -0.2020
     13  O1A       31.4520   45.9620  -33.7520 O.co2   1  SLB1       -0.2401
     14  O1B       32.0310   47.6430  -32.2880 O.co2   1  SLB1       -0.2401
     15  O2        33.5370   46.4530  -35.1790 O.3     1  SLB1       -0.1830
     16  O4        36.8620   45.1340  -32.9010 O.3     1  SLB1       -0.2210
     17  O6        34.0900   48.1660  -33.7260 O.3     1  SLB1       -0.3220
     18  O7        35.6740   50.1260  -32.7960 O.3     1  SLB1       -0.2176
     19  O8        34.4490   50.2820  -36.1860 O.3     1  SLB1       -0.2175
     20  O9        35.8120   52.4830  -35.2550 O.3     1  SLB1       -0.2175
     21  O10       39.1660   47.9640  -32.4000 O.2     1  SLB1       -0.2733
@<TRIPOS>BOND
     1    19     8    1
     2    20     9    1
     3    15     2    1
     4     9     8    1
     5     8     7    1
     6    11    10    1
     7     6     7    1
     8     6    17    1
     9     6     5    1
    10    12    10   am
    11    12     5    1
    12     7    18    1
    13     2    17    1
    14     2     1    1
    15     2     3    1
    16    13     1   ar
    17     4     5    1
    18     4     3    1
    19     4    16    1
    20    10    21    2
    21     1    14   ar
