@<TRIPOS>MOLECULE
3obz_AKG_A_1.pdb
 10 9 0 0 0
SMALL
GASTEIGER

@<TRIPOS>ATOM
      1  C1       -28.8540  125.0590  -63.9720 C.2   481  AKG481      0.4219
      2  O1       -29.1580  125.9340  -63.0030 O.co2 481  AKG481     -0.2373
      3  O2       -27.7270  124.5610  -64.0550 O.co2 481  AKG481     -0.2373
      4  C2       -29.8970  124.6800  -64.9800 C.2   481  AKG481      0.2526
      5  O5       -29.5600  123.9910  -65.9380 O.2   481  AKG481     -0.2843
      6  C3       -31.3510  125.1370  -64.8420 C.3   481  AKG481      0.0881
      7  C4       -32.2750  124.4280  -65.8900 C.3   481  AKG481      0.1224
      8  C5       -33.7350  124.4480  -65.4520 C.2   481  AKG481      0.3653
      9  O3       -34.1090  125.0780  -64.4740 O.co2 481  AKG481     -0.2456
     10  O4       -34.5800  123.7460  -66.2070 O.co2 481  AKG481     -0.2456
@<TRIPOS>BOND
     1    10     8   ar
     2     5     4    2
     3     7     8    1
     4     7     6    1
     5     8     9   ar
     6     4     6    1
     7     4     1    1
     8     3     1   ar
     9     1     2   ar
