@<TRIPOS>MOLECULE
3oc0_B2Q_A_1.pdb
 23 25 0 0 0
SMALL
GASTEIGER

@<TRIPOS>ATOM
      1  CA        43.5800   53.1650   30.4560 C.3   900  B2Q900      0.2526
      2  CB        45.0080   51.2800   30.1750 C.ar  900  B2Q900      0.1721
      3  OB        44.1650   52.1960   29.5900 O.3   900  B2Q900     -0.4684
      4  CC        45.3260   51.3610   31.5310 C.ar  900  B2Q900      0.0368
      5  CD        46.1730   50.4070   32.0970 C.ar  900  B2Q900     -0.0084
      6  CE        46.5230   50.4300   33.5580 C.3   900  B2Q900      0.0814
      7  CF        46.6940   49.3770   31.3150 C.ar  900  B2Q900     -0.0203
      8  CG        47.5570   48.3440   31.9770 C.3   900  B2Q900      0.0435
      9  CH        48.5530   49.0070   32.9380 C.3   900  B2Q900      0.0770
     10  NJ        47.9400   50.0640   33.7920 N.3   900  B2Q900     -0.2696
     11  CK        48.1060   49.7880   35.2290 C.3   900  B2Q900      0.0781
     12  CL        47.9370   51.1360   35.9650 C.3   900  B2Q900      0.0553
     13  CM        48.0550   50.9910   37.4670 C.2   900  B2Q900     -0.0282
     14  CN        48.6480   49.8450   38.2580 C.2   900  B2Q900     -0.0306
     15  CO        48.8260   50.0250   39.7120 C.3   900  B2Q900      0.0257
     16  CP        48.1970   49.0880   40.7120 C.3   900  B2Q900      0.0050
     17  CR        46.5840   51.8120   35.6830 C.3   900  B2Q900      0.0988
     18  NS        46.9590   53.1880   35.7500 N.3   900  B2Q900     -0.1325
     19  CT        46.2970   51.8130   34.1690 C.3   900  B2Q900      0.0399
     20  CU        46.3830   49.2960   29.9590 C.ar  900  B2Q900      0.0356
     21  CV        45.5380   50.2500   29.3900 C.ar  900  B2Q900      0.1721
     22  OW        45.1990   50.1870   28.0590 O.3   900  B2Q900     -0.4684
     23  CZ        45.7150   49.0810   27.3240 C.3   900  B2Q900      0.2526
@<TRIPOS>BOND
     1    23    22    1
     2    22    21    1
     3    21    20   ar
     4    21     2   ar
     5     3     2    1
     6     3     1    1
     7    20     7   ar
     8     2     4   ar
     9     7     8    1
    10     7     5   ar
    11     4     5   ar
    12     8     9    1
    13     5     6    1
    14     9    10    1
    15     6    10    1
    16     6    19    1
    17    10    11    1
    18    19    17    1
    19    11    12    1
    20    17    18    1
    21    17    12    1
    22    12    13    1
    23    13    14    2
    24    14    15    1
    25    15    16    1
