@<TRIPOS>MOLECULE
3oc1_BMU_A_1.pdb
 21 22 0 0 0
SMALL
GASTEIGER

@<TRIPOS>ATOM
      1  C1        -0.7990    2.8860   14.8180 C.2   361  BMU361      0.3491
      2  O1        -0.0060    2.2200   15.4920 O.2   361  BMU361     -0.2484
      3  N2        -2.1000    3.0430   15.1120 N.am  361  BMU361     -0.1606
      4  C3        -2.7110    2.4320   16.1320 C.ar  361  BMU361      0.0750
      5  C4        -4.0620    2.0260   15.9970 C.ar  361  BMU361      0.0175
      6  C5        -4.7260    1.3810   17.0510 C.ar  361  BMU361      0.0127
      7  C6        -3.9870    1.1850   18.2210 C.ar  361  BMU361      0.0578
      8 CL6        -4.7360    0.4040   19.6580 Cl    361  BMU361     -0.0822
      9  C7        -2.6610    1.6090   18.3520 C.ar  361  BMU361      0.0127
     10  C8        -2.0110    2.2210   17.3090 C.ar  361  BMU361      0.0175
     11  N9        -0.4120    3.5190   13.7060 N.am  361  BMU361     -0.1421
     12  C10        0.7960    3.3480   13.1040 C.ar  361  BMU361      0.1543
     13  C14        1.6470    2.2800   12.8870 C.ar  361  BMU361      0.0523
     14  C13        2.7190    2.8490   12.2260 C.ar  361  BMU361      0.0807
     15  N12        2.5410    4.1490   11.9880 N.ar  361  BMU361     -0.1725
     16  N11        1.3080    4.4460   12.5490 N.ar  361  BMU361     -0.2342
     17  C15        0.8920    5.8680   12.4410 C.3   361  BMU361      0.1552
     18  C17        5.0650    3.1940   11.5320 C.3   361  BMU361      0.0060
     19  C18        3.6080    1.4740   10.3770 C.3   361  BMU361      0.0060
     20  C19        4.5640    1.0300   12.5460 C.3   361  BMU361      0.0060
     21  C16        3.9670    2.1390   11.6980 C.3   361  BMU361      0.0372
@<TRIPOS>BOND
     1    19    21    1
     2    18    21    1
     3    21    14    1
     4    21    20    1
     5    15    14   ar
     6    15    16   ar
     7    14    13   ar
     8    17    16    1
     9    16    12   ar
    10    13    12   ar
    11    12    11    1
    12    11     1   am
    13     1     3   am
    14     1     2    2
    15     3     4    1
    16     5     4   ar
    17     5     6   ar
    18     4    10   ar
    19     6     7   ar
    20    10     9   ar
    21     7     9   ar
    22     7     8    1
