@<TRIPOS>MOLECULE
3ocb_XM1_A_1.pdb
 28 31 0 0 0
SMALL
GASTEIGER

@<TRIPOS>ATOM
      1  C1        14.5350   -1.9910   15.8820 C.2     1  XM11        0.3149
      2 CL1         8.4060    4.0740   14.3960 Cl      1  XM11       -0.0822
      3  C2        15.6670   -1.2180   15.5290 C.3     1  XM11        0.2132
      4  C3        15.8660    0.2010   15.5120 C.2     1  XM11        0.0219
      5  C4        17.1710    0.3050   15.0770 C.2     1  XM11        0.1063
      6  N5        12.2340   -0.4080   21.2740 N.3     1  XM11       -0.1309
      7  N6        17.7460   -0.9530   14.8400 N.2     1  XM11       -0.1961
      8  C7        16.8180   -1.8940   15.1190 C.1     1  XM11        0.0266
      9  N8        14.6370   -3.3350   15.8050 N.2     1  XM11       -0.0389
     10  C9        15.8090   -3.8580   15.3910 C.3     1  XM11        0.3998
     11  N10       16.9380   -3.2240   15.0320 N.2     1  XM11       -0.1687
     12  N11       13.3700   -1.3760   16.3110 N.pl3   1  XM11       -0.1900
     13  C12       12.2780   -2.2660   16.7660 C.3     1  XM11        0.2236
     14  C13       10.9200   -1.5910   17.0790 C.3     1  XM11        0.1442
     15  N14       11.0580   -0.3670   17.8970 N.am    1  XM11       -0.2711
     16  C15       12.0910    0.5690   17.4010 C.3     1  XM11        0.1442
     17  C16       13.4420   -0.1430   17.1290 C.3     1  XM11        0.2236
     18  C17       10.4120   -0.2000   19.0820 C.2     1  XM11        0.2272
     19  O18        9.5460   -0.9950   19.4620 O.2     1  XM11       -0.2748
     20  C19       10.6560    1.0610   19.9540 C.3     1  XM11        0.1000
     21  C20        9.4130    1.9840   19.9870 C.3     1  XM11        0.0369
     22  C21       11.2650    0.7110   21.3290 C.3     1  XM11        0.1187
     23  C22        9.1450    2.5140   18.5910 C.ar    1  XM11       -0.0216
     24  C23        8.3180    1.7790   17.7090 C.ar    1  XM11       -0.0034
     25  C24        8.0870    2.2690   16.4050 C.ar    1  XM11        0.0111
     26  C25        8.6900    3.4840   15.9950 C.ar    1  XM11        0.0577
     27  C26        9.5240    4.2160   16.8740 C.ar    1  XM11        0.0111
     28  C27        9.7520    3.7220   18.1760 C.ar    1  XM11       -0.0034
@<TRIPOS>BOND
     1     2    26    1
     2     7     5    1
     3     7     8    2
     4    11     8    2
     5    11    10    1
     6     5     4    2
     7     8     3    1
     8    10     9    1
     9     4     3    1
    10     3     1    1
    11     9     1    2
    12     1    12    1
    13    26    25   ar
    14    26    27   ar
    15    12    13    1
    16    12    17    1
    17    25    24   ar
    18    13    14    1
    19    27    28   ar
    20    14    15    1
    21    17    16    1
    22    16    15    1
    23    24    23   ar
    24    15    18   am
    25    28    23   ar
    26    23    21    1
    27    18    19    2
    28    18    20    1
    29    20    21    1
    30    20    22    1
    31     6    22    1
