@<TRIPOS>MOLECULE
3occ_DIH_A_1.pdb
 19 21 0 0 0
SMALL
GASTEIGER

@<TRIPOS>ATOM
      1  O5'       22.1520    8.0910   29.6870 O.3   500  DIH500     -0.2203
      2  C5'       23.0820    9.1050   30.1290 C.3   500  DIH500      0.1860
      3  C4'       22.3040   10.3210   30.6750 C.3   500  DIH500      0.0807
      4  C6'       21.4000    9.8910   31.8410 C.3   500  DIH500      0.0776
      5  C3'       23.3150   11.3100   31.2560 C.3   500  DIH500      0.1717
      6  O3'       22.7870   12.6550   31.2970 O.3   500  DIH500     -0.2215
      7  C2'       23.5660   10.8450   32.6860 C.3   500  DIH500      0.1057
      8  N1'       22.2660   10.2490   32.9780 N.3   500  DIH500     -0.2665
      9  C10       22.0560    9.6420   34.2580 C.3   500  DIH500      0.1023
     10  C9        22.3440    8.1420   34.1110 C.2   500  DIH500      0.0325
     11  C8        21.3790    7.1480   34.0950 C.2   500  DIH500      0.0983
     12  N7        21.9500    5.9130   34.0730 N.2   500  DIH500     -0.2310
     13  C5        23.2990    6.0770   34.0610 C.2   500  DIH500      0.1804
     14  C6        24.4300    5.1390   34.0880 C.1   500  DIH500      0.1716
     15  O6        24.2480    3.8780   34.0550 O.2   500  DIH500     -0.2206
     16  N1        25.6670    5.6550   34.0530 N.2   500  DIH500     -0.1739
     17  C2        25.8610    7.0110   34.0970 C.3   500  DIH500      0.2626
     18  N3        24.8560    7.9040   34.0980 N.2   500  DIH500     -0.2415
     19  C4        23.5630    7.4430   34.0630 C.2   500  DIH500      0.1058
@<TRIPOS>BOND
     1     1     2    1
     2     2     3    1
     3     3     5    1
     4     3     4    1
     5     5     6    1
     6     5     7    1
     7     4     8    1
     8     7     8    1
     9     8     9    1
    10    16    14    2
    11    16    17    1
    12    15    14    2
    13    13    19    1
    14    13    12    2
    15    13    14    1
    16    19    18    2
    17    19    10    1
    18    12    11    1
    19    11    10    2
    20    17    18    1
    21    10     9    1
