@<TRIPOS>MOLECULE
3ocd_HEC_A_1.pdb
 43 50 0 0 0
SMALL
GASTEIGER

@<TRIPOS>ATOM
      1 FE          1.4700  -32.9740   15.4830 Fe    401  HEC401      0.0000
      2  CHA        4.0010  -31.7630   13.5390 C.2   401  HEC401      0.0000
      3  CHB        0.3170  -29.8140   16.0580 C.2   401  HEC401      0.0000
      4  CHC       -1.3590  -34.2960   16.9430 C.2   401  HEC401      0.0000
      5  CHD        2.9980  -36.0300   15.6230 C.2   401  HEC401      0.0000
      6  NA         2.0750  -31.1230   14.9420 N.2   401  HEC401      0.0000
      7  C1A        3.0860  -30.8580   14.0360 C.2   401  HEC401      0.0000
      8  C2A        3.0280  -29.4480   13.6970 C.2   401  HEC401      0.0000
      9  C3A        2.0120  -28.8960   14.3890 C.2   401  HEC401      0.0000
     10  C4A        1.3930  -29.9390   15.1920 C.2   401  HEC401      0.0000
     11  CMA        1.5600  -27.4180   14.3460 C.3   401  HEC401      0.0000
     12  CAA        3.9860  -28.7460   12.6920 C.3   401  HEC401      0.0000
     13  CBA        5.4370  -28.8430   13.1650 C.3   401  HEC401      0.0000
     14  CGA        6.3900  -28.1320   12.2330 C.2   401  HEC401      0.0000
     15  O1A        6.3890  -28.4150   11.0020 O.co2 401  HEC401      0.0000
     16  O2A        7.1650  -27.2800   12.7400 O.co2 401  HEC401      0.0000
     17  NB        -0.2000  -32.1940   16.4170 N.ar  401  HEC401      0.0000
     18  C1B       -0.5280  -30.8500   16.4160 C.ar  401  HEC401      0.0000
     19  C2B       -1.9060  -30.7330   16.8220 C.ar  401  HEC401      0.0000
     20  C3B       -2.3700  -31.9660   17.0490 C.ar  401  HEC401      0.0000
     21  C4B       -1.3070  -32.9200   16.8060 C.ar  401  HEC401      0.0000
     22  CMB       -2.7020  -29.4100   16.9750 C.3   401  HEC401      0.0000
     23  CAB       -3.8100  -32.3080   17.4930 C.3   401  HEC401      0.0000
     24  CBB       -4.7450  -32.1940   16.2700 C.3   401  HEC401      0.0000
     25  NC         0.9450  -34.8140   16.2280 N.2   401  HEC401      0.0000
     26  C1C       -0.3120  -35.1710   16.6830 C.2   401  HEC401      0.0000
     27  C2C       -0.3030  -36.6090   16.8650 C.2   401  HEC401      0.0000
     28  C3C        0.8700  -37.0910   16.4460 C.2   401  HEC401      0.0000
     29  C4C        1.6970  -35.9670   16.0720 C.2   401  HEC401      0.0000
     30  CMC       -1.5080  -37.4710   17.2960 C.3   401  HEC401      0.0000
     31  CAC        1.2900  -38.5830   16.4350 C.3   401  HEC401      0.0000
     32  CBC        0.8210  -39.2760   15.1300 C.3   401  HEC401      0.0000
     33  ND         3.2990  -33.7720   14.7520 N.ar  401  HEC401      0.0000
     34  C1D        3.6140  -35.1190   14.7960 C.ar  401  HEC401      0.0000
     35  C2D        4.6740  -35.3930   13.8400 C.ar  401  HEC401      0.0000
     36  C3D        4.9880  -34.0470   13.1810 C.ar  401  HEC401      0.0000
     37  C4D        4.0840  -33.1060   13.8180 C.ar  401  HEC401      0.0000
     38  CMD        5.3570  -36.7390   13.5220 C.3   401  HEC401      0.0000
     39  CAD        6.0450  -33.7670   12.0850 C.3   401  HEC401      0.0000
     40  CBD        5.3420  -33.6600   10.7340 C.3   401  HEC401      0.0000
     41  CGD        5.6140  -32.3460   10.0390 C.2   401  HEC401      0.0000
     42  O1D        5.8430  -32.3650    8.8000 O.co2 401  HEC401      0.0000
     43  O2D        5.5870  -31.2740   10.7000 O.co2 401  HEC401      0.0000
@<TRIPOS>BOND
     1    42    41   ar
     2    41    43   ar
     3    41    40    1
     4    40    39    1
     5    15    14   ar
     6    39    36    1
     7    14    16   ar
     8    14    13    1
     9    12    13    1
    10    12     8    1
    11    36    37   ar
    12    36    35   ar
    13    38    35    1
    14     2    37    2
    15     2     7    1
    16     8     7    1
    17     8     9    2
    18    37    33   ar
    19    35    34   ar
    20     7     6    2
    21    11     9    1
    22     9    10    1
    23    33    34   ar
    24    33     1    1
    25    34     5    2
    26     6    10    1
    27     6     1    1
    28    32    31    1
    29    10     3    2
    30     1    25    1
    31     1    17    1
    32     5    29    1
    33     3    18    1
    34    29    25    2
    35    29    28    1
    36    25    26    1
    37    24    23    1
    38    18    17   ar
    39    18    19   ar
    40    17    21   ar
    41    31    28    1
    42    28    27    2
    43    26    27    1
    44    26     4    2
    45    21     4    1
    46    21    20   ar
    47    19    22    1
    48    19    20   ar
    49    27    30    1
    50    20    23    1
