@<TRIPOS>MOLECULE
3ocg_OCG_A_1.pdb
 30 33 0 0 0
SMALL
GASTEIGER

@<TRIPOS>ATOM
      1  N1        35.4480   -4.7380   18.7640 N.ar  361  OCG361     -0.2127
      2  N2        36.1210   -5.6690   19.7740 N.ar  361  OCG361     -0.1621
      3  C3        36.5370   -4.9600   20.7330 C.ar  361  OCG361      0.1280
      4  C4        36.2250   -3.6120   20.5010 C.ar  361  OCG361      0.1109
      5  C5        35.5530   -3.5020   19.2790 C.ar  361  OCG361      0.1770
      6  N6        35.1210   -2.3390   18.7790 N.pl3 361  OCG361     -0.1069
      7  C7        36.5400   -2.5380   21.3690 C.2   361  OCG361      0.2734
      8  O8        36.2700   -1.3560   21.1490 O.2   361  OCG361     -0.2679
      9  N9        37.1970   -2.7530   22.5700 N.am  361  OCG361     -0.1756
     10  C10       37.3890   -1.8110   23.5850 C.ar  361  OCG361      0.0698
     11  C11       38.6800   -1.3320   23.9460 C.ar  361  OCG361     -0.0065
     12  C12       38.8390   -0.3770   24.9790 C.ar  361  OCG361     -0.0028
     13  C13       37.6860    0.0940   25.6470 C.ar  361  OCG361      0.0043
     14  C14       36.3860   -0.3610   25.3100 C.ar  361  OCG361      0.0567
     15  C15       36.2510   -1.3160   24.2750 C.ar  361  OCG361      0.0209
     16  C16       35.3680    0.1490   26.0040 C.2   361  OCG361      0.2704
     17  O17       34.2660   -0.3800   25.8770 O.2   361  OCG361     -0.2680
     18  N18       35.5470    1.2030   26.8130 N.am  361  OCG361     -0.1534
     19  C19       34.6850    1.6120   27.7560 C.ar  361  OCG361      0.1965
     20  N20       33.8340    0.9080   28.4810 N.ar  361  OCG361     -0.0598
     21  O21       33.0700    1.8300   29.4210 O.2   361  OCG361     -0.3489
     22  C22       33.5180    2.9740   29.1820 C.ar  361  OCG361      0.2153
     23  C23       34.5030    2.9340   28.1830 C.ar  361  OCG361      0.0830
     24  C24       39.9200   -1.8440   23.2250 C.3   361  OCG361      0.0324
     25  C25       34.8510   -5.0630   17.5670 C.ar  361  OCG361      0.0843
     26  C26       33.4270   -4.8860   17.3990 C.ar  361  OCG361      0.0192
     27  C27       32.7860   -5.2110   16.1830 C.ar  361  OCG361      0.0015
     28  C28       33.5280   -5.7180   15.0960 C.ar  361  OCG361      0.0001
     29  C29       34.9260   -5.8980   15.2420 C.ar  361  OCG361      0.0015
     30  C30       35.5940   -5.5800   16.4520 C.ar  361  OCG361      0.0192
@<TRIPOS>BOND
     1    28    29   ar
     2    28    27   ar
     3    29    30   ar
     4    27    26   ar
     5    30    25   ar
     6    26    25   ar
     7    25     1    1
     8     1     5   ar
     9     1     2   ar
    10     6     5    1
    11     5     4   ar
    12     2     3   ar
    13     4     3   ar
    14     4     7    1
    15     8     7    2
    16     7     9   am
    17     9    10    1
    18    24    11    1
    19    10    11   ar
    20    10    15   ar
    21    11    12   ar
    22    15    14   ar
    23    12    13   ar
    24    14    13   ar
    25    14    16    1
    26    17    16    2
    27    16    18   am
    28    18    19    1
    29    19    23   ar
    30    19    20   ar
    31    23    22   ar
    32    20    21   ar
    33    22    21   ar
