@<TRIPOS>MOLECULE
3ocl_CB9_A_1.pdb
 26 27 0 0 0
SMALL
GASTEIGER

@<TRIPOS>ATOM
      1  C          6.5160    6.2340  -17.3180 C.2     1  CB91        0.2311
      2  N          6.7990    3.7530  -16.9730 N.am    1  CB91       -0.1961
      3  O          6.4580    6.2640  -16.0960 O.2     1  CB91       -0.2863
      4  CA         6.4900    4.8330  -17.9460 C.3     1  CB91        0.1856
      5  CB         5.1100    4.6680  -18.6300 C.3     1  CB91        0.1479
      6  CAA        2.8140    2.5280  -16.3960 C.3     1  CB91        0.0129
      7  CAB        1.7240    3.5220  -18.4100 C.3     1  CB91        0.0129
      8  OAD        1.6820    5.7020  -15.4730 O.co2   1  CB91       -0.2441
      9  OAE        9.6230    2.6090  -15.6730 O.co2   1  CB91       -0.2448
     10  OAF        7.6440    2.5870  -18.6610 O.2     1  CB91       -0.2724
     11  OAG        1.6540    6.5360  -17.5140 O.co2   1  CB91       -0.2441
     12  OAH        9.7740    0.4490  -15.8550 O.co2   1  CB91       -0.2448
     13  CAJ        4.8790   -0.1790  -14.0140 C.ar    1  CB91       -0.0000
     14  CAK        4.9130   -0.5690  -15.3470 C.ar    1  CB91       -0.0003
     15  CAL        5.8040    0.7500  -13.5330 C.ar    1  CB91       -0.0003
     16  CAM        5.8760   -0.0270  -16.1920 C.ar    1  CB91       -0.0033
     17  CAN        6.7690    1.2950  -14.3790 C.ar    1  CB91       -0.0033
     18  NAP        4.1020    5.5160  -18.0350 N.3     1  CB91       -0.1957
     19  SAQ        4.3770    3.0690  -18.5180 S.3     1  CB91       -0.1212
     20  CAR        2.1240    5.7730  -16.6410 C.2     1  CB91        0.3811
     21  CAS        9.1570    1.5150  -16.0250 C.2     1  CB91        0.3771
     22  CAT        7.4000    2.6550  -17.4720 C.2     1  CB91        0.2564
     23  CAU        6.7960    0.9150  -15.7200 C.ar    1  CB91       -0.0030
     24  CAX        3.3040    4.9180  -16.9980 C.3     1  CB91        0.1857
     25  CAY        7.8080    1.4240  -16.6850 C.3     1  CB91        0.2032
     26  CAZ        2.9730    3.5240  -17.5380 C.3     1  CB91        0.0658
@<TRIPOS>BOND
     1    10    22    2
     2     5    19    1
     3     5    18    1
     4     5     4    1
     5    19    26    1
     6     7    26    1
     7    18    24    1
     8     4     1    1
     9     4     2    1
    10    26    24    1
    11    26     6    1
    12    11    20   ar
    13    22     2   am
    14    22    25    1
    15     1     3    2
    16    24    20    1
    17    25    21    1
    18    25    23    1
    19    20     8   ar
    20    16    23   ar
    21    16    14   ar
    22    21    12   ar
    23    21     9   ar
    24    23    17   ar
    25    14    13   ar
    26    17    15   ar
    27    13    15   ar
