@<TRIPOS>MOLECULE
3ocm_ADP_A_1.pdb
 27 29 0 0 0
SMALL
GASTEIGER

@<TRIPOS>ATOM
      1  PB        25.2750   66.8250   21.9070 P.3   470  ADP470      0.5373
      2  O1B       25.7440   67.0720   23.3110 O.3   470  ADP470     -0.1143
      3  O2B       24.8840   68.1000   21.1920 O.2   470  ADP470     -0.2221
      4  O3B       24.2220   65.7620   21.8040 O.3   470  ADP470     -0.1143
      5  PA        27.7930   65.3640   21.3920 P.3   470  ADP470      0.2231
      6  O1A       28.9570   65.8810   20.5720 O.2   470  ADP470     -0.5169
      7  O2A       28.0050   65.3110   22.8790 O.3   470  ADP470     -0.4370
      8  O3A       26.5180   66.2930   21.0320 O.3   470  ADP470     -0.2261
      9  O5'       27.3420   63.9560   20.8260 O.3   470  ADP470     -0.3111
     10  C5'       26.6310   62.9940   21.6050 C.3   470  ADP470      0.1813
     11  C4'       25.8210   62.1180   20.6520 C.3   470  ADP470      0.1821
     12  O4'       24.7640   62.8870   20.0410 O.3   470  ADP470     -0.3135
     13  C3'       26.6620   61.5650   19.4940 C.3   470  ADP470      0.2184
     14  O3'       26.2480   60.2210   19.2610 O.3   470  ADP470     -0.2174
     15  C2'       26.2320   62.4070   18.2900 C.3   470  ADP470      0.2570
     16  O2'       26.4240   61.7430   17.0320 O.3   470  ADP470     -0.2130
     17  C1'       24.7740   62.6630   18.6320 C.3   470  ADP470      0.3186
     18  N9        24.2110   63.8920   18.0300 N.pl3 470  ADP470     -0.1439
     19  C8        24.6580   65.1650   18.1720 C.3   470  ADP470      0.3377
     20  N7        23.8690   66.0180   17.4710 N.2   470  ADP470     -0.2095
     21  C5        22.8800   65.2720   16.9080 C.2   470  ADP470      0.2526
     22  C6        21.7080   65.5110   16.0430 C.2   470  ADP470      0.4393
     23  N6        21.3670   66.7480   15.6380 N.pl3 470  ADP470      0.2180
     24  N1        20.9660   64.4380   15.6880 N.2   470  ADP470      0.0021
     25  C2        21.2540   63.1860   16.0740 C.3   470  ADP470      0.5254
     26  N3        22.2950   62.8810   16.8580 N.2   470  ADP470     -0.0055
     27  C4        23.1170   63.8770   17.2840 C.2   470  ADP470      0.3518
@<TRIPOS>BOND
     1    23    22    1
     2    24    22    2
     3    24    25    1
     4    22    21    1
     5    25    26    1
     6    26    27    2
     7    21    27    1
     8    21    20    2
     9    16    15    1
    10    27    18    1
    11    20    19    1
    12    18    19    1
    13    18    17    1
    14    15    17    1
    15    15    13    1
    16    17    12    1
    17    14    13    1
    18    13    11    1
    19    12    11    1
    20     6     5    2
    21    11    10    1
    22     9     5    1
    23     9    10    1
    24     8     5    1
    25     8     1    1
    26     3     1    2
    27     5     7    1
    28     4     1    1
    29     1     2    1
