@<TRIPOS>MOLECULE
3ocn_CTJ_A_1.pdb
 31 32 0 0 0
SMALL
GASTEIGER

@<TRIPOS>ATOM
      1  C          6.0770    4.9410  -16.6970 C.2     1  CTJ1        0.2316
      2  O          6.1360    5.3380  -15.5410 O.2     1  CTJ1       -0.2863
      3  S1         5.2870    1.0330  -17.4440 S.3     1  CTJ1       -0.1145
      4  C2         3.6180    0.7170  -17.9240 C.3     1  CTJ1        0.0656
      5  C3         2.5700    1.5810  -17.2440 C.3     1  CTJ1        0.0574
      6  C4         2.8650    2.7880  -16.7440 C.2     1  CTJ1        0.1345
      7  N5         4.1170    3.0460  -16.4010 N.2     1  CTJ1       -0.2568
      8  C6         5.1350    2.7770  -17.3990 C.3     1  CTJ1        0.1777
      9  CA         6.4230    3.5130  -17.0190 C.3     1  CTJ1        0.1923
     10  N10        7.0920    2.9480  -15.8620 N.am    1  CTJ1       -0.1910
     11  C11        8.0590    2.0420  -15.9530 C.2     1  CTJ1        0.2884
     12  O12        8.4540    1.5640  -17.0070 O.2     1  CTJ1       -0.2665
     13  C13        8.6380    1.6420  -14.6720 C.2     1  CTJ1        0.2002
     14  C14        9.6280    2.5440  -14.0140 C.2     1  CTJ1        0.1478
     15  C15       10.0100    3.7840  -14.5310 C.3     1  CTJ1        0.1266
     16  N16        8.2680    0.4860  -14.1300 N.2     1  CTJ1       -0.0757
     17  S16       11.1950    4.6540  -13.5930 S.3     1  CTJ1       -0.0564
     18  C17       11.1220    3.2850  -12.5260 C.2     1  CTJ1        0.2461
     19  O17        7.4390   -0.2480  -14.7300 O.2     1  CTJ1       -0.3735
     20  C18        6.9980   -1.4840  -14.1760 C.3     1  CTJ1        0.2530
     21  N18       11.8810    3.2400  -11.4030 N.pl3   1  CTJ1       -0.0867
     22  C19        6.2210   -2.2320  -15.2480 C.3     1  CTJ1        0.0583
     23  N19       10.2870    2.2720  -12.8570 N.2     1  CTJ1       -0.3794
     24  C20        6.1070   -1.1870  -12.9750 C.3     1  CTJ1        0.0583
     25  C21        8.1840   -2.3310  -13.7590 C.2     1  CTJ1        0.4027
     26  O2A        9.2430   -2.2640  -14.4230 O.co2   1  CTJ1       -0.2417
     27  O2B        8.0710   -3.0780  -12.7640 O.co2   1  CTJ1       -0.2417
     28  C3'        1.1680    1.0370  -17.1660 C.3     1  CTJ1        0.0074
     29  C4'        1.9030    3.8710  -16.6000 C.2     1  CTJ1        0.4007
     30  O4A        1.0030    3.8330  -15.7260 O.co2   1  CTJ1       -0.2392
     31  O4B        2.0310    4.8340  -17.3770 O.co2   1  CTJ1       -0.2392
@<TRIPOS>BOND
     1     4     3    1
     2     4     5    1
     3     3     8    1
     4     8     9    1
     5     8     7    1
     6    31    29   ar
     7     5    28    1
     8     5     6    1
     9     9     1    1
    10     9    10    1
    11    12    11    2
    12     6    29    1
    13     6     7    2
    14     1     2    2
    15    29    30   ar
    16    11    10   am
    17    11    13    1
    18    22    20    1
    19    19    20    1
    20    19    16    1
    21    13    16    2
    22    13    14    1
    23    15    14    1
    24    15    17    1
    25    26    25   ar
    26    20    25    1
    27    20    24    1
    28    14    23    2
    29    25    27   ar
    30    17    18    1
    31    23    18    2
    32    18    21    1
