@<TRIPOS>MOLECULE
3ocp_CMP_A_1.pdb
 22 25 0 0 0
SMALL
GASTEIGER

@<TRIPOS>ATOM
      1  P         -3.0200   33.7660   27.3530 P.3   250  CMP250      0.2141
      2  O1P       -1.8590   32.8890   27.5550 O.3   250  CMP250     -0.4373
      3  O2P       -4.3880   33.0150   26.8450 O.2   250  CMP250     -0.5172
      4  O5'       -3.4280   34.4910   28.6750 O.3   250  CMP250     -0.3114
      5  C5'       -2.4370   35.4280   29.0830 C.3   250  CMP250      0.1812
      6  C4'       -2.2180   36.3760   27.9470 C.3   250  CMP250      0.1793
      7  O4'       -1.1850   37.3520   28.1860 O.3   250  CMP250     -0.3136
      8  C3'       -1.7470   35.7220   26.6780 C.3   250  CMP250      0.1884
      9  O3'       -2.7460   34.8610   26.1650 O.3   250  CMP250     -0.3111
     10  C2'       -1.4250   36.9540   25.8490 C.3   250  CMP250      0.2541
     11  O2'       -2.6120   37.5830   25.3770 O.3   250  CMP250     -0.2131
     12  C1'       -0.7650   37.8350   26.9200 C.3   250  CMP250      0.3185
     13  N9         0.7060   37.7210   26.8720 N.pl3 250  CMP250     -0.1439
     14  C8         1.4260   36.6770   27.2750 C.3   250  CMP250      0.3377
     15  N7         2.7530   36.9720   27.0750 N.2   250  CMP250     -0.2095
     16  C5         2.8230   38.2290   26.5330 C.2   250  CMP250      0.2526
     17  C6         3.9530   39.0560   26.1190 C.2   250  CMP250      0.4393
     18  N6         5.3010   38.5520   26.2710 N.pl3 250  CMP250      0.2180
     19  N1         3.7500   40.2500   25.6160 N.2   250  CMP250      0.0021
     20  C2         2.4610   40.7270   25.4840 C.3   250  CMP250      0.5254
     21  N3         1.3720   39.9340   25.8870 N.2   250  CMP250     -0.0055
     22  C4         1.5860   38.7010   26.4050 C.2   250  CMP250      0.3518
@<TRIPOS>BOND
     1    11    10    1
     2    20    19    1
     3    20    21    1
     4    19    17    2
     5    10     8    1
     6    10    12    1
     7    21    22    2
     8    17    18    1
     9    17    16    1
    10     9     8    1
    11     9     1    1
    12    22    16    1
    13    22    13    1
    14    16    15    2
    15     8     6    1
    16     3     1    2
    17    13    12    1
    18    13    14    1
    19    12     7    1
    20    15    14    1
    21     1     2    1
    22     1     4    1
    23     6     7    1
    24     6     5    1
    25     4     5    1
