@<TRIPOS>MOLECULE
3ocs_746_A_1.pdb
 43 47 0 0 0
SMALL
GASTEIGER

@<TRIPOS>ATOM
      1  C1       -43.4850   19.2770    8.9010 C.ar  999  746999      0.0245
      2  C2       -43.5110   19.8210    7.5870 C.ar  999  746999     -0.0043
      3  C3       -42.8960   19.0380    6.4330 C.3   999  746999      0.0325
      4  C4       -44.0810   21.0980    7.3600 C.ar  999  746999      0.0698
      5  C5       -44.6190   21.8310    8.3990 C.ar  999  746999      0.0163
      6  C7       -44.6160   21.2870    9.6830 C.ar  999  746999      0.0014
      7  C9       -44.0610   20.0290    9.9420 C.ar  999  746999      0.0020
      8  C11      -42.9260   17.9460    9.2810 C.2   999  746999      0.1306
      9  N12      -42.3180   17.7850   10.5020 N.2   999  746999     -0.3832
     10  C13      -41.8140   16.5890   10.8750 C.2   999  746999      0.2570
     11  C14      -41.9410   15.4880   10.0310 C.2   999  746999      0.2953
     12  O15      -41.4760   14.3530   10.3900 O.2   999  746999     -0.2656
     13  N16      -42.5430   15.6340    8.8460 N.am  999  746999     -0.2644
     14  C17      -43.0560   16.8260    8.4530 C.3   999  746999      0.1530
     15  N19      -44.0360   21.5980    6.0870 N.am  999  746999     -0.1758
     16  C21      -44.8470   21.1770    5.1150 C.2   999  746999      0.2690
     17  O22      -45.7550   20.3660    5.2980 O.2   999  746999     -0.2680
     18  C23      -44.5750   21.6650    3.7080 C.ar  999  746999      0.0554
     19  C24      -45.5540   21.6330    2.7010 C.ar  999  746999      0.0043
     20  C26      -45.2420   22.0560    1.4020 C.ar  999  746999     -0.0041
     21  C28      -43.9290   22.4650    1.0910 C.ar  999  746999     -0.0228
     22  C29      -42.9390   22.4550    2.1060 C.ar  999  746999     -0.0041
     23  C31      -43.2550   22.0560    3.4110 C.ar  999  746999      0.0043
     24  C33      -43.5940   22.9400   -0.3100 C.3   999  746999      0.0189
     25  C34      -43.3710   24.4520   -0.2580 C.3   999  746999      0.0044
     26  C38      -44.7350   22.6520   -1.2770 C.3   999  746999      0.0044
     27  C42      -42.3130   22.2910   -0.8480 C.3   999  746999      0.0044
     28  C46      -40.9550   17.2220   13.1040 C.ar  999  746999      0.0732
     29  N47      -41.2010   16.3770   12.0640 N.pl3 999  746999     -0.1798
     30  C48      -41.2650   18.5810   13.1100 C.ar  999  746999      0.0167
     31  C49      -40.9350   19.3540   14.2240 C.ar  999  746999      0.0058
     32  C50      -40.3160   18.7610   15.3350 C.ar  999  746999      0.0537
     33  C51      -40.0420   17.3980   15.3360 C.ar  999  746999      0.0058
     34  C52      -40.3580   16.6430   14.2220 C.ar  999  746999      0.0167
     35  C60      -42.6850   14.4990    7.9120 C.3   999  746999      0.1157
     36  C71      -39.9420   19.5750   16.5520 C.2   999  746999      0.2492
     37  O72      -40.7860   20.3290   17.0010 O.2   999  746999     -0.2699
     38  C81      -37.7260   19.3120   19.2880 C.3   999  746999      0.1637
     39  C82      -38.3390   20.2710   18.2700 C.3   999  746999      0.1258
     40  N83      -38.7090   19.4680   17.0930 N.am  999  746999     -0.2709
     41  C84      -37.6350   18.6040   16.5350 C.3   999  746999      0.1258
     42  C85      -36.9880   17.7860   17.6500 C.3   999  746999      0.1637
     43  O86      -36.5880   18.6800   18.6860 O.3   999  746999     -0.3501
@<TRIPOS>BOND
     1    26    24    1
     2    27    24    1
     3    24    25    1
     4    24    21    1
     5    21    20   ar
     6    21    22   ar
     7    20    19   ar
     8    22    23   ar
     9    19    18   ar
    10    23    18   ar
    11    18    16    1
    12    16    17    2
    13    16    15   am
    14    15     4    1
    15     3     2    1
    16     4     2   ar
    17     4     5   ar
    18     2     1   ar
    19    35    13    1
    20     5     6   ar
    21    14    13    1
    22    14     8    1
    23    13    11   am
    24     1     8    1
    25     1     7   ar
    26     8     9    2
    27     6     7   ar
    28    11    12    2
    29    11    10    1
    30     9    10    2
    31    10    29    1
    32    29    28    1
    33    28    30   ar
    34    28    34   ar
    35    30    31   ar
    36    34    33   ar
    37    31    32   ar
    38    32    33   ar
    39    32    36    1
    40    41    40    1
    41    41    42    1
    42    36    37    2
    43    36    40   am
    44    40    39    1
    45    42    43    1
    46    39    38    1
    47    43    38    1
