@<TRIPOS>MOLECULE
3oct_1N1_A_1.pdb
 33 36 0 0 0
SMALL
GASTEIGER

@<TRIPOS>ATOM
      1  C1        12.3660    4.7790   21.0800 C.ar  663  1N1663      0.1120
      2  C2        12.5570    3.5380   20.4570 C.ar  663  1N1663      0.1065
      3  C3        12.7680    3.1630   19.0340 C.2   663  1N1663      0.2766
      4  N6        10.9650    0.2510   30.7990 N.3   663  1N1663     -0.2675
      5  C7        13.4940    3.2730   14.0610 C.ar  663  1N1663      0.0006
      6  C8        14.6170    3.5190   14.8460 C.ar  663  1N1663     -0.0029
      7  C9        14.4900    3.7930   16.2040 C.ar  663  1N1663     -0.0057
      8  C10       15.7200    4.0740   17.0300 C.3   663  1N1663      0.0324
      9  C11       11.9930    1.9470   24.8060 C.2   663  1N1663      0.2025
     10  C12       11.8940    1.8040   26.1980 C.3   663  1N1663      0.1532
     11  C13       11.8550    0.5120   26.7620 C.2   663  1N1663      0.1809
     12  C14       12.0040   -0.3960   24.5970 C.1   663  1N1663      0.1168
     13  C15       12.0830   -1.5890   23.6830 C.3   663  1N1663      0.1429
     14  C16       11.8730   -0.9570   28.8140 C.3   663  1N1663      0.1102
     15  C19       11.4920    1.5780   28.9230 C.3   663  1N1663      0.1102
     16  C20       10.1000    0.4060   31.9940 C.3   663  1N1663      0.1082
     17  C21        9.7010    1.8770   32.2530 C.3   663  1N1663      0.1993
     18  N         12.0390    3.1850   24.2340 N.pl3 663  1N1663     -0.1613
     19  C         12.1750    3.4310   22.8960 C.ar  663  1N1663      0.1855
     20  N1        12.1810    4.6930   22.4250 N.ar  663  1N1663     -0.2208
     21  S         12.4740    2.2100   21.6350 S.2   663  1N1663     -0.0450
     22  N2        13.0420    4.1270   18.1500 N.am  663  1N1663     -0.1744
     23  C4        13.2240    3.8270   16.7860 C.ar  663  1N1663      0.0802
     24  C5        12.1070    3.5850   16.0010 C.ar  663  1N1663      0.0726
     25  C6        12.2310    3.3030   14.6430 C.ar  663  1N1663      0.0127
     26 CL         10.4800    3.6230   16.7500 Cl    663  1N1663     -0.0809
     27  O         12.6730    1.9960   18.7150 O.2   663  1N1663     -0.2674
     28  N3        11.9120   -0.5630   25.9440 N.2   663  1N1663     -0.3326
     29  N4        12.0680    0.8340   24.0450 N.2   663  1N1663     -0.3308
     30  N5        11.7410    0.3540   28.1580 N.pl3 663  1N1663     -0.2831
     31  C17       10.9480   -1.0190   30.0510 C.3   663  1N1663      0.0939
     32  C18       11.8690    1.3130   30.3720 C.3   663  1N1663      0.0939
     33  O1         8.2660    2.0640   32.4130 O.3   663  1N1663     -0.2189
@<TRIPOS>BOND
     1     5    25   ar
     2     5     6   ar
     3    25    24   ar
     4     6     7   ar
     5    24    26    1
     6    24    23   ar
     7     7    23   ar
     8     7     8    1
     9    23    22    1
    10    22     3   am
    11    27     3    2
    12     3     2    1
    13     2     1   ar
    14     2    21   ar
    15     1    20   ar
    16    21    19   ar
    17    20    19   ar
    18    19    18    1
    19    13    12    1
    20    29    12    2
    21    29     9    2
    22    18     9    1
    23    12    28    2
    24     9    10    1
    25    28    11    2
    26    10    11    1
    27    11    30    1
    28    30    14    1
    29    30    15    1
    30    14    31    1
    31    15    32    1
    32    31     4    1
    33    32     4    1
    34     4    16    1
    35    16    17    1
    36    17    33    1
