@<TRIPOS>MOLECULE
3ocu_NMN_A_1.pdb
 22 23 0 0 0
SMALL
GASTEIGER

@<TRIPOS>ATOM
      1  O3P       41.2880  -12.9480   -7.7650 O.3   2003  NMN2003    -0.1145
      2  P         41.1270  -14.3320   -8.5530 P.3   2003  NMN2003     0.5327
      3  O1P       40.6480  -14.2300   -9.9350 O.2   2003  NMN2003    -0.2224
      4  O2P       40.3700  -15.4570   -7.6600 O.3   2003  NMN2003    -0.1145
      5  O5R       42.6620  -14.9090   -8.6490 O.3   2003  NMN2003    -0.2675
      6  C5R       43.7020  -13.9790   -8.8160 C.3   2003  NMN2003     0.1859
      7  C4R       44.9380  -14.6720   -9.3830 C.3   2003  NMN2003     0.1801
      8  O4R       46.0460  -13.7260   -9.4900 O.3   2003  NMN2003    -0.3327
      9  C3R       45.5570  -15.8200   -8.4990 C.3   2003  NMN2003     0.2158
     10  O3R       44.9320  -17.0770   -8.5990 O.3   2003  NMN2003    -0.2175
     11  C2R       47.0190  -15.8010   -8.9960 C.3   2003  NMN2003     0.2309
     12  O2R       47.1450  -16.5370  -10.1840 O.3   2003  NMN2003    -0.2158
     13  C1R       47.2620  -14.3670   -9.1990 C.3   2003  NMN2003     0.2263
     14  N1        47.9060  -13.6310   -8.1140 N.pl3 2003  NMN2003    -0.2787
     15  C2        48.7740  -12.6170   -8.5040 C.3   2003  NMN2003     0.1244
     16  C3        49.4330  -11.8430   -7.4820 C.2   2003  NMN2003     0.0544
     17  C7        50.3970  -10.7640   -7.9550 C.2   2003  NMN2003     0.2818
     18  O7        50.4180  -10.4700   -9.1040 O.2   2003  NMN2003    -0.2670
     19  N7        51.2500  -10.1480   -6.9800 N.am  2003  NMN2003    -0.0839
     20  C4        49.1800  -12.0970   -6.0530 C.2   2003  NMN2003     0.0033
     21  C5        48.2860  -13.0940   -5.6690 C.2   2003  NMN2003     0.0157
     22  C6        47.6140  -13.8920   -6.7090 C.2   2003  NMN2003     0.0633
@<TRIPOS>BOND
     1    12    11    1
     2     3     2    2
     3     8     7    1
     4     8    13    1
     5     7     6    1
     6     7     9    1
     7    13    11    1
     8    13    14    1
     9    18    17    2
    10    11     9    1
    11     6     5    1
    12     5     2    1
    13    10     9    1
    14     2     1    1
    15     2     4    1
    16    15    14    1
    17    15    16    1
    18    14    22    1
    19    17    16    1
    20    17    19   am
    21    16    20    2
    22    22    21    2
    23    20    21    1
