@<TRIPOS>MOLECULE
3ocv_AMP_A_1.pdb
 23 25 0 0 0
SMALL
GASTEIGER

@<TRIPOS>ATOM
      1  P         41.2480  -14.3570   -8.5120 P.3   263  AMP263      0.5327
      2  O1P       40.4530  -15.4040   -7.7590 O.3   263  AMP263     -0.1145
      3  O2P       41.3880  -13.0220   -7.8740 O.3   263  AMP263     -0.1145
      4  O3P       40.7600  -14.2170   -9.9330 O.2   263  AMP263     -0.2224
      5  O5'       42.7150  -14.9270   -8.7280 O.3   263  AMP263     -0.2675
      6  C5'       43.8140  -14.0560   -8.9100 C.3   263  AMP263      0.1860
      7  C4'       45.0020  -14.7860   -9.4800 C.3   263  AMP263      0.1823
      8  O4'       46.0510  -13.8330   -9.7500 O.3   263  AMP263     -0.3135
      9  C3'       45.6610  -15.8130   -8.5630 C.3   263  AMP263      0.2184
     10  O3'       45.0140  -17.0770   -8.5750 O.3   263  AMP263     -0.2174
     11  C2'       47.0890  -15.8650   -9.0860 C.3   263  AMP263      0.2570
     12  O2'       47.1680  -16.6920  -10.2410 O.3   263  AMP263     -0.2130
     13  C1'       47.3090  -14.4180   -9.5170 C.3   263  AMP263      0.3186
     14  N9        48.0100  -13.6340   -8.4850 N.pl3 263  AMP263     -0.1439
     15  C8        47.9760  -13.7930   -7.1450 C.3   263  AMP263      0.3377
     16  N7        48.7860  -12.8850   -6.5280 N.2   263  AMP263     -0.2095
     17  C5        49.3390  -12.1320   -7.5010 C.2   263  AMP263      0.2526
     18  C6        50.2930  -11.0070   -7.5810 C.2   263  AMP263      0.4393
     19  N6        50.8290  -10.4730   -6.4670 N.pl3 263  AMP263      0.2180
     20  N1        50.6010  -10.5260   -8.8030 N.2   263  AMP263      0.0021
     21  C2        50.0860  -11.0450   -9.9300 C.3   263  AMP263      0.5254
     22  N3        49.2240  -12.0750   -9.9390 N.2   263  AMP263     -0.0055
     23  C4        48.8300  -12.6380   -8.7790 C.2   263  AMP263      0.3518
@<TRIPOS>BOND
     1    12    11    1
     2    22    21    1
     3    22    23    2
     4     4     1    2
     5    21    20    1
     6     8    13    1
     7     8     7    1
     8    13    11    1
     9    13    14    1
    10     7     6    1
    11     7     9    1
    12    11     9    1
    13     6     5    1
    14    20    18    2
    15    23    14    1
    16    23    17    1
    17     5     1    1
    18    10     9    1
    19     1     3    1
    20     1     2    1
    21    14    15    1
    22    18    17    1
    23    18    19    1
    24    17    16    2
    25    15    16    1
