@<TRIPOS>MOLECULE
3ocw_3AM_A_1.pdb
 23 25 0 0 0
SMALL
GASTEIGER

@<TRIPOS>ATOM
      1  O1P       40.6360  -14.3110  -10.1050 O.2   264  3AM264     -0.2224
      2  P         41.3270  -14.4680   -8.6090 P.3   264  3AM264      0.5327
      3  O2P       40.5100  -15.5980   -7.7140 O.3   264  3AM264     -0.1145
      4  O3P       41.4040  -13.1550   -7.9440 O.3   264  3AM264     -0.1145
      5  O2'       43.9820  -12.6140   -7.6530 O.3   264  3AM264     -0.2131
      6  C2'       44.7460  -13.5400   -8.3810 C.3   264  3AM264      0.2543
      7  C3'       43.9930  -14.4610   -9.3160 C.3   264  3AM264      0.1929
      8  O3'       42.8730  -15.1370   -8.7520 O.3   264  3AM264     -0.2673
      9  C1'       45.6500  -14.4740   -7.6290 C.3   264  3AM264      0.3185
     10  O4'       46.1190  -15.4090   -8.6060 O.3   264  3AM264     -0.3135
     11  C4'       45.1690  -15.4330   -9.7420 C.3   264  3AM264      0.1824
     12  C5'       45.8050  -15.1290  -11.1190 C.3   264  3AM264      0.2142
     13  O5'       46.1680  -13.8010  -11.3700 O.3   264  3AM264     -0.2176
     14  N9        46.7810  -13.7350   -7.0490 N.pl3 264  3AM264     -0.1439
     15  C8        47.0760  -13.5520   -5.7370 C.3   264  3AM264      0.3377
     16  N7        48.2400  -12.7130   -5.6570 N.2   264  3AM264     -0.2095
     17  C5        48.6190  -12.3960   -6.9630 C.2   264  3AM264      0.2526
     18  C6        49.6650  -11.6120   -7.4830 C.2   264  3AM264      0.4393
     19  N6        50.5910  -10.9220   -6.5770 N.pl3 264  3AM264      0.2180
     20  C4        47.7460  -13.0150   -7.8310 C.2   264  3AM264      0.3518
     21  N3        47.8840  -12.8650   -9.2530 N.2   264  3AM264     -0.0055
     22  C2        48.9430  -12.0740   -9.7790 C.3   264  3AM264      0.5254
     23  N1        49.8080  -11.4640   -8.9260 N.2   264  3AM264      0.0021
@<TRIPOS>BOND
     1    13    12    1
     2    12    11    1
     3     1     2    2
     4    22    21    1
     5    22    23    1
     6    11     7    1
     7    11    10    1
     8     7     8    1
     9     7     6    1
    10    21    20    2
    11    23    18    2
    12     8     2    1
    13     2     4    1
    14     2     3    1
    15    10     9    1
    16     6     5    1
    17     6     9    1
    18    20    14    1
    19    20    17    1
    20     9    14    1
    21    18    17    1
    22    18    19    1
    23    14    15    1
    24    17    16    2
    25    15    16    1
