@<TRIPOS>MOLECULE
3ocx_2AM_A_1.pdb
 23 25 0 0 0
SMALL
GASTEIGER

@<TRIPOS>ATOM
      1  P         42.8650  -13.5620   -8.9270 P.3   263  2AM263      0.5328
      2  O1P       42.2410  -14.8580   -9.3680 O.3   263  2AM263     -0.1145
      3  O2P       43.1030  -12.6420  -10.1010 O.2   263  2AM263     -0.2224
      4  O3P       41.9610  -12.9610   -7.8930 O.3   263  2AM263     -0.1145
      5  C5'       47.5580  -15.2920  -11.0790 C.3   263  2AM263      0.2143
      6  O5'       47.4100  -13.8980  -11.2500 O.3   263  2AM263     -0.2176
      7  C4'       46.6960  -15.7800   -9.9190 C.3   263  2AM263      0.1850
      8  O4'       47.2900  -15.4690   -8.6750 O.3   263  2AM263     -0.3135
      9  C3'       45.3290  -15.1250   -9.9010 C.3   263  2AM263      0.2158
     10  O3'       44.4600  -16.1460   -9.4710 O.3   263  2AM263     -0.2175
     11  C2'       45.4340  -14.0480   -8.8420 C.3   263  2AM263      0.2314
     12  O2'       44.2260  -13.9070   -8.1460 O.3   263  2AM263     -0.2630
     13  C1'       46.4420  -14.6490   -7.8870 C.3   263  2AM263      0.3158
     14  N9        47.3180  -13.7130   -7.1590 N.pl3 263  2AM263     -0.1439
     15  C8        47.4650  -13.6130   -5.8000 C.3   263  2AM263      0.3377
     16  N7        48.4270  -12.6920   -5.5440 N.2   263  2AM263     -0.2095
     17  C5        48.8900  -12.2260   -6.7230 C.2   263  2AM263      0.2526
     18  C6        49.8600  -11.2780   -7.0400 C.2   263  2AM263      0.4393
     19  N6        50.5190  -10.6570   -6.0720 N.pl3 263  2AM263      0.2180
     20  N1        50.1300  -11.0000   -8.3540 N.2   263  2AM263      0.0021
     21  C2        49.4460  -11.6540   -9.3590 C.3   263  2AM263      0.5254
     22  N3        48.4770  -12.5920   -9.0440 N.2   263  2AM263     -0.0055
     23  C4        48.2180  -12.8710   -7.7440 C.2   263  2AM263      0.3518
@<TRIPOS>BOND
     1     6     5    1
     2     5     7    1
     3     3     1    2
     4     7     9    1
     5     7     8    1
     6     9    10    1
     7     9    11    1
     8     2     1    1
     9    21    22    1
    10    21    20    1
    11    22    23    2
    12     1    12    1
    13     1     4    1
    14    11    12    1
    15    11    13    1
    16     8    13    1
    17    20    18    2
    18    13    14    1
    19    23    14    1
    20    23    17    1
    21    14    15    1
    22    18    17    1
    23    18    19    1
    24    17    16    2
    25    15    16    1
