@<TRIPOS>MOLECULE
3ocz_SRA_A_1.pdb
 23 25 0 0 0
SMALL
GASTEIGER

@<TRIPOS>ATOM
      1  P         41.6170  -13.6140   -9.4600 P.3   264  SRA264      0.4295
      2  OP1       41.4090  -12.8270   -8.0640 O.3   264  SRA264     -0.1307
      3  S2P       41.9040  -12.2580  -11.0280 S.3   264  SRA264      0.0413
      4  OP3       40.5770  -14.5270   -9.9130 O.2   264  SRA264     -0.2426
      5  O5'       42.9490  -14.4400   -9.3670 O.3   264  SRA264     -0.2822
      6  C5'       44.1510  -13.8320   -8.9810 C.3   264  SRA264      0.1844
      7  C4'       45.3090  -14.6790   -9.3970 C.3   264  SRA264      0.1822
      8  O4'       46.4480  -13.8340   -9.6240 O.3   264  SRA264     -0.3135
      9  C3'       45.7920  -15.6980   -8.3760 C.3   264  SRA264      0.2184
     10  O3'       45.0320  -16.8970   -8.3840 O.3   264  SRA264     -0.2174
     11  C2'       47.2430  -15.9010   -8.7790 C.3   264  SRA264      0.2570
     12  C1'       47.6220  -14.4970   -9.2310 C.3   264  SRA264      0.3186
     13  N9        48.2510  -13.7200   -8.1650 N.pl3 264  SRA264     -0.1439
     14  C8        48.1970  -13.8670   -6.7690 C.3   264  SRA264      0.3377
     15  N7        49.0050  -12.8930   -6.2450 N.2   264  SRA264     -0.2095
     16  C5        49.5590  -12.1360   -7.3540 C.2   264  SRA264      0.2526
     17  C6        50.4680  -11.0380   -7.4200 C.2   264  SRA264      0.4393
     18  N6        51.0420  -10.5260   -6.2010 N.pl3 264  SRA264      0.2180
     19  N1        50.8140  -10.5170   -8.6550 N.2   264  SRA264      0.0021
     20  C2        50.3030  -11.0490   -9.8470 C.3   264  SRA264      0.5254
     21  N3        49.4440  -12.1220   -9.7940 N.2   264  SRA264     -0.0055
     22  C4        49.0880  -12.6430   -8.4960 C.2   264  SRA264      0.3518
     23  O2'       47.3370  -16.7580   -9.9030 O.3   264  SRA264     -0.2130
@<TRIPOS>BOND
     1     3     1    1
     2     4     1    2
     3    23    11    1
     4    20    21    1
     5    20    19    1
     6    21    22    2
     7     8     7    1
     8     8    12    1
     9     1     5    1
    10     1     2    1
    11     7     6    1
    12     7     9    1
    13     5     6    1
    14    12    11    1
    15    12    13    1
    16    11     9    1
    17    19    17    2
    18    22    13    1
    19    22    16    1
    20    10     9    1
    21    13    14    1
    22    17    16    1
    23    17    18    1
    24    16    15    2
    25    14    15    1
