@<TRIPOS>MOLECULE
3od0_PCG_A_1.pdb
 23 26 0 0 0
SMALL
GASTEIGER

@<TRIPOS>ATOM
      1  PA         3.0270  -34.2670   27.3260 P.3   250  PCG250      0.2141
      2  O1A        4.3660  -33.6020   27.1110 O.2   250  PCG250     -0.5172
      3  O2A        1.7570  -33.4760   27.4790 O.3   250  PCG250     -0.4373
      4  O5'        3.1190  -35.0840   28.7010 O.3   250  PCG250     -0.3114
      5  C5'        2.2030  -36.1400   28.9620 C.3   250  PCG250      0.1812
      6  C4'        2.2780  -37.0550   27.7620 C.3   250  PCG250      0.1771
      7  O4'        1.4170  -38.1800   27.8410 O.3   250  PCG250     -0.3327
      8  C3'        1.7890  -36.3570   26.5200 C.3   250  PCG250      0.1857
      9  O3'        2.7620  -35.3780   26.1890 O.3   250  PCG250     -0.3112
     10  C2'        1.5860  -37.5250   25.5690 C.3   250  PCG250      0.2282
     11  O2'        2.7740  -37.7880   24.8250 O.3   250  PCG250     -0.2159
     12  C1'        1.2820  -38.6880   26.5090 C.3   250  PCG250      0.2292
     13  N9        -0.0960  -39.2000   26.3080 N.pl3 250  PCG250     -0.2354
     14  C8        -0.4950  -40.4330   25.9170 C.3   250  PCG250      0.2246
     15  N7        -1.8520  -40.5430   25.8510 N.2   250  PCG250     -0.2322
     16  C5        -2.3390  -39.3410   26.2130 C.2   250  PCG250      0.2182
     17  C6        -3.6820  -38.7300   26.3590 C.1   250  PCG250      0.2372
     18  O6        -4.7050  -39.4110   26.1170 O.2   250  PCG250     -0.2069
     19  N1        -3.7460  -37.4450   26.7610 N.2   250  PCG250     -0.2485
     20  C2        -2.6390  -36.6990   27.0290 C.1   250  PCG250      0.2531
     21  N2        -2.7520  -35.4040   27.4310 N.pl3 250  PCG250     -0.0226
     22  N3        -1.3830  -37.1950   26.9180 N.2   250  PCG250     -0.3074
     23  C4        -1.1830  -38.4750   26.5270 C.2   250  PCG250      0.2300
@<TRIPOS>BOND
     1    11    10    1
     2    10    12    1
     3    10     8    1
     4    15    14    1
     5    15    16    2
     6    14    13    1
     7    18    17    2
     8     9     8    1
     9     9     1    1
    10    16    17    1
    11    16    23    1
    12    13    12    1
    13    13    23    1
    14    17    19    2
    15    12     7    1
    16     8     6    1
    17    23    22    2
    18    19    20    2
    19    22    20    2
    20    20    21    1
    21     2     1    2
    22     1     3    1
    23     1     4    1
    24     6     7    1
    25     6     5    1
    26     4     5    1
