@<TRIPOS>MOLECULE
3od2_3CM_B_1.pdb
 32 34 0 0 0
SMALL
GASTEIGER

@<TRIPOS>ATOM
      1  C1         8.5770   36.8660   21.5050 C.3   134  3CM134      0.2695
      2  C2         9.8700   37.2840   20.7350 C.3   134  3CM134      0.2406
      3  C3         9.7230   37.0020   19.2700 C.3   134  3CM134      0.2198
      4  C4         9.4110   35.5060   19.0670 C.3   134  3CM134      0.2144
      5  C5         8.1000   35.1500   19.8140 C.3   134  3CM134      0.1835
      6  C6         7.7140   33.6820   19.6900 C.3   134  3CM134      0.2142
      7  O2        10.1700   38.6910   21.0060 O.3   134  3CM134     -0.2149
      8  O3        10.9660   37.3930   18.6340 O.3   134  3CM134     -0.2174
      9  O5         8.2230   35.4740   21.2040 O.3   134  3CM134     -0.3256
     10  O6         8.8540   32.8320   19.4990 O.3   134  3CM134     -0.2176
     11  O1         7.5100   37.7820   21.1610 O.3   134  3CM134     -0.3257
     12  O4         9.2400   35.2030   17.7140 O.3   134  3CM134     -0.2176
     13  C10        3.7650   38.5820   22.8630 C.3   134  3CM134      0.2695
     14  C20        4.7150   37.7300   23.7230 C.3   134  3CM134      0.2404
     15  C30        6.1230   37.9910   23.2040 C.3   134  3CM134      0.2167
     16  C40        6.1620   37.5810   21.7210 C.3   134  3CM134      0.1804
     17  C50        5.1810   38.3950   20.9160 C.3   134  3CM134      0.1803
     18  C60        5.1220   38.0200   19.4300 C.3   134  3CM134      0.2141
     19  O10        2.4330   38.3700   23.2840 O.3   134  3CM134     -0.3286
     20  O20        4.6230   38.0850   25.0820 O.3   134  3CM134     -0.2149
     21  O30        7.0240   37.2220   23.9770 O.3   134  3CM134     -0.2175
     22  O50        3.8580   38.2280   21.4690 O.3   134  3CM134     -0.3257
     23  O60        3.8750   38.5270   18.8680 O.3   134  3CM134     -0.2176
     24  C11        1.8840   39.4560   24.0490 C.3   134  3CM134      0.1449
     25  C21        1.2820   38.8640   25.2960 C.3   134  3CM134      0.0322
     26  C31       -0.2190   38.8900   25.0370 C.3   134  3CM134      0.0026
     27  C12       -0.7660   37.4850   25.0180 C.3   134  3CM134      0.0001
     28  C22       -1.4810   37.2320   23.7050 C.3   134  3CM134      0.0000
     29  C32       -2.9190   37.6590   23.6250 C.3   134  3CM134      0.0000
     30  C42       -3.7950   37.2610   24.8170 C.3   134  3CM134      0.0000
     31  C52       -3.1230   37.6190   26.1520 C.3   134  3CM134      0.0000
     32  C62       -1.6200   37.2620   26.2550 C.3   134  3CM134      0.0000
@<TRIPOS>BOND
     1    12     4    1
     2     8     3    1
     3    23    18    1
     4     4     3    1
     5     4     5    1
     6     3     2    1
     7    18    17    1
     8    10     6    1
     9     6     5    1
    10     5     9    1
    11     2     7    1
    12     2     1    1
    13    17    22    1
    14    17    16    1
    15    11     1    1
    16    11    16    1
    17     9     1    1
    18    22    13    1
    19    16    15    1
    20    13    19    1
    21    13    14    1
    22    15    14    1
    23    15    21    1
    24    19    24    1
    25    29    28    1
    26    29    30    1
    27    28    27    1
    28    14    20    1
    29    24    25    1
    30    30    31    1
    31    27    26    1
    32    27    32    1
    33    26    25    1
    34    31    32    1
