@<TRIPOS>MOLECULE
3od4_8XQ_A_1.pdb
 14 15 0 0 0
SMALL
GASTEIGER

@<TRIPOS>ATOM
      1  OAA       17.3560   24.4240   27.5580 O.co2 350  8XQ350     -0.2409
      2  OAB       17.3420   24.5660   29.7420 O.co2 350  8XQ350     -0.2409
      3  OAC       23.3940   26.0440   28.2460 O.2   350  8XQ350     -0.2853
      4  CAD       20.2690   25.3670   32.1480 C.2   350  8XQ350     -0.0008
      5  CAE       21.6170   25.7110   32.0160 C.2   350  8XQ350      0.0947
      6  CAF       21.3480   25.4410   27.2420 C.2   350  8XQ350      0.0223
      7  CAG       20.0010   25.0900   27.3370 C.3   350  8XQ350      0.0622
      8  CAH       19.5050   25.1110   31.0050 C.3   350  8XQ350      0.0555
      9  NAI       22.1630   25.8130   30.8070 N.2   350  8XQ350     -0.2413
     10  CAJ       17.9170   24.6270   28.6430 C.2   350  8XQ350      0.3839
     11  CAK       22.0840   25.6840   28.4030 C.2   350  8XQ350      0.2089
     12  CAL       19.3870   24.9900   28.5850 C.2   350  8XQ350      0.0599
     13  CAM       20.1170   25.2210   29.7480 C.2   350  8XQ350      0.0057
     14  CAN       21.4700   25.5780   29.6620 C.2   350  8XQ350      0.1160
@<TRIPOS>BOND
     1     6     7    1
     2     6    11    2
     3     7    12    1
     4     1    10   ar
     5     3    11    1
     6    11    14    1
     7    12    10    1
     8    12    13    2
     9    10     2   ar
    10    14    13    1
    11    14     9    2
    12    13     8    1
    13     9     5    1
    14     8     4    1
    15     5     4    2
