@<TRIPOS>MOLECULE
3od5_III_C_1.pdb
 35 34 0 0 0
SMALL
GASTEIGER

@<TRIPOS>ATOM
      1  C         37.1490    3.0900   20.6970 C.2   300  ACE300      0.2423
      2  O         36.2080    2.4330   20.2880 O.2   300  ACE300     -0.2733
      3  CH3       38.5330    2.9670   20.0520 C.3   300  ACE300      0.0964
      4  N         37.2270    3.8320   22.0900 N.am  301  VAL301     -0.1978
      5  CA        35.9480    3.9060   22.8040 C.3   301  VAL301      0.1726
      6  C         35.5130    5.3490   22.7060 C.2   301  VAL301      0.2616
      7  O         36.3320    6.2570   22.8720 O.2   301  VAL301     -0.2715
      8  CB        36.2030    3.6240   24.2670 C.3   301  VAL301      0.0290
      9  CG1       34.8870    3.6630   25.0500 C.3   301  VAL301      0.0023
     10  CG2       36.9420    2.2950   24.4150 C.3   301  VAL301      0.0023
     11  N         34.2230    5.5640   22.4420 N.am  302  GLU302     -0.1963
     12  CA        33.7220    6.9200   22.3200 C.3   302  GLU302      0.1733
     13  C         32.5230    7.1270   23.2470 C.2   302  GLU302      0.2616
     14  O         31.8460    6.1660   23.6740 O.2   302  GLU302     -0.2715
     15  CB        33.3110    7.2300   20.8660 C.3   302  GLU302      0.0429
     16  CG        34.5450    7.1050   19.9590 C.3   302  GLU302      0.1163
     17  CD        34.3220    7.6100   18.5690 C.2   302  GLU302      0.3649
     18  OE1       33.1950    7.4710   18.0720 O.co2 302  GLU302     -0.2457
     19  OE2       35.3060    8.0970   17.9590 O.co2 302  GLU302     -0.2457
     20  N         32.2830    8.3960   23.5520 N.am  303  ILE303     -0.1963
     21  CA        31.1630    8.7760   24.4180 C.3   303  ILE303      0.1727
     22  C         29.8830    9.0990   23.6440 C.2   303  ILE303      0.2616
     23  O         29.9120    9.8350   22.6550 O.2   303  ILE303     -0.2715
     24  CB        31.5990   10.0100   25.2410 C.3   303  ILE303      0.0290
     25  CG1       32.8170    9.6570   26.0970 C.3   303  ILE303      0.0022
     26  CG2       30.4740   10.5070   26.0910 C.3   303  ILE303      0.0023
     27  CD1       32.6640    8.3740   26.8800 C.3   303  ILE303      0.0001
     28  N         28.7640    8.5040   24.0560 N.am  304  ASP304     -0.1971
     29  CA        27.4640    8.7470   23.4100 C.3   304  ASP304      0.1709
     30  C         26.7180    9.9430   23.9980 C.2   304  ASP304      0.2293
     31  O         25.5140   10.1770   23.7210 O.2   304  ASP304     -0.2864
     32  CB        26.5810    7.5080   23.4980 C.3   304  ASP304      0.1436
     33  CG        26.5370    6.7620   22.1980 C.2   304  ASP304      0.3671
     34  OD1       26.0360    5.6440   22.1910 O.co2 304  ASP304     -0.2456
     35  OD2       27.0320    7.3030   21.1850 O.co2 304  ASP304     -0.2456
@<TRIPOS>BOND
     1    19    17   ar
     2    18    17   ar
     3    17    16    1
     4    16    15    1
     5     3     1    1
     6     2     1    2
     7     1     4   am
     8    15    12    1
     9    35    33   ar
    10     4     5    1
    11    34    33   ar
    12    33    32    1
    13    12    11    1
    14    12    13    1
    15    11     6   am
    16    23    22    2
    17     6     5    1
    18     6     7    2
    19     5     8    1
    20    13    20   am
    21    13    14    2
    22    29    32    1
    23    29    30    1
    24    29    28    1
    25    20    21    1
    26    22    28   am
    27    22    21    1
    28    31    30    2
    29     8    10    1
    30     8     9    1
    31    21    24    1
    32    24    26    1
    33    24    25    1
    34    25    27    1
