@<TRIPOS>MOLECULE
3odg_XAN_A_1.pdb
 11 12 0 0 0
SMALL
GASTEIGER

@<TRIPOS>ATOM
      1  N9       -29.3100  -32.0840   -4.1020 N.2   288  XAN288     -0.1801
      2  C4       -30.5620  -32.2500   -4.5590 C.1   288  XAN288      0.1305
      3  N3       -31.7720  -31.9630   -4.0440 N.2   288  XAN288     -0.2508
      4  C2       -32.8650  -32.2980   -4.7580 C.1   288  XAN288      0.3744
      5  O2       -33.9760  -31.9960   -4.2090 O.2   288  XAN288     -0.1738
      6  N1       -32.8380  -32.8830   -5.9770 N.2   288  XAN288     -0.2300
      7  C6       -31.6780  -33.3220   -6.5630 C.1   288  XAN288      0.2457
      8  O6       -31.6460  -33.8450   -7.7050 O.2   288  XAN288     -0.2062
      9  C5       -30.4430  -32.9470   -5.8510 C.2   288  XAN288      0.2483
     10  N7       -29.1210  -33.1010   -6.0970 N.2   288  XAN288     -0.2212
     11  C8       -28.4540  -32.5720   -5.0280 C.3   288  XAN288      0.2633
@<TRIPOS>BOND
     1     8     7    2
     2     7     6    2
     3     7     9    1
     4    10     9    2
     5    10    11    1
     6     6     4    2
     7     9     2    1
     8    11     1    1
     9     4     5    2
    10     4     3    2
    11     2     1    2
    12     2     3    2
