@<TRIPOS>MOLECULE
3odk_ODK_A_1.pdb
 14 15 0 0 0
SMALL
GASTEIGER

@<TRIPOS>ATOM
      1  C12       39.1820  -19.0240   11.8510 C.ar  165  ODK165      0.0204
      2  C14       39.4670  -20.1900   12.5360 C.ar  165  ODK165      0.0032
      3  C13       39.8350  -20.1000   13.8680 C.ar  165  ODK165      0.0207
      4  C11       39.9030  -18.8500   14.4760 C.ar  165  ODK165      0.0989
      5  N8        39.6140  -17.7400   13.8070 N.ar  165  ODK165     -0.2426
      6  C7        39.2690  -17.7990   12.5050 C.ar  165  ODK165      0.0969
      7  C4        38.9520  -16.6370   11.8130 C.2   165  ODK165      0.1043
      8  C2        39.3940  -15.3930   12.0350 C.3   165  ODK165      0.1036
      9  C1        38.7500  -14.6630   11.1170 C.2   165  ODK165      0.1658
     10  C6        38.8770  -13.1520   10.8830 C.2   165  ODK165      0.4032
     11  O10       38.7900  -12.6950    9.7400 O.co2 165  ODK165     -0.2391
     12  O9        39.0780  -12.3840   11.8270 O.co2 165  ODK165     -0.2391
     13  N5        37.9570  -15.4450   10.3890 N.2   165  ODK165     -0.1455
     14  N3        38.0740  -16.6040   10.8070 N.2   165  ODK165     -0.1506
@<TRIPOS>BOND
     1    11    10   ar
     2    13    14    1
     3    13     9    2
     4    14     7    2
     5    10     9    1
     6    10    12   ar
     7     9     8    1
     8     7     8    1
     9     7     6    1
    10     1     6   ar
    11     1     2   ar
    12     6     5   ar
    13     2     3   ar
    14     5     4   ar
    15     3     4   ar
