@<TRIPOS>MOLECULE
3odq_HEM_A_1.pdb
 43 50 0 0 0
SMALL
GASTEIGER

@<TRIPOS>ATOM
      1  CHA       60.7010   17.5930   89.0710 C.2   142  HEM142      0.0000
      2  CHB       61.1090   22.1420   90.5380 C.2   142  HEM142      0.0000
      3  CHC       56.3810   22.8300   89.9160 C.2   142  HEM142      0.0000
      4  CHD       55.8990   18.1170   88.9470 C.2   142  HEM142      0.0000
      5  C1A       61.2450   18.7420   89.4850 C.2   142  HEM142      0.0000
      6  C2A       62.6160   18.9200   89.7740 C.2   142  HEM142      0.0000
      7  C3A       62.7320   20.2290   90.3060 C.2   142  HEM142      0.0000
      8  C4A       61.5070   20.8220   90.1960 C.2   142  HEM142      0.0000
      9  CMA       64.0100   20.9500   90.6530 C.3   142  HEM142      0.0000
     10  CAA       63.6940   18.0010   89.6690 C.3   142  HEM142      0.0000
     11  CBA       64.2770   18.0850   88.3480 C.3   142  HEM142      0.0000
     12  CGA       65.4030   16.5040   88.0600 C.2   142  HEM142      0.0000
     13  O1A       65.5350   15.6910   88.8810 O.co2 142  HEM142      0.0000
     14  O2A       66.0790   17.3670   86.9940 O.co2 142  HEM142      0.0000
     15  C1B       59.9190   22.7770   90.4190 C.ar  142  HEM142      0.0000
     16  C2B       59.6760   24.1520   90.7390 C.ar  142  HEM142      0.0000
     17  C3B       58.3100   24.3800   90.5660 C.ar  142  HEM142      0.0000
     18  C4B       57.7920   23.0830   90.1040 C.ar  142  HEM142      0.0000
     19  CMB       60.7650   25.1530   91.1150 C.3   142  HEM142      0.0000
     20  CAB       57.5370   25.6130   90.8230 C.2   142  HEM142      0.0000
     21  CBB       57.7620   26.5230   91.7320 C.2   142  HEM142      0.0000
     22  C1C       55.8400   21.6420   89.6000 C.2   142  HEM142      0.0000
     23  C2C       54.4760   21.3830   89.5350 C.2   142  HEM142      0.0000
     24  C3C       54.2800   20.0850   89.3580 C.2   142  HEM142      0.0000
     25  C4C       55.6040   19.4990   89.2010 C.2   142  HEM142      0.0000
     26  CMC       53.3820   22.4910   89.7430 C.3   142  HEM142      0.0000
     27  CAC       53.0480   19.3140   89.2400 C.2   142  HEM142      0.0000
     28  CBC       51.9260   19.5120   89.9850 C.2   142  HEM142      0.0000
     29  C1D       57.1370   17.6060   88.8870 C.ar  142  HEM142      0.0000
     30  C2D       57.4270   16.1770   88.6320 C.ar  142  HEM142      0.0000
     31  C3D       58.7930   15.9850   88.6290 C.ar  142  HEM142      0.0000
     32  C4D       59.3550   17.3680   88.8440 C.ar  142  HEM142      0.0000
     33  CMD       56.2940   15.2000   88.4300 C.3   142  HEM142      0.0000
     34  CAD       59.5410   14.7350   88.3610 C.3   142  HEM142      0.0000
     35  CBD       59.4970   13.9180   89.5700 C.3   142  HEM142      0.0000
     36  CGD       60.5270   12.5240   89.2660 C.3   142  HEM142      0.0000
     37  O1D       60.7470   11.8390   89.9580 O.2   142  HEM142      0.0000
     38  O2D       59.8380   12.0480   87.9850 O.2   142  HEM142      0.0000
     39  NA        60.5150   19.9090   89.7770 N.2   142  HEM142      0.0000
     40  NB        58.7560   22.1710   90.0650 N.ar  142  HEM142      0.0000
     41  NC        56.5250   20.5020   89.3840 N.2   142  HEM142      0.0000
     42  ND        58.3100   18.1950   89.0730 N.ar  142  HEM142      0.0000
     43 FE         58.5140   20.2070   89.6160 Fe    142  HEM142      0.0000
@<TRIPOS>BOND
     1    14    12   ar
     2    38    36    1
     3    12    11    1
     4    12    13   ar
     5    11    10    1
     6    34    31    1
     7    34    35    1
     8    33    30    1
     9    31    30   ar
    10    31    32   ar
    11    30    29   ar
    12    32     1    2
    13    32    42   ar
    14    29     4    2
    15    29    42   ar
    16     4    25    1
    17     1     5    1
    18    42    43    1
    19    25    24    1
    20    25    41    2
    21    27    24    1
    22    27    28    2
    23    36    35    1
    24    36    37    1
    25    24    23    2
    26    41    22    1
    27    41    43    1
    28     5     6    1
    29     5    39    2
    30    23    22    1
    31    23    26    1
    32    22     3    2
    33    43    39    1
    34    43    40    1
    35    10     6    1
    36     6     7    2
    37    39     8    1
    38     3    18    1
    39    40    18   ar
    40    40    15   ar
    41    18    17   ar
    42     8     7    1
    43     8     2    2
    44     7     9    1
    45    15     2    1
    46    15    16   ar
    47    17    16   ar
    48    17    20    1
    49    16    19    1
    50    20    21    2
