@<TRIPOS>MOLECULE
3odu_ITD_A_1.pdb
 27 30 0 0 0
SMALL
GASTEIGER

@<TRIPOS>ATOM
      1  C1        16.2630   -6.2800   67.1020 C.3   1500  ITD1500     0.0262
      2  N1        17.9260   -7.9840   67.6150 N.2   1500  ITD1500    -0.2526
      3  S1        18.8530   -9.8430   69.4940 S.3   1500  ITD1500    -0.0516
      4  C2        17.6610   -6.5460   67.6430 C.3   1500  ITD1500     0.1051
      5  N2        18.2090   -7.3820   69.7010 N.pl3 1500  ITD1500    -0.2679
      6  S2        20.2660   -6.1330   72.2410 S.3   1500  ITD1500    -0.0728
      7  C3        18.7290   -5.8120   66.8360 C.3   1500  ITD1500     0.0262
      8  N3        20.7210   -8.1890   73.6900 N.2   1500  ITD1500    -0.2518
      9  C4        18.2290   -8.3790   68.8590 C.2   1500  ITD1500     0.1622
     10  N4        22.5090   -7.4970   72.3240 N.pl3 1500  ITD1500    -0.2171
     11  C5        18.9810   -9.0930   71.0610 C.2   1500  ITD1500     0.0494
     12  C6        17.7520   -6.1320   69.1200 C.3   1500  ITD1500     0.1194
     13  C7        18.5880   -7.7370   70.9550 C.2   1500  ITD1500     0.0484
     14  C8        18.6210   -6.7600   72.1050 C.3   1500  ITD1500     0.1066
     15  C9        21.2550   -7.3690   72.7790 C.2   1500  ITD1500     0.1708
     16  C10       21.3010   -9.3400   74.3660 C.3   1500  ITD1500     0.1052
     17  C11       22.1470   -9.0060   75.5860 C.3   1500  ITD1500     0.0244
     18  C12       22.2680  -10.2460   76.4700 C.3   1500  ITD1500     0.0020
     19  C13       22.8210  -11.4530   75.7100 C.3   1500  ITD1500     0.0001
     20  C14       22.1440  -11.6820   74.3500 C.3   1500  ITD1500     0.0020
     21  C15       21.9670  -10.4100   73.5160 C.3   1500  ITD1500     0.0244
     22  C16       22.9540   -7.4320   70.9310 C.3   1500  ITD1500     0.0945
     23  C17       21.8950   -7.6050   69.8450 C.3   1500  ITD1500     0.0216
     24  C18       22.5520   -7.7520   68.4730 C.3   1500  ITD1500     0.0018
     25  C19       23.5120   -6.6030   68.1570 C.3   1500  ITD1500     0.0001
     26  C20       24.5160   -6.3620   69.2800 C.3   1500  ITD1500     0.0018
     27  C21       23.8280   -6.2180   70.6370 C.3   1500  ITD1500     0.0216
@<TRIPOS>BOND
     1     7     4    1
     2     1     4    1
     3     2     4    1
     4     2     9    2
     5     4    12    1
     6    25    24    1
     7    25    26    1
     8    24    23    1
     9     9     3    1
    10     9     5    1
    11    12     5    1
    12    26    27    1
    13     3    11    1
    14     5    13    1
    15    23    22    1
    16    27    22    1
    17    22    10    1
    18    13    11    2
    19    13    14    1
    20    14     6    1
    21     6    15    1
    22    10    15    1
    23    15     8    2
    24    21    20    1
    25    21    16    1
    26     8    16    1
    27    20    19    1
    28    16    17    1
    29    17    18    1
    30    19    18    1
