@<TRIPOS>MOLECULE
3oe1_TDL_A_1.pdb
 32 33 0 0 0
SMALL
GASTEIGER

@<TRIPOS>ATOM
      1  O1B      -14.9930   18.5320   29.2080 O.2   611  TDL611     -0.2221
      2  PB       -13.9210   18.6600   30.2580 P.3   611  TDL611      0.5373
      3  O2B      -13.6240   20.0920   30.6130 O.3   611  TDL611     -0.1143
      4  O3B      -14.1630   17.7600   31.4430 O.3   611  TDL611     -0.1143
      5  O3A      -12.5920   18.1380   29.4930 O.3   611  TDL611     -0.2261
      6  PA       -11.3100   17.3400   30.0840 P.3   611  TDL611      0.2230
      7  O1A      -11.3380   17.1670   31.5790 O.3   611  TDL611     -0.4370
      8  O2A      -10.0540   17.9250   29.4870 O.2   611  TDL611     -0.5169
      9  O7       -11.5800   15.8850   29.4540 O.3   611  TDL611     -0.3134
     10  C7       -11.2970   15.5230   28.0950 C.3   611  TDL611      0.1544
     11  C6       -11.5490   14.0160   28.0040 C.3   611  TDL611      0.0661
     12  C5       -11.5430   13.4170   26.6120 C.2   611  TDL611      0.0164
     13  S1       -12.4750   14.2040   25.3920 S.3   611  TDL611     -0.0947
     14  C4       -10.9390   12.2680   26.0840 C.2   611  TDL611      0.0279
     15  CM4      -10.0600   11.3610   26.9070 C.3   611  TDL611      0.0473
     16  N3       -11.1860   12.0650   24.7550 N.pl3 611  TDL611     -0.2966
     17  C2       -12.0030   13.0080   24.2410 C.3   611  TDL611      0.1641
     18  CLA      -12.4970   13.0410   22.8170 C.3   611  TDL611      0.2449
     19  OL1      -11.6280   12.3480   21.9170 O.3   611  TDL611     -0.2114
     20  CLB      -12.6590   14.4700   22.3240 C.3   611  TDL611      0.0474
     21  CLC      -13.8530   12.3790   22.8030 C.2   611  TDL611      0.3941
     22  OL2      -13.9580   11.2320   23.2960 O.co2 611  TDL611     -0.2428
     23  OL3      -14.8170   12.9910   22.2880 O.co2 611  TDL611     -0.2428
     24  C7'      -10.6330   10.9250   24.0270 C.3   611  TDL611      0.1238
     25  C5'       -9.1390   11.1050   23.7900 C.2   611  TDL611      0.0654
     26  C6'       -8.2600   10.2060   24.3740 C.2   611  TDL611      0.1115
     27  N1'       -6.9460   10.3340   24.1850 N.2   611  TDL611     -0.1861
     28  C2'       -6.4420   11.3250   23.4200 C.1   611  TDL611      0.0663
     29  CM2       -4.9530   11.4440   23.2260 C.3   611  TDL611      0.1291
     30  N3'       -7.2680   12.2120   22.8350 N.2   611  TDL611     -0.3368
     31  C4'       -8.6040   12.1200   23.0070 C.2   611  TDL611      0.2292
     32  N4'       -9.3920   13.0300   22.4020 N.pl3 611  TDL611     -0.0925
@<TRIPOS>BOND
     1    19    18    1
     2    23    21   ar
     3    20    18    1
     4    32    31    1
     5    21    18    1
     6    21    22   ar
     7    18    17    1
     8    30    31    2
     9    30    28    2
    10    31    25    1
    11    29    28    1
    12    28    27    2
    13    25    24    1
    14    25    26    2
    15    24    16    1
    16    27    26    1
    17    17    16    1
    18    17    13    1
    19    16    14    1
    20    13    12    1
    21    14    12    2
    22    14    15    1
    23    12    11    1
    24    11    10    1
    25    10     9    1
    26     1     2    2
    27     9     6    1
    28     8     6    2
    29     5     6    1
    30     5     2    1
    31     6     7    1
    32     2     3    1
    33     2     4    1
