@<TRIPOS>MOLECULE
3oe4_610_A_1.pdb
 33 36 0 0 0
SMALL
GASTEIGER

@<TRIPOS>ATOM
      1  C1        20.3680  -30.8330   13.2990 C.3   223  610223      0.2201
      2  C2        19.0550  -31.5850   13.4000 C.3   223  610223      0.2572
      3  C3        17.9480  -30.5060   13.4060 C.3   223  610223      0.3188
      4  O4        18.5380  -29.4770   12.5630 O.3   223  610223     -0.3116
      5  C5        19.9190  -29.6990   12.2860 C.3   223  610223      0.1740
      6  C6        20.1120  -30.2180   10.9170 C.2   223  610223      0.0028
      7  N7        16.7500  -30.9170   12.7460 N.pl3 223  610223     -0.1440
      8  O8        20.6790  -30.2280   14.5520 O.3   223  610223     -0.2172
      9  O9        18.8960  -32.3840   14.5710 O.3   223  610223     -0.2130
     10  C10       20.6060  -29.4750    9.9620 C.2   223  610223     -0.0049
     11  C11       16.5960  -31.4860   11.4470 C.3   223  610223      0.3373
     12  N12       15.3130  -31.5890   11.1080 N.2   223  610223     -0.2187
     13  C13       20.8300  -29.9760    8.5590 C.3   223  610223      0.1413
     14  N14       21.8230  -29.2160    7.8310 N.am  223  610223     -0.1967
     15  C15       22.6290  -29.6950    6.8770 C.2   223  610223      0.2684
     16  C16       23.6650  -28.8720    6.2440 C.ar  223  610223      0.0988
     17  C17       23.7050  -27.4560    6.4640 C.ar  223  610223      0.2387
     18  C18       24.7600  -26.7690    5.8440 C.ar  223  610223      0.2361
     19  C19       25.7270  -27.3360    5.0710 C.ar  223  610223      0.0694
     20  C20       25.6740  -28.7630    4.9300 C.ar  223  610223      0.1464
     21  C21       24.6470  -29.4920    5.5110 C.ar  223  610223      0.0321
     22  N22       26.6590  -29.3870    4.1400 N.pl3 223  610223      0.0578
     23  O23       22.7810  -26.7590    7.1430 O.3   223  610223     -0.2830
     24  O24       24.8110  -25.4100    6.0640 O.3   223  610223     -0.2831
     25  O25       22.5020  -30.8900    6.4760 O.2   223  610223     -0.2682
     26  O26       27.4260  -28.7540    3.4750 O.2   223  610223     -0.1261
     27  O27       26.6000  -30.6250    4.1570 O.2   223  610223     -0.1261
     28  C28       15.4830  -30.7070   13.2050 C.2   223  610223      0.3444
     29  C29       14.5670  -31.1260   12.1690 C.2   223  610223      0.1644
     30  C30       13.2220  -30.9850   12.3980 C.3   223  610223      0.1822
     31  N31       12.7710  -30.4450   13.5460 N.2   223  610223     -0.2189
     32  C32       13.6800  -30.0480   14.4920 C.2   223  610223      0.3347
     33  N33       15.0100  -30.1620   14.3570 N.2   223  610223     -0.0132
@<TRIPOS>BOND
     1    26    22    2
     2    22    27    2
     3    22    20    1
     4    20    19   ar
     5    20    21   ar
     6    19    18   ar
     7    21    16   ar
     8    18    24    1
     9    18    17   ar
    10    16    17   ar
    11    16    15    1
    12    17    23    1
    13    25    15    2
    14    15    14   am
    15    14    13    1
    16    13    10    1
    17    10     6    2
    18     6     5    1
    19    12    11    1
    20    12    29    2
    21    11     7    1
    22    29    30    1
    23    29    28    1
    24     5     4    1
    25     5     1    1
    26    30    31    1
    27     4     3    1
    28     7    28    1
    29     7     3    1
    30    28    33    2
    31     1     2    1
    32     1     8    1
    33     2     3    1
    34     2     9    1
    35    31    32    2
    36    33    32    1
