@<TRIPOS>MOLECULE
3oe5_611_A_1.pdb
 31 33 0 0 0
SMALL
GASTEIGER

@<TRIPOS>ATOM
      1  C1        20.4640  -30.3290   13.3220 C.3   223  611223      0.2165
      2  C2        19.3870  -31.4330   13.3300 C.3   223  611223      0.2224
      3  C3        18.0680  -30.6670   13.2010 C.3   223  611223      0.1998
      4  O4        18.4230  -29.4060   12.6160 O.3   223  611223     -0.3378
      5  C5        19.7840  -29.4160   12.2560 C.3   223  611223      0.1710
      6  C6        19.9180  -30.0030   10.9160 C.2   223  611223      0.0027
      7  S7        16.9500  -31.6140   12.1580 S.3   223  611223     -0.0823
      8  O8        20.4770  -29.6200   14.5590 O.3   223  611223     -0.2173
      9  O9        19.3800  -32.2120   14.5330 O.3   223  611223     -0.2167
     10  C10       20.6800  -29.4420   10.0190 C.2   223  611223     -0.0049
     11  C11       15.4090  -31.1400   12.5970 C.ar  223  611223      0.0306
     12  C12       20.8460  -29.9740    8.6340 C.3   223  611223      0.1413
     13  N13       21.7980  -29.2190    7.8600 N.am  223  611223     -0.1967
     14  C14       22.6140  -29.7000    6.9040 C.2   223  611223      0.2684
     15  C15       23.6680  -28.8490    6.2960 C.ar  223  611223      0.0988
     16  C16       23.6930  -27.4400    6.5000 C.ar  223  611223      0.2387
     17  C17       24.7670  -26.7260    5.9020 C.ar  223  611223      0.2361
     18  C18       25.7430  -27.2900    5.1300 C.ar  223  611223      0.0694
     19  C19       25.6930  -28.6920    4.9650 C.ar  223  611223      0.1464
     20  C20       24.6620  -29.4660    5.5410 C.ar  223  611223      0.0321
     21  N21       26.6930  -29.3600    4.1620 N.pl3 223  611223      0.0578
     22  O22       22.7820  -26.7460    7.1910 O.3   223  611223     -0.2830
     23  O23       24.8120  -25.3570    6.0880 O.3   223  611223     -0.2831
     24  O24       22.5040  -30.9010    6.5190 O.2   223  611223     -0.2682
     25  O25       27.4960  -28.7420    3.5140 O.2   223  611223     -0.1261
     26  O26       26.6580  -30.5820    4.1530 O.2   223  611223     -0.1261
     27  C27       14.2350  -31.8840   12.1590 C.ar  223  611223      0.0269
     28  C28       12.9550  -31.4860   12.5640 C.ar  223  611223      0.0994
     29  N29       12.6990  -30.3950   13.3610 N.ar  223  611223     -0.2423
     30  C30       13.8140  -29.6770   13.7730 C.ar  223  611223      0.0994
     31  C31       15.1190  -30.0170   13.4290 C.ar  223  611223      0.0269
@<TRIPOS>BOND
     1    25    21    2
     2    26    21    2
     3    21    19    1
     4    19    18   ar
     5    19    20   ar
     6    18    17   ar
     7    20    15   ar
     8    17    23    1
     9    17    16   ar
    10    15    16   ar
    11    15    14    1
    12    16    22    1
    13    24    14    2
    14    14    13   am
    15    13    12    1
    16    12    10    1
    17    10     6    2
    18     6     5    1
    19     7    11    1
    20     7     3    1
    21    27    28   ar
    22    27    11   ar
    23     5     4    1
    24     5     1    1
    25    28    29   ar
    26    11    31   ar
    27     4     3    1
    28     3     2    1
    29     1     2    1
    30     1     8    1
    31     2     9    1
    32    29    30   ar
    33    31    30   ar
