@<TRIPOS>MOLECULE
3oe6_ITD_A_1.pdb
 27 30 0 0 0
SMALL
GASTEIGER

@<TRIPOS>ATOM
      1  C1        13.7920   30.6020   69.1190 C.3   1500  ITD1500     0.0262
      2  N1        15.4380   28.8860   69.7020 N.2   1500  ITD1500    -0.2526
      3  S1        16.0400   26.8940   71.5840 S.3   1500  ITD1500    -0.0516
      4  C2        15.1350   30.3160   69.7800 C.3   1500  ITD1500     0.1051
      5  N2        15.4290   29.3590   71.8440 N.pl3 1500  ITD1500    -0.2679
      6  S2        17.0500   30.5020   74.6250 S.3   1500  ITD1500    -0.0728
      7  C3        16.2560   31.1020   69.1070 C.3   1500  ITD1500     0.0262
      8  N3        17.5210   28.4980   76.1390 N.2   1500  ITD1500    -0.2518
      9  C4        15.6050   28.4240   70.9500 C.2   1500  ITD1500     0.1622
     10  N4        19.3480   29.2780   74.8850 N.pl3 1500  ITD1500    -0.2171
     11  C5        15.9610   27.5460   73.1930 C.2   1500  ITD1500     0.0494
     12  C6        15.0790   30.6540   71.2810 C.3   1500  ITD1500     0.1194
     13  C7        15.6010   28.9110   73.1130 C.2   1500  ITD1500     0.0484
     14  C8        15.4650   29.8020   74.3200 C.3   1500  ITD1500     0.1066
     15  C9        18.0600   29.3360   75.2480 C.2   1500  ITD1500     0.1708
     16  C10       18.1750   27.4110   76.8490 C.3   1500  ITD1500     0.1052
     17  C11       19.1000   27.9120   77.9540 C.3   1500  ITD1500     0.0244
     18  C12       19.5320   26.7280   78.8170 C.3   1500  ITD1500     0.0020
     19  C13       20.2310   25.6580   77.9780 C.3   1500  ITD1500     0.0001
     20  C14       19.4090   25.2180   76.7640 C.3   1500  ITD1500     0.0020
     21  C15       18.8830   26.4000   75.9480 C.3   1500  ITD1500     0.0244
     22  C16       19.8810   29.3700   73.5250 C.3   1500  ITD1500     0.0945
     23  C17       18.9180   28.9640   72.4090 C.3   1500  ITD1500     0.0216
     24  C18       19.5730   29.0850   71.0350 C.3   1500  ITD1500     0.0018
     25  C19       20.1580   30.4740   70.7900 C.3   1500  ITD1500     0.0001
     26  C20       21.1680   30.8250   71.8760 C.3   1500  ITD1500     0.0018
     27  C21       20.5260   30.7280   73.2570 C.3   1500  ITD1500     0.0216
@<TRIPOS>BOND
     1     7     4    1
     2     1     4    1
     3     2     4    1
     4     2     9    2
     5     4    12    1
     6    25    24    1
     7    25    26    1
     8     9     3    1
     9     9     5    1
    10    24    23    1
    11    12     5    1
    12     3    11    1
    13     5    13    1
    14    26    27    1
    15    23    22    1
    16    13    11    2
    17    13    14    1
    18    27    22    1
    19    22    10    1
    20    14     6    1
    21     6    15    1
    22    10    15    1
    23    15     8    2
    24    21    20    1
    25    21    16    1
    26     8    16    1
    27    20    19    1
    28    16    17    1
    29    17    18    1
    30    19    18    1
