@<TRIPOS>MOLECULE
3oe7_ANP_A_1.pdb
 31 33 0 0 0
SMALL
GASTEIGER

@<TRIPOS>ATOM
      1  PG        -0.9830   14.8020   59.8540 P.3   600  ANP600      0.4884
      2  O1G       -0.1600   13.8390   59.0200 O.2   600  ANP600     -0.2331
      3  O2G       -1.3160   14.2700   61.2110 O.3   600  ANP600     -0.1240
      4  O3G       -0.4520   16.2020   59.8600 O.3   600  ANP600     -0.1240
      5  PB        -3.8340   13.8680   59.3960 P.3   600  ANP600      0.4669
      6  O1B       -3.7660   12.6930   58.4510 O.2   600  ANP600     -0.2351
      7  O2B       -3.7900   13.6250   60.8920 O.3   600  ANP600     -0.1253
      8  N3B       -2.5260   14.9700   59.0420 N.3   600  ANP600     -0.0163
      9  PA        -5.8940   15.7160   60.0180 P.3   600  ANP600      0.2220
     10  O1A       -6.9580   15.0540   60.8650 O.3   600  ANP600     -0.4370
     11  O2A       -4.7570   16.4010   60.7160 O.2   600  ANP600     -0.5170
     12  O3A       -5.1940   14.6590   59.0220 O.3   600  ANP600     -0.2360
     13  O5'       -6.6250   16.6970   58.9980 O.3   600  ANP600     -0.3111
     14  C5'       -5.9010   17.5510   58.1380 C.3   600  ANP600      0.1813
     15  C4'       -6.7460   18.7890   57.8400 C.3   600  ANP600      0.1821
     16  O4'       -8.0250   18.4560   57.2740 O.3   600  ANP600     -0.3135
     17  C3'       -7.0350   19.5790   59.0930 C.3   600  ANP600      0.2184
     18  O3'       -6.9260   20.9530   58.7310 O.3   600  ANP600     -0.2174
     19  C2'       -8.4770   19.2550   59.4100 C.3   600  ANP600      0.2570
     20  O2'       -9.0850   20.3580   60.0770 O.3   600  ANP600     -0.2130
     21  C1'       -9.1030   18.9770   58.0500 C.3   600  ANP600      0.3186
     22  N9       -10.1960   17.9720   58.1460 N.pl3 600  ANP600     -0.1439
     23  C8       -10.0860   16.7590   58.7070 C.3   600  ANP600      0.3377
     24  N7       -11.2430   16.0580   58.6540 N.2   600  ANP600     -0.2095
     25  C5       -12.1340   16.8360   58.0370 C.2   600  ANP600      0.2526
     26  C6       -13.5520   16.6900   57.6540 C.2   600  ANP600      0.4393
     27  N6       -14.2200   15.5490   57.9470 N.pl3 600  ANP600      0.2180
     28  N1       -14.1370   17.7230   57.0120 N.2   600  ANP600      0.0021
     29  C2       -13.4540   18.8520   56.7280 C.3   600  ANP600      0.5254
     30  N3       -12.1580   19.0500   57.0460 N.2   600  ANP600     -0.0055
     31  C4       -11.4480   18.0940   57.6980 C.2   600  ANP600      0.3518
@<TRIPOS>BOND
     1    29    28    1
     2    29    30    1
     3    28    26    2
     4    30    31    2
     5    16    15    1
     6    16    21    1
     7    26    27    1
     8    26    25    1
     9    31    25    1
    10    31    22    1
    11    15    14    1
    12    15    17    1
    13    25    24    2
    14    21    22    1
    15    21    19    1
    16    14    13    1
    17    22    23    1
    18     6     5    2
    19    24    23    1
    20    18    17    1
    21    13     9    1
    22     2     1    2
    23    12     5    1
    24    12     9    1
    25     8     5    1
    26     8     1    1
    27    17    19    1
    28     5     7    1
    29    19    20    1
    30     1     4    1
    31     1     3    1
    32     9    11    2
    33     9    10    1
