@<TRIPOS>MOLECULE
3oe7_III_I_3.pdb
 45 44 0 0 0
SMALL
GASTEIGER

@<TRIPOS>ATOM
      1  N         -4.1740   27.6720    2.0880 N.3    53  ALA53      -0.1231
      2  CA        -4.9070   28.9070    1.8360 C.3    53  ALA53       0.1694
      3  C         -5.3500   29.5600    3.1400 C.2    53  ALA53       0.2592
      4  O         -5.6150   28.8670    4.1230 O.2    53  ALA53      -0.2718
      5  CB        -6.1120   28.6300    0.9500 C.3    53  ALA53       0.0304
      6  N         -5.4290   30.8900    3.1440 N.am   54  SER54      -0.1966
      7  CA        -5.9660   31.6380    4.2850 C.3    54  SER54       0.1728
      8  C         -7.5040   31.5830    4.3000 C.2    54  SER54       0.2616
      9  O         -8.0970   30.5950    3.8510 O.2    54  SER54      -0.2715
     10  CB        -5.4600   33.0850    4.2720 C.3    54  SER54       0.0334
     11  N         -8.1480   32.6370    4.8040 N.am   55  GLU55      -0.1963
     12  CA        -9.6050   32.6370    4.9550 C.3    55  GLU55       0.1728
     13  C        -10.2400   34.0260    5.1110 C.2    55  GLU55       0.2616
     14  O         -9.5350   35.0180    5.3230 O.2    55  GLU55      -0.2715
     15  CB        -9.9900   31.7670    6.1580 C.3    55  GLU55       0.0334
     16  N        -11.5830   34.0880    5.0040 N.am   56  PRO56      -0.1963
     17  CA       -12.4990   35.1640    5.3940 C.3    56  PRO56       0.1728
     18  C        -13.1700   34.8130    6.7310 C.2    56  PRO56       0.2616
     19  O        -14.1360   34.0420    6.7570 O.2    56  PRO56      -0.2715
     20  CB       -13.5150   35.1940    4.2500 C.3    56  PRO56       0.0334
     21  N        -12.6320   35.3910    7.8110 N.am   57  THR57      -0.1963
     22  CA       -12.9340   35.0740    9.2290 C.3    57  THR57       0.1728
     23  C        -14.2680   34.3830    9.5530 C.2    57  THR57       0.2616
     24  O        -15.3340   34.8530    9.1440 O.2    57  THR57      -0.2715
     25  CB       -12.7890   36.3370   10.1250 C.3    57  THR57       0.0334
     26  N        -14.1980   33.2700   10.3130 N.am   58  PRO58      -0.1963
     27  CA       -15.2040   32.2940   10.7540 C.3    58  PRO58       0.1728
     28  C        -16.5070   32.9290   11.2320 C.2    58  PRO58       0.2616
     29  O        -16.4840   34.0100   11.8160 O.2    58  PRO58      -0.2715
     30  CB       -14.5090   31.5800   11.9140 C.3    58  PRO58       0.0334
     31  N        -17.6270   32.2560   10.9730 N.am   59  ILE59      -0.1963
     32  CA       -18.9590   32.7620   11.3250 C.3    59  ILE59       0.1728
     33  C        -19.9320   31.6100   11.5320 C.2    59  ILE59       0.2616
     34  O        -19.8300   30.5840   10.8610 O.2    59  ILE59      -0.2715
     35  CB       -19.5190   33.6880   10.2280 C.3    59  ILE59       0.0334
     36  N        -20.8740   31.7790   12.4570 N.am   60  THR60      -0.1963
     37  CA       -21.8780   30.7440   12.7320 C.3    60  THR60       0.1728
     38  C        -22.8000   30.4970   11.5230 C.2    60  THR60       0.2616
     39  O        -23.0030   31.3910   10.6970 O.2    60  THR60      -0.2715
     40  CB       -22.7160   31.0900   13.9800 C.3    60  THR60       0.0334
     41  N        -23.3440   29.2870   11.4120 N.am   61  LYS61      -0.1977
     42  CA       -24.2360   28.9500   10.2980 C.3    61  LYS61       0.1597
     43  C        -25.6700   29.4080   10.5760 C.2    61  LYS61       0.2287
     44  O        -25.9350   30.5900   10.8110 O.2    61  LYS61      -0.2864
     45  CB       -24.1910   27.4450    9.9940 C.3    61  LYS61       0.0319
@<TRIPOS>BOND
     1     5     2    1
     2     2     1    1
     3     2     3    1
     4     3     6   am
     5     3     4    2
     6     6     7    1
     7     9     8    2
     8    20    17    1
     9    10     7    1
    10     7     8    1
    11     8    11   am
    12    11    12    1
    13    12    13    1
    14    12    15    1
    15    16    13   am
    16    16    17    1
    17    13    14    2
    18    17    18    1
    19    18    19    2
    20    18    21   am
    21    21    22    1
    22    24    23    2
    23    22    23    1
    24    22    25    1
    25    23    26   am
    26    45    42    1
    27    35    32    1
    28    42    43    1
    29    42    41    1
    30    26    27    1
    31    43    44    2
    32    39    38    2
    33    27    28    1
    34    27    30    1
    35    34    33    2
    36    31    28   am
    37    31    32    1
    38    28    29    2
    39    32    33    1
    40    41    38   am
    41    38    37    1
    42    33    36   am
    43    36    37    1
    44    37    40    1
