@<TRIPOS>MOLECULE
3oe8_ITD_A_1.pdb
 27 30 0 0 0
SMALL
GASTEIGER

@<TRIPOS>ATOM
      1  C1       -28.4030   -0.0800   23.0350 C.3   1500  ITD1500     0.0262
      2  N1       -30.6410    0.8180   22.7810 N.2   1500  ITD1500    -0.2526
      3  S1       -32.9030    0.5340   21.1600 S.3   1500  ITD1500    -0.0516
      4  C2       -29.2290    1.1000   22.5450 C.3   1500  ITD1500     0.1051
      5  N2       -30.4550    1.0100   20.6090 N.pl3 1500  ITD1500    -0.2679
      6  S2       -30.2720    2.9830   17.9270 S.3   1500  ITD1500    -0.0728
      7  C3       -28.8590    2.3960   23.2650 C.3   1500  ITD1500     0.0262
      8  N3       -32.5320    2.8220   16.7830 N.2   1500  ITD1500    -0.2518
      9  C4       -31.2680    0.7780   21.6010 C.2   1500  ITD1500     0.1622
     10  N4       -32.1350    4.8330   17.9800 N.pl3 1500  ITD1500    -0.2171
     11  C5       -32.4700    0.7230   19.4860 C.2   1500  ITD1500     0.0494
     12  C6       -29.0790    1.2410   21.0200 C.3   1500  ITD1500     0.1194
     13  C7       -31.0810    0.9710   19.4040 C.2   1500  ITD1500     0.0484
     14  C8       -30.3680    1.2330   18.1040 C.3   1500  ITD1500     0.1066
     15  C9       -31.7730    3.6090   17.5580 C.2   1500  ITD1500     0.1708
     16  C10      -33.8540    3.0080   16.2050 C.3   1500  ITD1500     0.1052
     17  C11      -33.8180    3.7500   14.8760 C.3   1500  ITD1500     0.0244
     18  C12      -35.1480    3.5720   14.1490 C.3   1500  ITD1500     0.0020
     19  C13      -36.3100    4.0640   15.0090 C.3   1500  ITD1500     0.0001
     20  C14      -36.3300    3.3800   16.3760 C.3   1500  ITD1500     0.0020
     21  C15      -34.9860    3.4890   17.1060 C.3   1500  ITD1500     0.0244
     22  C16      -32.2160    5.3240   19.3630 C.3   1500  ITD1500     0.0945
     23  C17      -31.2600    4.6830   20.3710 C.3   1500  ITD1500     0.0216
     24  C18      -31.4810    5.2140   21.7900 C.3   1500  ITD1500     0.0018
     25  C19      -31.3770    6.7380   21.8770 C.3   1500  ITD1500     0.0001
     26  C20      -32.2450    7.4090   20.8120 C.3   1500  ITD1500     0.0018
     27  C21      -32.0100    6.8380   19.4110 C.3   1500  ITD1500     0.0216
@<TRIPOS>BOND
     1    18    17    1
     2    18    19    1
     3    17    16    1
     4    19    20    1
     5    16     8    1
     6    16    21    1
     7    20    21    1
     8     8    15    2
     9    15     6    1
    10    15    10    1
    11     6    14    1
    12    10    22    1
    13    14    13    1
    14    22    27    1
    15    22    23    1
    16    13    11    2
    17    13     5    1
    18    27    26    1
    19    11     3    1
    20    23    24    1
    21     5    12    1
    22     5     9    1
    23    26    25    1
    24    12     4    1
    25     3     9    1
    26     9     2    2
    27    24    25    1
    28     4     2    1
    29     4     1    1
    30     4     7    1
