@<TRIPOS>MOLECULE
3oe9_ITD_A_1.pdb
 27 30 0 0 0
SMALL
GASTEIGER

@<TRIPOS>ATOM
      1  C1        15.4470    3.7400   25.0570 C.3   1500  ITD1500     0.0262
      2  N1        17.8200    3.5740   25.5060 N.2   1500  ITD1500    -0.2526
      3  S1        19.8440    2.5750   27.2060 S.3   1500  ITD1500    -0.0516
      4  C2        16.6390    4.4110   25.7180 C.3   1500  ITD1500     0.1051
      5  N2        17.6740    3.8620   27.6490 N.pl3 1500  ITD1500    -0.2679
      6  S2        18.0640    5.8780   30.1620 S.3   1500  ITD1500    -0.0728
      7  C3        16.8760    5.8240   25.2110 C.3   1500  ITD1500     0.0262
      8  N3        19.8390    5.1220   31.6620 N.2   1500  ITD1500    -0.2518
      9  C4        18.3950    3.3540   26.6930 C.2   1500  ITD1500     0.1622
     10  N4        20.6590    6.5190   29.9210 N.pl3 1500  ITD1500    -0.2171
     11  C5        19.4500    2.9640   28.8520 C.2   1500  ITD1500     0.0494
     12  C6        16.4470    4.5190   27.2270 C.3   1500  ITD1500     0.1194
     13  C7        18.2190    3.6700   28.8670 C.2   1500  ITD1500     0.0484
     14  C8        17.5260    4.1960   30.0940 C.3   1500  ITD1500     0.1066
     15  C9        19.6620    5.8710   30.5760 C.2   1500  ITD1500     0.1708
     16  C10       21.0200    4.7950   32.3930 C.3   1500  ITD1500     0.1052
     17  C11       21.6780    6.0250   33.0100 C.3   1500  ITD1500     0.0244
     18  C12       22.8820    5.6050   33.8660 C.3   1500  ITD1500     0.0020
     19  C13       23.8390    4.6660   33.1050 C.3   1500  ITD1500     0.0001
     20  C14       23.1340    3.4560   32.4840 C.3   1500  ITD1500     0.0020
     21  C15       21.9820    3.9110   31.5880 C.3   1500  ITD1500     0.0244
     22  C16       20.7760    7.1080   28.5660 C.3   1500  ITD1500     0.0945
     23  C17       19.9820    6.4790   27.4020 C.3   1500  ITD1500     0.0216
     24  C18       20.0200    7.2670   26.0770 C.3   1500  ITD1500     0.0018
     25  C19       20.0080    8.7960   26.2050 C.3   1500  ITD1500     0.0001
     26  C20       21.0450    9.2870   27.2120 C.3   1500  ITD1500     0.0018
     27  C21       20.8000    8.6470   28.5810 C.3   1500  ITD1500     0.0216
@<TRIPOS>BOND
     1     1     4    1
     2     7     4    1
     3     2     4    1
     4     2     9    2
     5     4    12    1
     6    24    25    1
     7    24    23    1
     8    25    26    1
     9     9     3    1
    10     9     5    1
    11     3    11    1
    12    26    27    1
    13    12     5    1
    14    23    22    1
    15     5    13    1
    16    22    27    1
    17    22    10    1
    18    11    13    2
    19    13    14    1
    20    10    15    1
    21    14     6    1
    22     6    15    1
    23    15     8    2
    24    21    16    1
    25    21    20    1
    26     8    16    1
    27    16    17    1
    28    20    19    1
    29    17    18    1
    30    19    18    1
