@<TRIPOS>MOLECULE
3oea_GLC_A_1.pdb
 12 12 0 0 0
SMALL
GASTEIGER

@<TRIPOS>ATOM
      1  C1        -3.8540    5.5080  -11.9880 C.3   201  GLC201      0.3024
      2  C2        -4.4570    6.6330  -12.8280 C.3   201  GLC201      0.2434
      3  C3        -5.2810    7.5800  -11.9590 C.3   201  GLC201      0.2199
      4  C4        -6.2770    6.8280  -11.0700 C.3   201  GLC201      0.2144
      5  C5        -5.5860    5.6450  -10.3710 C.3   201  GLC201      0.1836
      6  C6        -6.5690    4.7510   -9.6200 C.3   201  GLC201      0.2142
      7  O1        -3.1720    4.6030  -12.8260 O.3   201  GLC201     -0.1869
      8  O2        -3.4320    7.3550  -13.4680 O.3   201  GLC201     -0.2148
      9  O3        -5.9580    8.4990  -12.7910 O.3   201  GLC201     -0.2174
     10  O4        -6.8060    7.7200  -10.1070 O.3   201  GLC201     -0.2176
     11  O5        -4.8940    4.8350  -11.3050 O.3   201  GLC201     -0.3236
     12  O6        -7.4590    4.1510  -10.5360 O.3   201  GLC201     -0.2176
@<TRIPOS>BOND
     1     8     2    1
     2     2     1    1
     3     2     3    1
     4     7     1    1
     5     9     3    1
     6     1    11    1
     7     3     4    1
     8    11     5    1
     9     4     5    1
    10     4    10    1
    11    12     6    1
    12     5     6    1
