@<TRIPOS>MOLECULE
3oea_BGC_A_1.pdb
 11 11 0 0 0
SMALL
GASTEIGER

@<TRIPOS>ATOM
      1  C2        -8.7880    8.3840   -8.8910 C.3   202  BGC202      0.2141
      2  C3       -10.2930    8.6390   -8.9680 C.3   202  BGC202      0.2173
      3  C4       -10.6810    9.4650  -10.1950 C.3   202  BGC202      0.2142
      4  C5        -9.9860    8.9130  -11.4480 C.3   202  BGC202      0.1810
      5  C6       -10.1860    9.8050  -12.6690 C.3   202  BGC202      0.2141
      6  C1        -8.2340    7.8800  -10.2220 C.3   202  BGC202      0.1777
      7  O2        -8.5230    7.4380   -7.8790 O.3   202  BGC202     -0.2176
      8  O3       -10.7330    9.2960   -7.7970 O.3   202  BGC202     -0.2175
      9  O4       -12.0800    9.3860  -10.3540 O.3   202  BGC202     -0.2176
     10  O5        -8.5910    8.7880  -11.2430 O.3   202  BGC202     -0.3481
     11  O6        -9.7530   11.1180  -12.3810 O.3   202  BGC202     -0.2176
@<TRIPOS>BOND
     1     5    11    1
     2     5     4    1
     3     4    10    1
     4     4     3    1
     5    10     6    1
     6     9     3    1
     7     6     1    1
     8     3     2    1
     9     2     1    1
    10     2     8    1
    11     1     7    1
