@<TRIPOS>MOLECULE
3oeb_BMA_A_1.pdb
 11 11 0 0 0
SMALL
GASTEIGER

@<TRIPOS>ATOM
      1  C1         1.7940   13.0060   13.3070 C.3   501  BMA501      0.1777
      2  C2         1.7710   14.0990   14.3770 C.3   501  BMA501      0.2141
      3  C3         0.4900   14.0190   15.2030 C.3   501  BMA501      0.2173
      4  C4        -0.7360   14.0070   14.2920 C.3   501  BMA501      0.2142
      5  C5        -0.5740   12.8780   13.2710 C.3   501  BMA501      0.1810
      6  C6        -1.7500   12.7720   12.3050 C.3   501  BMA501      0.2141
      7  O2         1.8670   15.3610   13.7530 O.3   501  BMA501     -0.2176
      8  O3         0.4310   15.0980   16.1140 O.3   501  BMA501     -0.2175
      9  O4        -1.9040   13.7720   15.0390 O.3   501  BMA501     -0.2176
     10  O5         0.6140   13.0640   12.5280 O.3   501  BMA501     -0.3481
     11  O6        -2.1510   14.0460   11.8620 O.3   501  BMA501     -0.2176
@<TRIPOS>BOND
     1    11     6    1
     2     6     5    1
     3    10     5    1
     4    10     1    1
     5     5     4    1
     6     1     2    1
     7     7     2    1
     8     4     9    1
     9     4     3    1
    10     2     3    1
    11     3     8    1
