@<TRIPOS>MOLECULE
3oeb_MAN_A_1.pdb
 12 12 0 0 0
SMALL
GASTEIGER

@<TRIPOS>ATOM
      1  C1         5.2430   11.1390    9.7410 C.3   500  MAN500      0.3024
      2  C2         3.7360   11.1120    9.4930 C.3   500  MAN500      0.2434
      3  C3         3.0440   12.1880   10.3250 C.3   500  MAN500      0.2199
      4  C4         3.3900   12.0610   11.8130 C.3   500  MAN500      0.2144
      5  C5         4.9080   11.9780   11.9880 C.3   500  MAN500      0.1836
      6  C6         5.2850   11.6200   13.4230 C.3   500  MAN500      0.2142
      7  O1         5.8170   12.3330    9.2500 O.3   500  MAN500     -0.1869
      8  O2         3.2430    9.8420    9.8600 O.3   500  MAN500     -0.2148
      9  O3         1.6450   12.1390   10.1240 O.3   500  MAN500     -0.2174
     10  O4         2.9510   13.2200   12.4900 O.3   500  MAN500     -0.2176
     11  O5         5.4900   11.0060   11.1320 O.3   500  MAN500     -0.3236
     12  O6         6.6830   11.7530   13.5690 O.3   500  MAN500     -0.2176
@<TRIPOS>BOND
     1     7     1    1
     2     2     1    1
     3     2     8    1
     4     2     3    1
     5     1    11    1
     6     9     3    1
     7     3     4    1
     8    11     5    1
     9     4     5    1
    10     4    10    1
    11     5     6    1
    12     6    12    1
