@<TRIPOS>MOLECULE
3oee_ANP_A_1.pdb
 31 33 0 0 0
SMALL
GASTEIGER

@<TRIPOS>ATOM
      1  PG        -1.6380   14.2360   59.9220 P.3   600  ANP600      0.4884
      2  O1G       -0.8320   13.4960   58.9080 O.2   600  ANP600     -0.2331
      3  O2G       -1.7830   13.5120   61.2090 O.3   600  ANP600     -0.1240
      4  O3G       -1.3550   15.6900   60.1390 O.3   600  ANP600     -0.1240
      5  PB        -4.4030   13.2100   59.5680 P.3   600  ANP600      0.4669
      6  O1B       -4.4110   12.1570   58.5080 O.2   600  ANP600     -0.2351
      7  O2B       -4.1610   12.8400   61.0160 O.3   600  ANP600     -0.1253
      8  N3B       -3.1600   14.3200   59.1210 N.3   600  ANP600     -0.0163
      9  PA        -6.4800   15.1600   60.1880 P.3   600  ANP600      0.2220
     10  O1A       -7.4600   14.5220   61.1220 O.3   600  ANP600     -0.4370
     11  O2A       -5.4640   16.0780   60.7380 O.2   600  ANP600     -0.5170
     12  O3A       -5.7640   14.0330   59.3040 O.3   600  ANP600     -0.2360
     13  O5'       -7.2530   15.9480   59.0520 O.3   600  ANP600     -0.3111
     14  C5'       -6.5820   16.6550   58.0190 C.3   600  ANP600      0.1813
     15  C4'       -7.1900   18.0470   57.8420 C.3   600  ANP600      0.1821
     16  O4'       -8.4790   17.9520   57.2350 O.3   600  ANP600     -0.3135
     17  C3'       -7.3850   18.7620   59.1640 C.3   600  ANP600      0.2184
     18  O3'       -7.0630   20.1410   58.9910 O.3   600  ANP600     -0.2174
     19  C2'       -8.8540   18.5550   59.4530 C.3   600  ANP600      0.2570
     20  O2'       -9.4440   19.5910   60.2200 O.3   600  ANP600     -0.2130
     21  C1'       -9.4910   18.4800   58.0860 C.3   600  ANP600      0.3186
     22  N9       -10.6460   17.5580   58.1650 N.pl3 600  ANP600     -0.1439
     23  C8       -10.6430   16.3440   58.7420 C.3   600  ANP600      0.3377
     24  N7       -11.8530   15.7590   58.6580 N.2   600  ANP600     -0.2095
     25  C5       -12.6780   16.6150   58.0230 C.2   600  ANP600      0.2526
     26  C6       -14.1090   16.6240   57.5960 C.2   600  ANP600      0.4393
     27  N6       -14.9430   15.5750   57.8320 N.pl3 600  ANP600      0.2180
     28  N1       -14.5480   17.7250   56.9500 N.2   600  ANP600      0.0021
     29  C2       -13.7510   18.7740   56.6840 C.3   600  ANP600      0.5254
     30  N3       -12.4540   18.8360   57.0370 N.2   600  ANP600     -0.0055
     31  C4       -11.8690   17.8050   57.6990 C.2   600  ANP600      0.3518
@<TRIPOS>BOND
     1    29    28    1
     2    29    30    1
     3    28    26    2
     4    30    31    2
     5    16    15    1
     6    16    21    1
     7    26    27    1
     8    26    25    1
     9    31    25    1
    10    31    22    1
    11    15    14    1
    12    15    17    1
    13    14    13    1
    14    25    24    2
    15    21    22    1
    16    21    19    1
    17    22    23    1
    18     6     5    2
    19    24    23    1
    20     2     1    2
    21    18    17    1
    22    13     9    1
    23     8     5    1
    24     8     1    1
    25    17    19    1
    26    12     5    1
    27    12     9    1
    28    19    20    1
    29     5     7    1
    30     1     4    1
    31     1     3    1
    32     9    11    2
    33     9    10    1
