@<TRIPOS>MOLECULE
3oeh_ANP_A_1.pdb
 31 33 0 0 0
SMALL
GASTEIGER

@<TRIPOS>ATOM
      1  PG        -1.9220   15.1410   59.4360 P.3   600  ANP600      0.4884
      2  O1G       -1.0660   14.2720   58.5430 O.2   600  ANP600     -0.2331
      3  O2G       -2.2280   14.4700   60.7340 O.3   600  ANP600     -0.1240
      4  O3G       -1.5020   16.5860   59.6270 O.3   600  ANP600     -0.1240
      5  PB        -4.6930   14.1720   59.0570 P.3   600  ANP600      0.4669
      6  O1B       -4.6560   12.9280   58.1940 O.2   600  ANP600     -0.2351
      7  O2B       -4.5420   14.0300   60.5650 O.3   600  ANP600     -0.1253
      8  N3B       -3.4210   15.2350   58.5460 N.3   600  ANP600     -0.0163
      9  PA        -6.8190   16.0900   59.5580 P.3   600  ANP600      0.2220
     10  O1A       -7.7990   15.4350   60.4790 O.3   600  ANP600     -0.4370
     11  O2A       -5.8060   17.0530   60.0920 O.2   600  ANP600     -0.5170
     12  O3A       -6.0890   14.9280   58.7160 O.3   600  ANP600     -0.2360
     13  O5'       -7.6240   16.8270   58.3940 O.3   600  ANP600     -0.3111
     14  C5'       -6.9400   17.6860   57.4840 C.3   600  ANP600      0.1813
     15  C4'       -7.6980   18.9920   57.2550 C.3   600  ANP600      0.1821
     16  O4'       -9.0050   18.7260   56.7290 O.3   600  ANP600     -0.3135
     17  C3'       -7.9120   19.7490   58.5470 C.3   600  ANP600      0.2184
     18  O3'       -7.9210   21.1340   58.2290 O.3   600  ANP600     -0.2174
     19  C2'       -9.2980   19.3430   58.9770 C.3   600  ANP600      0.2570
     20  O2'       -9.8970   20.3520   59.7720 O.3   600  ANP600     -0.2130
     21  C1'      -10.0180   19.1530   57.6540 C.3   600  ANP600      0.3186
     22  N9       -11.1010   18.1420   57.7550 N.pl3 600  ANP600     -0.1439
     23  C8       -11.0220   16.9240   58.3040 C.3   600  ANP600      0.3377
     24  N7       -12.2000   16.2610   58.2280 N.2   600  ANP600     -0.2095
     25  C5       -13.0640   17.0730   57.6100 C.2   600  ANP600      0.2526
     26  C6       -14.4780   17.0060   57.1970 C.2   600  ANP600      0.4393
     27  N6       -15.2360   15.9140   57.4400 N.pl3 600  ANP600      0.2180
     28  N1       -14.9950   18.0690   56.5690 N.2   600  ANP600      0.0021
     29  C2       -14.2740   19.1700   56.3230 C.3   600  ANP600      0.5254
     30  N3       -12.9890   19.3070   56.6670 N.2   600  ANP600     -0.0055
     31  C4       -12.3370   18.3060   57.2990 C.2   600  ANP600      0.3518
@<TRIPOS>BOND
     1    29    28    1
     2    29    30    1
     3    28    26    2
     4    30    31    2
     5    16    15    1
     6    16    21    1
     7    26    27    1
     8    26    25    1
     9    15    14    1
    10    15    17    1
    11    31    25    1
    12    31    22    1
    13    14    13    1
    14    25    24    2
    15    21    22    1
    16    21    19    1
    17    22    23    1
    18     6     5    2
    19    24    23    1
    20    18    17    1
    21    13     9    1
    22     2     1    2
    23     8     5    1
    24     8     1    1
    25    17    19    1
    26    12     5    1
    27    12     9    1
    28    19    20    1
    29     5     7    1
    30     1     4    1
    31     1     3    1
    32     9    11    2
    33     9    10    1
