@<TRIPOS>MOLECULE
3oel_DGL_A_1.pdb
 10 9 0 0 0
SMALL
GASTEIGER

@<TRIPOS>ATOM
      1  N          9.4150   38.4480    8.8300 N.3   287  DGL287     -0.1208
      2  CA         8.4040   38.1710    9.8830 C.3   287  DGL287      0.1949
      3  C          7.8280   36.7980    9.7180 C.2   287  DGL287      0.3819
      4  O          7.1910   36.2990   10.6660 O.co2 287  DGL287     -0.2441
      5  CB         9.0420   38.2870   11.2680 C.3   287  DGL287      0.0424
      6  CG         8.3370   39.3410   12.1110 C.3   287  DGL287      0.1161
      7  CD         8.7380   39.1660   13.5600 C.2   287  DGL287      0.3649
      8  OE1        9.7890   39.7100   13.9600 O.co2 287  DGL287     -0.2457
      9  OE2        7.9970   38.4850   14.2990 O.co2 287  DGL287     -0.2457
     10  OXT        7.9980   36.2020    8.6310 O.co2 287  DGL287     -0.2441
@<TRIPOS>BOND
     1    10     3   ar
     2     1     2    1
     3     3     2    1
     4     3     4   ar
     5     2     5    1
     6     5     6    1
     7     6     7    1
     8     7     8   ar
     9     7     9   ar
