@<TRIPOS>MOLECULE
3oem_OEM_A_1.pdb
 10 9 0 0 0
SMALL
GASTEIGER

@<TRIPOS>ATOM
      1  C          7.7790   36.7190    9.9360 C.2   287  OEM287      0.3808
      2  N          9.3920   38.4950    9.6280 N.3   287  OEM287     -0.2064
      3  O          8.2690   36.1260    8.9460 O.co2 287  OEM287     -0.2441
      4  CA         8.0340   38.1980   10.0530 C.3   287  OEM287      0.1871
      5  CB         7.6810   38.7740   11.4360 C.3   287  OEM287      0.1429
      6  CG         8.5980   38.2500   12.5210 C.2   287  OEM287      0.3669
      7  CAA        9.8390   39.8570    9.3870 C.3   287  OEM287      0.1081
      8  OD1        9.7530   37.9140   12.2000 O.co2 287  OEM287     -0.2456
      9  OD2        8.1710   38.1700   13.6940 O.co2 287  OEM287     -0.2456
     10  OXT        7.0800   36.1420   10.7860 O.co2 287  OEM287     -0.2441
@<TRIPOS>BOND
     1     3     1   ar
     2     7     2    1
     3     2     4    1
     4     1     4    1
     5     1    10   ar
     6     4     5    1
     7     5     6    1
     8     8     6   ar
     9     6     9   ar
