@<TRIPOS>MOLECULE
3oen_GLU_A_1.pdb
 10 9 0 0 0
SMALL
GASTEIGER

@<TRIPOS>ATOM
      1  N          9.4010   38.2900    9.2780 N.3   1001  GLU1001    -0.1208
      2  CA         8.6190   37.7150   10.3720 C.3   1001  GLU1001     0.1949
      3  C          7.8740   36.4740    9.9180 C.2   1001  GLU1001     0.3819
      4  O          7.1650   35.8700   10.7250 O.co2 1001  GLU1001    -0.2441
      5  CB         7.6190   38.7390   10.9350 C.3   1001  GLU1001     0.0424
      6  CG         8.2150   39.7130   11.9630 C.3   1001  GLU1001     0.1161
      7  CD         8.8200   38.9820   13.1640 C.2   1001  GLU1001     0.3649
      8  OE1        9.9880   39.2460   13.4890 O.co2 1001  GLU1001    -0.2457
      9  OE2        8.1350   38.1290   13.7650 O.co2 1001  GLU1001    -0.2457
     10  OXT        7.9330   36.0700    8.7470 O.co2 1001  GLU1001    -0.2441
@<TRIPOS>BOND
     1    10     3   ar
     2     1     2    1
     3     3     2    1
     4     3     4   ar
     5     2     5    1
     6     5     6    1
     7     6     7    1
     8     7     8   ar
     9     7     9   ar
