@<TRIPOS>MOLECULE
3oes_GNP_A_1.pdb
 32 34 0 0 0
SMALL
GASTEIGER

@<TRIPOS>ATOM
      1  PG       -19.5370   23.0410    6.3090 P.3   201  GNP201      0.4884
      2  O1G      -19.3330   23.4620    7.7710 O.3   201  GNP201     -0.1240
      3  O2G      -20.8860   22.4680    5.9840 O.3   201  GNP201     -0.1240
      4  O3G      -18.3910   22.1430    5.8830 O.2   201  GNP201     -0.2331
      5  N3B      -19.3970   24.4490    5.4740 N.3   201  GNP201     -0.0163
      6  PB       -19.6050   24.6270    3.8920 P.3   201  GNP201      0.4669
      7  O1B      -18.4720   24.0120    3.1250 O.2   201  GNP201     -0.2351
      8  O2B      -20.9590   24.1380    3.5640 O.3   201  GNP201     -0.1253
      9  O3A      -19.5920   26.1700    3.5670 O.3   201  GNP201     -0.2360
     10  PA       -20.8350   27.0850    3.6570 P.3   201  GNP201      0.2220
     11  O1A      -21.6880   26.9870    2.4650 O.2   201  GNP201     -0.5170
     12  O2A      -21.6010   26.9510    4.9180 O.3   201  GNP201     -0.4370
     13  O5'      -20.3480   28.6120    3.5520 O.3   201  GNP201     -0.3111
     14  C5'      -19.3750   29.1000    4.4450 C.3   201  GNP201      0.1813
     15  C4'      -19.5500   30.5860    4.6150 C.3   201  GNP201      0.1799
     16  O4'      -19.0020   31.2130    3.4370 O.3   201  GNP201     -0.3326
     17  C3'      -21.0050   31.0170    4.7030 C.3   201  GNP201      0.2158
     18  O3'      -21.1740   32.0280    5.7000 O.3   201  GNP201     -0.2175
     19  C2'      -21.3560   31.4960    3.2840 C.3   201  GNP201      0.2310
     20  O2'      -22.2190   32.6090    3.2970 O.3   201  GNP201     -0.2158
     21  C1'      -20.0080   31.8690    2.6900 C.3   201  GNP201      0.2293
     22  N9       -19.7450   31.5440    1.2810 N.pl3 201  GNP201     -0.2354
     23  C8       -19.8640   30.3220    0.6590 C.3   201  GNP201      0.2246
     24  N7       -19.5550   30.3330   -0.5920 N.2   201  GNP201     -0.2322
     25  C5       -19.1760   31.6530   -0.8250 C.2   201  GNP201      0.2182
     26  C6       -18.7390   32.2540   -2.0200 C.1   201  GNP201      0.2372
     27  O6       -18.5730   31.6670   -3.1120 O.2   201  GNP201     -0.2069
     28  N1       -18.4580   33.6190   -1.8620 N.2   201  GNP201     -0.2485
     29  C2       -18.6180   34.3060   -0.6680 C.1   201  GNP201      0.2531
     30  N2       -18.3370   35.6250   -0.6680 N.pl3 201  GNP201     -0.0226
     31  N3       -19.0580   33.7550    0.4680 N.2   201  GNP201     -0.3074
     32  C4       -19.2880   32.4140    0.3140 C.2   201  GNP201      0.2300
@<TRIPOS>BOND
     1    27    26    2
     2    26    28    2
     3    26    25    1
     4    28    29    2
     5    25    24    2
     6    25    32    1
     7    30    29    1
     8    29    31    2
     9    24    23    1
    10    32    31    2
    11    32    22    1
    12    23    22    1
    13    22    21    1
    14    11    10    2
    15    21    19    1
    16    21    16    1
    17     7     6    2
    18    19    20    1
    19    19    17    1
    20    16    15    1
    21    13    10    1
    22    13    14    1
    23     8     6    1
    24     9    10    1
    25     9     6    1
    26    10    12    1
    27     6     5    1
    28    14    15    1
    29    15    17    1
    30    17    18    1
    31     5     1    1
    32     4     1    2
    33     3     1    1
    34     1     2    1
