@<TRIPOS>MOLECULE
3oet_NAD_A_1.pdb
 44 48 0 0 0
SMALL
GASTEIGER

@<TRIPOS>ATOM
      1  PA        24.5810   45.0750   10.3330 P.3   379  NAD379      0.2189
      2  O1A       26.0160   44.7810   10.5250 O.3   379  NAD379     -0.4371
      3  O2A       24.2530   45.2290    8.9000 O.2   379  NAD379     -0.5170
      4  O5B       24.2680   46.5010   11.0120 O.3   379  NAD379     -0.3112
      5  C5B       24.5880   46.8810   12.3270 C.3   379  NAD379      0.1813
      6  C4B       24.7090   48.3950   12.3040 C.3   379  NAD379      0.1821
      7  O4B       24.8210   48.8970   13.6310 O.3   379  NAD379     -0.3135
      8  C3B       25.9600   48.8550   11.5500 C.3   379  NAD379      0.2184
      9  O3B       25.5710   49.8790   10.6670 O.3   379  NAD379     -0.2174
     10  C2B       26.8250   49.4720   12.6280 C.3   379  NAD379      0.2570
     11  O2B       27.5170   50.6030   12.1610 O.3   379  NAD379     -0.2130
     12  C1B       25.7880   49.9070   13.6410 C.3   379  NAD379      0.3186
     13  N9A       26.3680   50.1290   14.9590 N.pl3 379  NAD379     -0.1439
     14  C8A       27.5080   49.5650   15.4700 C.3   379  NAD379      0.3377
     15  N7A       27.7050   50.0550   16.7120 N.2   379  NAD379     -0.2095
     16  C5A       26.7130   50.9340   17.0070 C.2   379  NAD379      0.2526
     17  C6A       26.4490   51.7310   18.1280 C.2   379  NAD379      0.4393
     18  N6A       27.1560   51.5740   19.2590 N.pl3 379  NAD379      0.2180
     19  N1A       25.3290   52.5500   18.1290 N.2   379  NAD379      0.0021
     20  C2A       24.5130   52.5760   17.0220 C.3   379  NAD379      0.5254
     21  N3A       24.7850   51.8010   15.9110 N.2   379  NAD379     -0.0055
     22  C4A       25.8680   50.9890   15.9070 C.2   379  NAD379      0.3518
     23  O3        23.7040   43.9210   10.9640 O.3   379  NAD379     -0.2703
     24  PN        22.1290   43.7440   10.7090 P.3   379  NAD379      0.2189
     25  O1N       21.9660   42.6210    9.7710 O.2   379  NAD379     -0.5170
     26  O2N       21.4860   45.0620   10.4530 O.3   379  NAD379     -0.4371
     27  O5D       21.6560   43.1520   12.1260 O.3   379  NAD379     -0.3112
     28  C5D       21.5210   43.9820   13.2540 C.3   379  NAD379      0.1813
     29  C4D       21.5830   43.1680   14.5460 C.3   379  NAD379      0.1799
     30  O4D       20.4570   42.3170   14.6280 O.3   379  NAD379     -0.3327
     31  C3D       22.7960   42.2550   14.6510 C.3   379  NAD379      0.2158
     32  O3D       23.1440   42.1700   16.0090 O.3   379  NAD379     -0.2175
     33  C2D       22.2630   40.9080   14.2180 C.3   379  NAD379      0.2309
     34  O2D       23.0140   39.8310   14.6910 O.3   379  NAD379     -0.2158
     35  C1D       20.8660   40.9560   14.8140 C.3   379  NAD379      0.2263
     36  N1N       19.9340   40.0160   14.1460 N.pl3 379  NAD379     -0.2787
     37  C2N       19.1410   39.2100   14.9210 C.3   379  NAD379      0.1244
     38  C3N       18.2310   38.3320   14.3200 C.2   379  NAD379      0.0544
     39  C7N       17.0420   37.8270   15.1210 C.2   379  NAD379      0.2818
     40  O7N       16.4700   36.5830   14.7750 O.2   379  NAD379     -0.2670
     41  N7N       16.5470   38.5530   16.1220 N.am  379  NAD379     -0.0839
     42  C4N       18.1530   38.2860   12.9190 C.2   379  NAD379      0.0033
     43  C5N       18.9460   39.1420   12.1500 C.2   379  NAD379      0.0157
     44  C6N       19.8460   40.0050   12.7690 C.2   379  NAD379      0.0633
@<TRIPOS>BOND
     1     3     1    2
     2    25    24    2
     3     1     2    1
     4     1    23    1
     5     1     4    1
     6    26    24    1
     7     9     8    1
     8    24    23    1
     9    24    27    1
    10     4     5    1
    11     8     6    1
    12     8    10    1
    13    27    28    1
    14    43    44    2
    15    43    42    1
    16    11    10    1
    17     6     5    1
    18     6     7    1
    19    10    12    1
    20    44    36    1
    21    42    38    2
    22    28    29    1
    23     7    12    1
    24    12    13    1
    25    36    35    1
    26    36    37    1
    27    33    31    1
    28    33    34    1
    29    33    35    1
    30    38    37    1
    31    38    39    1
    32    29    30    1
    33    29    31    1
    34    30    35    1
    35    31    32    1
    36    40    39    2
    37    13    14    1
    38    13    22    1
    39    39    41   am
    40    14    15    1
    41    22    21    2
    42    22    16    1
    43    21    20    1
    44    15    16    2
    45    16    17    1
    46    20    19    1
    47    17    19    2
    48    17    18    1
