@<TRIPOS>MOLECULE
3oeu_OEU_K_1.pdb
 39 41 0 0 0
SMALL
GASTEIGER

@<TRIPOS>ATOM
      1  C28       11.6420 -136.8850   21.3510 C.2   213  OEU213      0.2422
      2  C38       15.8950 -134.3790   23.1400 C.3   213  OEU213      0.0307
      3  C33       15.0850 -134.8660   24.3600 C.ar  213  OEU213     -0.0258
      4  C34       15.4280 -134.4140   25.6330 C.ar  213  OEU213     -0.0046
      5  C35       14.7070 -134.8440   26.7490 C.ar  213  OEU213     -0.0003
      6  C37       13.6410 -135.7280   26.6050 C.ar  213  OEU213     -0.0003
      7  C36       13.2950 -136.1820   25.3350 C.ar  213  OEU213     -0.0046
      8  C32       14.0080 -135.7540   24.2040 C.ar  213  OEU213     -0.0256
      9  C31       13.5660 -136.3080   22.8430 C.3   213  OEU213      0.0356
     10  C9        12.0650 -136.1630   22.6240 C.3   213  OEU213      0.0915
     11  O29       12.2270 -137.8970   20.9610 O.2   213  OEU213     -0.2733
     12  N19       10.6200 -136.3220   20.7230 N.am  213  OEU213     -0.1951
     13  C18       10.0650 -136.8820   19.4920 C.3   213  OEU213      0.2028
     14  C16       10.9800 -136.6220   18.2780 C.2   213  OEU213      0.2642
     15  O17       11.6230 -135.5800   18.1430 O.2   213  OEU213     -0.2714
     16  C20        8.6930 -136.2370   19.3180 C.3   213  OEU213      0.1808
     17  O21        7.8760 -136.6100   20.4320 O.3   213  OEU213     -0.2208
     18  C39        8.0210 -136.6450   18.0120 C.3   213  OEU213      0.0379
     19  N14       10.9810 -137.6020   17.3870 N.am  213  OEU213     -0.1963
     20  C12       11.7250 -137.5160   16.1250 C.3   213  OEU213      0.1731
     21  C10       10.7370 -137.2090   14.9860 C.2   213  OEU213      0.2615
     22  O11        9.6140 -137.7090   14.9600 O.2   213  OEU213     -0.2715
     23  C13       12.4420 -138.8260   15.8370 C.3   213  OEU213      0.0358
     24  C15       13.3350 -139.2240   17.0020 C.3   213  OEU213      0.0286
     25  C22       14.5300 -138.2850   17.1670 C.ar  213  OEU213     -0.0221
     26  C23       15.4900 -138.1750   16.1520 C.ar  213  OEU213     -0.0043
     27  C24       14.6630 -137.5560   18.3500 C.ar  213  OEU213     -0.0043
     28  C25       16.5890 -137.3240   16.3180 C.ar  213  OEU213     -0.0003
     29  C27       15.7570 -136.7080   18.5080 C.ar  213  OEU213     -0.0003
     30  C26       16.7160 -136.5920   17.4990 C.ar  213  OEU213     -0.0000
     31  C4         8.3780 -132.1880   13.4660 C.ar  213  OEU213      0.0008
     32  C5         9.6910 -132.1930   13.0070 C.ar  213  OEU213      0.0111
     33  C6        10.3600 -133.4030   12.8240 C.ar  213  OEU213      0.0554
     34  C8        10.3610 -135.9930   12.9150 C.3   213  OEU213      0.1424
     35  N30       11.1830 -136.3650   14.0650 N.am  213  OEU213     -0.1991
     36  C1         9.7210 -134.6160   13.0990 C.ar  213  OEU213      0.0100
     37  C2         8.4090 -134.5980   13.5540 C.ar  213  OEU213     -0.0017
     38  C3         7.7420 -133.3920   13.7450 C.ar  213  OEU213     -0.0002
     39 CL7        12.0000 -133.3740   12.2580 Cl    213  OEU213     -0.0825
@<TRIPOS>BOND
     1    39    33    1
     2    33    32   ar
     3    33    36   ar
     4    34    36    1
     5    34    35    1
     6    32    31   ar
     7    36    37   ar
     8    31    38   ar
     9    37    38   ar
    10    35    21   am
    11    22    21    2
    12    21    20    1
    13    23    20    1
    14    23    24    1
    15    20    19    1
    16    26    28   ar
    17    26    25   ar
    18    28    30   ar
    19    24    25    1
    20    25    27   ar
    21    19    14   am
    22    30    29   ar
    23    18    16    1
    24    15    14    2
    25    14    13    1
    26    27    29   ar
    27    16    13    1
    28    16    17    1
    29    13    12    1
    30    12     1   am
    31    11     1    2
    32     1    10    1
    33    10     9    1
    34     9     8    1
    35     2     3    1
    36     8     3   ar
    37     8     7   ar
    38     3     4   ar
    39     7     6   ar
    40     4     5   ar
    41     6     5   ar
