@<TRIPOS>MOLECULE
3oev_3OE_K_1.pdb
 43 46 0 0 0
SMALL
GASTEIGER

@<TRIPOS>ATOM
      1  C8        11.8700 -137.3600   22.8030 C.ar  213  3OE213      0.0553
      2  C27       11.2630 -137.8010   21.4620 C.2   213  3OE213      0.2652
      3  O28       11.5440 -138.9120   21.0040 O.2   213  3OE213     -0.2684
      4  C34       11.9500 -136.0040   23.1270 C.ar  213  3OE213      0.0077
      5  C33       12.5120 -135.6200   24.3430 C.ar  213  3OE213      0.0371
      6  C30       12.3590 -138.3250   23.6990 C.ar  213  3OE213      0.0077
      7  C31       12.9240 -137.9350   24.9160 C.ar  213  3OE213      0.0371
      8  C32       12.9940 -136.5770   25.2420 C.ar  213  3OE213      0.1391
      9  O35       13.5440 -136.1300   26.4090 O.3   213  3OE213     -0.4706
     10  C36       13.3750 -136.9300   27.5890 C.3   213  3OE213      0.2320
     11  C37       14.3500 -136.8070   28.5710 C.ar  213  3OE213      0.0212
     12  C38       14.3020 -135.7340   29.4610 C.ar  213  3OE213     -0.0007
     13  C39       15.2830 -135.6020   30.4430 C.ar  213  3OE213     -0.0002
     14  C40       16.3170 -136.5360   30.5270 C.ar  213  3OE213     -0.0000
     15  C41       16.3720 -137.6080   29.6350 C.ar  213  3OE213     -0.0002
     16  C42       15.3870 -137.7410   28.6530 C.ar  213  3OE213     -0.0007
     17  N18       10.4800 -136.9000   20.8520 N.am  213  3OE213     -0.1913
     18  C17        9.8050 -137.1480   19.5580 C.3   213  3OE213      0.2031
     19  C15       10.7730 -136.9240   18.3760 C.2   213  3OE213      0.2642
     20  O16       11.4700 -135.9110   18.2990 O.2   213  3OE213     -0.2714
     21  C19        8.5460 -136.2620   19.4740 C.3   213  3OE213      0.1808
     22  O20        7.6470 -136.6540   20.5110 O.3   213  3OE213     -0.2208
     23  C43        7.8300 -136.3400   18.1220 C.3   213  3OE213      0.0379
     24  N13       10.7940 -137.9210   17.4850 N.am  213  3OE213     -0.1963
     25  C11       11.6200 -137.9040   16.2610 C.3   213  3OE213      0.1731
     26  C9        10.6910 -137.6750   15.0590 C.2   213  3OE213      0.2616
     27  O10        9.6810 -138.3630   14.9150 O.2   213  3OE213     -0.2715
     28  C12       12.3610 -139.2350   16.0740 C.3   213  3OE213      0.0358
     29  C14       13.2530 -139.6080   17.2610 C.3   213  3OE213      0.0286
     30  C21       14.4130 -138.6280   17.4530 C.ar  213  3OE213     -0.0221
     31  C22       15.3920 -138.4860   16.4640 C.ar  213  3OE213     -0.0043
     32  C23       14.4890 -137.8790   18.6310 C.ar  213  3OE213     -0.0043
     33  C24       16.4490 -137.5880   16.6480 C.ar  213  3OE213     -0.0003
     34  C26       15.5430 -136.9820   18.8130 C.ar  213  3OE213     -0.0003
     35  C25       16.5210 -136.8370   17.8230 C.ar  213  3OE213     -0.0000
     36  C4         8.2110 -132.9110   13.6400 C.ar  213  3OE213      0.0348
     37  C5         9.4040 -132.6120   13.1090 C.ar  213  3OE213      0.0029
     38  C6        10.1950 -133.6770   12.8610 C.ar  213  3OE213     -0.0177
     39  C7        11.5900 -133.5300   12.2740 C.3   213  3OE213      0.0313
     40  S3         8.1300 -134.6030   13.8090 S.2   213  3OE213     -0.0894
     41  C1         9.6590 -134.9260   13.1890 C.ar  213  3OE213      0.0251
     42  C2        10.2540 -136.3410   13.0450 C.3   213  3OE213      0.1476
     43  N29       11.0460 -136.6930   14.2320 N.am  213  3OE213     -0.1986
@<TRIPOS>BOND
     1    39    38    1
     2    38    37   ar
     3    38    41   ar
     4    42    41    1
     5    42    43    1
     6    37    36   ar
     7    41    40   ar
     8    36    40   ar
     9    43    26   am
    10    27    26    2
    11    26    25    1
    12    28    25    1
    13    28    29    1
    14    25    24    1
    15    31    33   ar
    16    31    30   ar
    17    33    35   ar
    18    29    30    1
    19    30    32   ar
    20    24    19   am
    21    35    34   ar
    22    23    21    1
    23    20    19    2
    24    19    18    1
    25    32    34   ar
    26    21    18    1
    27    21    22    1
    28    18    17    1
    29    17     2   am
    30     3     2    2
    31     2     1    1
    32     1     4   ar
    33     1     6   ar
    34     4     5   ar
    35     6     7   ar
    36     5     8   ar
    37     7     8   ar
    38     8     9    1
    39     9    10    1
    40    10    11    1
    41    11    16   ar
    42    11    12   ar
    43    16    15   ar
    44    12    13   ar
    45    15    14   ar
    46    13    14   ar
