@<TRIPOS>MOLECULE
3oew_NAD_A_1.pdb
 44 48 0 0 0
SMALL
GASTEIGER

@<TRIPOS>ATOM
      1  PA         0.7160  -33.7410   11.0900 P.3   4345  NAD4345     0.2189
      2  O1A        0.8250  -32.4440   10.3890 O.2   4345  NAD4345    -0.5170
      3  O2A       -0.2540  -34.6770   10.4830 O.3   4345  NAD4345    -0.4371
      4  O5B        0.3080  -33.5070   12.6240 O.3   4345  NAD4345    -0.3112
      5  C5B        0.9130  -32.5320   13.4380 C.3   4345  NAD4345     0.1813
      6  C4B       -0.1780  -32.0620   14.3960 C.3   4345  NAD4345     0.1821
      7  O4B        0.2780  -31.0490   15.2790 O.3   4345  NAD4345    -0.3135
      8  C3B       -1.3520  -31.4750   13.6140 C.3   4345  NAD4345     0.2184
      9  O3B       -2.5320  -32.1400   13.9820 O.3   4345  NAD4345    -0.2174
     10  C2B       -1.4740  -30.0610   14.1150 C.3   4345  NAD4345     0.2570
     11  O2B       -2.8310  -29.7170   14.2460 O.3   4345  NAD4345    -0.2130
     12  C1B       -0.8060  -30.1710   15.4780 C.3   4345  NAD4345     0.3186
     13  N9A       -0.4810  -28.8390   16.0320 N.pl3 4345  NAD4345    -0.1439
     14  C8A        0.2940  -27.8410   15.4930 C.3   4345  NAD4345     0.3377
     15  N7A        0.2740  -26.7900   16.3430 N.2   4345  NAD4345    -0.2095
     16  C5A       -0.5260  -27.0990   17.3980 C.2   4345  NAD4345     0.2526
     17  C6A       -0.9080  -26.4100   18.5350 C.2   4345  NAD4345     0.4393
     18  N6A       -0.6450  -25.1140   18.6760 N.pl3 4345  NAD4345     0.2180
     19  N1A       -1.7420  -27.0160   19.4360 N.2   4345  NAD4345     0.0021
     20  C2A       -2.2140  -28.2860   19.2160 C.3   4345  NAD4345     0.5254
     21  N3A       -1.8330  -28.9620   18.0950 N.2   4345  NAD4345    -0.0055
     22  C4A       -1.0020  -28.3770   17.2080 C.2   4345  NAD4345     0.3518
     23  O3         2.1990  -34.3690   11.1350 O.3   4345  NAD4345    -0.2703
     24  PN         2.6480  -35.8230   11.6970 P.3   4345  NAD4345     0.2189
     25  O1N        3.7450  -36.2870   10.8170 O.2   4345  NAD4345    -0.5170
     26  O2N        1.5610  -36.7660   12.0360 O.3   4345  NAD4345    -0.4371
     27  O5D        3.2860  -35.3400   13.0910 O.3   4345  NAD4345    -0.3112
     28  C5D        2.9020  -35.8890   14.3370 C.3   4345  NAD4345     0.1813
     29  C4D        4.1420  -35.9640   15.2450 C.3   4345  NAD4345     0.1799
     30  O4D        5.0230  -36.9740   14.7680 O.3   4345  NAD4345    -0.3327
     31  C3D        4.9430  -34.6730   15.2180 C.3   4345  NAD4345     0.2158
     32  O3D        5.4460  -34.4130   16.5020 O.3   4345  NAD4345    -0.2175
     33  C2D        6.1150  -35.0010   14.3090 C.3   4345  NAD4345     0.2309
     34  O2D        7.2260  -34.2070   14.6240 O.3   4345  NAD4345    -0.2158
     35  C1D        6.3360  -36.4570   14.6420 C.3   4345  NAD4345     0.2263
     36  N1N        7.1160  -37.1970   13.6270 N.pl3 4345  NAD4345    -0.2787
     37  C2N        6.8540  -37.0510   12.2840 C.3   4345  NAD4345     0.1244
     38  C3N        7.5950  -37.7570   11.3430 C.2   4345  NAD4345     0.0544
     39  C7N        7.2350  -37.7390    9.8810 C.2   4345  NAD4345     0.2818
     40  O7N        8.1670  -38.2240    8.9470 O.2   4345  NAD4345    -0.2670
     41  N7N        6.0430  -37.3010    9.4800 N.am  4345  NAD4345    -0.0839
     42  C4N        8.5920  -38.6250   11.7770 C.2   4345  NAD4345     0.0033
     43  C5N        8.8400  -38.7680   13.1370 C.2   4345  NAD4345     0.0157
     44  C6N        8.0950  -38.0440   14.0640 C.2   4345  NAD4345     0.0633
@<TRIPOS>BOND
     1    40    39    2
     2    41    39   am
     3    39    38    1
     4     2     1    2
     5     3     1    1
     6    25    24    2
     7     1    23    1
     8     1     4    1
     9    23    24    1
    10    38    42    2
    11    38    37    1
    12    24    26    1
    13    24    27    1
    14    42    43    1
    15    37    36    1
    16     4     5    1
    17    27    28    1
    18    43    44    2
    19     5     6    1
    20     8     9    1
    21     8    10    1
    22     8     6    1
    23    36    44    1
    24    36    35    1
    25    10    11    1
    26    10    12    1
    27    33    34    1
    28    33    35    1
    29    33    31    1
    30    28    29    1
    31     6     7    1
    32    35    30    1
    33    30    29    1
    34    31    29    1
    35    31    32    1
    36     7    12    1
    37    12    13    1
    38    14    13    1
    39    14    15    1
    40    13    22    1
    41    15    16    2
    42    22    16    1
    43    22    21    2
    44    16    17    1
    45    21    20    1
    46    17    18    1
    47    17    19    2
    48    20    19    1
