@<TRIPOS>MOLECULE
3oey_NAD_A_1.pdb
 44 48 0 0 0
SMALL
GASTEIGER

@<TRIPOS>ATOM
      1  PA         0.6920  -33.5870   11.1090 P.3   4345  NAD4345     0.2189
      2  O1A        0.7250  -32.2760   10.4320 O.2   4345  NAD4345    -0.5170
      3  O2A       -0.2570  -34.5460   10.5070 O.3   4345  NAD4345    -0.4371
      4  O5B        0.3580  -33.4070   12.6780 O.3   4345  NAD4345    -0.3112
      5  C5B        0.8880  -32.3730   13.4860 C.3   4345  NAD4345     0.1813
      6  C4B       -0.2340  -31.9000   14.4050 C.3   4345  NAD4345     0.1821
      7  O4B        0.2280  -30.8940   15.2920 O.3   4345  NAD4345    -0.3135
      8  C3B       -1.3770  -31.2840   13.5930 C.3   4345  NAD4345     0.2184
      9  O3B       -2.6010  -31.8540   13.9720 O.3   4345  NAD4345    -0.2174
     10  C2B       -1.4310  -29.8490   14.0420 C.3   4345  NAD4345     0.2570
     11  O2B       -2.7690  -29.4260   14.1130 O.3   4345  NAD4345    -0.2130
     12  C1B       -0.8120  -29.9620   15.4330 C.3   4345  NAD4345     0.3186
     13  N9A       -0.4540  -28.6440   15.9850 N.pl3 4345  NAD4345    -0.1439
     14  C8A        0.3490  -27.6680   15.4570 C.3   4345  NAD4345     0.3377
     15  N7A        0.3430  -26.6150   16.3070 N.2   4345  NAD4345    -0.2095
     16  C5A       -0.4680  -26.8980   17.3530 C.2   4345  NAD4345     0.2526
     17  C6A       -0.8420  -26.1980   18.4930 C.2   4345  NAD4345     0.4393
     18  N6A       -0.5540  -24.9070   18.6570 N.pl3 4345  NAD4345     0.2180
     19  N1A       -1.7070  -26.7910   19.3810 N.2   4345  NAD4345     0.0021
     20  C2A       -2.2010  -28.0560   19.1570 C.3   4345  NAD4345     0.5254
     21  N3A       -1.8280  -28.7410   18.0370 N.2   4345  NAD4345    -0.0055
     22  C4A       -0.9740  -28.1700   17.1550 C.2   4345  NAD4345     0.3518
     23  O3         2.1950  -34.1900   11.0730 O.3   4345  NAD4345    -0.2703
     24  PN         2.6610  -35.6250   11.6700 P.3   4345  NAD4345     0.2189
     25  O1N        3.8180  -36.0730   10.8500 O.2   4345  NAD4345    -0.5170
     26  O2N        1.5530  -36.5780   11.9300 O.3   4345  NAD4345    -0.4371
     27  O5D        3.2370  -35.1360   13.0870 O.3   4345  NAD4345    -0.3112
     28  C5D        2.8450  -35.7090   14.3220 C.3   4345  NAD4345     0.1813
     29  C4D        4.0860  -35.8170   15.2160 C.3   4345  NAD4345     0.1799
     30  O4D        4.9450  -36.8250   14.6870 O.3   4345  NAD4345    -0.3327
     31  C3D        4.8970  -34.5340   15.2180 C.3   4345  NAD4345     0.2158
     32  O3D        5.4110  -34.3260   16.5170 O.3   4345  NAD4345    -0.2175
     33  C2D        6.0450  -34.8520   14.2730 C.3   4345  NAD4345     0.2309
     34  O2D        7.1900  -34.0810   14.5380 O.3   4345  NAD4345    -0.2158
     35  C1D        6.2620  -36.3150   14.5920 C.3   4345  NAD4345     0.2263
     36  N1N        7.0620  -37.0450   13.5890 N.pl3 4345  NAD4345    -0.2787
     37  C2N        6.7750  -36.9400   12.2470 C.3   4345  NAD4345     0.1244
     38  C3N        7.5410  -37.6460   11.3330 C.2   4345  NAD4345     0.0544
     39  C7N        7.2380  -37.5810    9.8610 C.2   4345  NAD4345     0.2818
     40  O7N        8.2410  -37.9860    8.9680 O.2   4345  NAD4345    -0.2670
     41  N7N        6.0470  -37.1630    9.4340 N.am  4345  NAD4345    -0.0839
     42  C4N        8.5810  -38.4660   11.7810 C.2   4345  NAD4345     0.0033
     43  C5N        8.8430  -38.5700   13.1480 C.2   4345  NAD4345     0.0157
     44  C6N        8.0650  -37.8490   14.0410 C.2   4345  NAD4345     0.0633
@<TRIPOS>BOND
     1    40    39    2
     2    41    39   am
     3    39    38    1
     4     2     1    2
     5     3     1    1
     6    25    24    2
     7    23     1    1
     8    23    24    1
     9     1     4    1
    10    38    42    2
    11    38    37    1
    12    24    26    1
    13    24    27    1
    14    42    43    1
    15    37    36    1
    16     4     5    1
    17    27    28    1
    18    43    44    2
    19     5     6    1
    20    36    44    1
    21    36    35    1
    22     8     9    1
    23     8    10    1
    24     8     6    1
    25    10    11    1
    26    10    12    1
    27    33    34    1
    28    33    35    1
    29    33    31    1
    30    28    29    1
    31     6     7    1
    32    35    30    1
    33    30    29    1
    34    29    31    1
    35    31    32    1
    36     7    12    1
    37    12    13    1
    38    14    13    1
    39    14    15    1
    40    13    22    1
    41    15    16    2
    42    22    16    1
    43    22    21    2
    44    16    17    1
    45    21    20    1
    46    17    18    1
    47    17    19    2
    48    20    19    1
