@<TRIPOS>MOLECULE
3oez_STI_A_1.pdb
 37 41 0 0 0
SMALL
GASTEIGER

@<TRIPOS>ATOM
      1  C1       -11.8500   37.8400   -3.9670 C.ar  601  STI601      0.0208
      2  C6       -10.5020   37.8670   -4.4420 C.ar  601  STI601      0.0057
      3  C5       -10.0060   36.8550   -5.3670 C.ar  601  STI601      0.0497
      4  C4       -10.9100   35.8010   -5.7850 C.ar  601  STI601      0.1014
      5  N3       -12.2120   35.8040   -5.3140 N.ar  601  STI601     -0.2422
      6  C2       -12.6960   36.7780   -4.4250 C.ar  601  STI601      0.0989
      7  C7        -8.6280   36.8820   -5.9350 C.2   601  STI601      0.1472
      8  C12       -7.6840   37.9460   -5.7200 C.2   601  STI601      0.0546
      9  C11       -6.4260   37.8630   -6.3840 C.2   601  STI601      0.1144
     10  N10       -6.1480   36.7930   -7.2220 N.2   601  STI601     -0.1683
     11  C9        -7.1050   35.8140   -7.4290 C.1   601  STI601      0.1696
     12  N8        -8.3170   35.8810   -6.8230 N.2   601  STI601     -0.3361
     13  N13       -6.8730   34.7000   -8.2290 N.pl3 601  STI601     -0.1360
     14  C14       -5.6840   34.5300   -8.9420 C.ar  601  STI601      0.0799
     15  C19       -5.4640   35.2280  -10.2270 C.ar  601  STI601     -0.0057
     16  C18       -4.2410   34.9850  -10.9310 C.ar  601  STI601     -0.0016
     17  C17       -3.2540   34.0820  -10.3980 C.ar  601  STI601      0.0164
     18  C16       -3.4670   33.4110   -9.1580 C.ar  601  STI601      0.0750
     19  C15       -4.7090   33.6400   -8.4310 C.ar  601  STI601      0.0336
     20  N21       -2.4680   32.4870   -8.7380 N.am  601  STI601     -0.1754
     21  C22       -2.3750   31.8140   -7.5370 C.2   601  STI601      0.2690
     22  C23       -1.2860   30.7870   -7.4100 C.ar  601  STI601      0.0554
     23  C25       -1.4280   29.6690   -6.4790 C.ar  601  STI601      0.0043
     24  C26       -0.3900   28.6740   -6.3810 C.ar  601  STI601     -0.0028
     25  C27        0.7920   28.8020   -7.2220 C.ar  601  STI601     -0.0061
     26  C28        0.9100   29.9200   -8.1400 C.ar  601  STI601     -0.0028
     27  C29       -0.1120   30.8890   -8.2370 C.ar  601  STI601      0.0043
     28  C46        1.9210   27.7700   -7.1820 C.3   601  STI601      0.0992
     29  N48        3.2560   28.2570   -6.7440 N.3   601  STI601     -0.2665
     30  C53        3.1860   29.1730   -5.5600 C.3   601  STI601      0.0899
     31  C52        4.5400   29.9070   -5.3910 C.3   601  STI601      0.0897
     32  N51        5.6750   28.9070   -5.3180 N.3   601  STI601     -0.2691
     33  C54        6.9940   29.5050   -5.0920 C.3   601  STI601      0.0897
     34  C50        5.7140   27.8340   -6.4080 C.3   601  STI601      0.0897
     35  C49        4.3140   27.1780   -6.5830 C.3   601  STI601      0.0899
     36  O29       -3.1870   31.9290   -6.6180 O.2   601  STI601     -0.2680
     37  C20       -6.4710   36.2240  -10.8540 C.3   601  STI601      0.0324
@<TRIPOS>BOND
     1    16    17   ar
     2    16    15   ar
     3    37    15    1
     4    17    18   ar
     5    15    14   ar
     6    18    20    1
     7    18    19   ar
     8    14    19   ar
     9    14    13    1
    10    20    21   am
    11    27    26   ar
    12    27    22   ar
    13    13    11    1
    14    26    25   ar
    15    21    22    1
    16    21    36    2
    17    11    10    2
    18    11    12    2
    19    22    23   ar
    20    10     9    1
    21    25    28    1
    22    25    24   ar
    23    28    29    1
    24    12     7    2
    25    29    35    1
    26    29    30    1
    27    35    34    1
    28    23    24   ar
    29    34    32    1
    30     9     8    2
    31     7     8    1
    32     7     3    1
    33     4     3   ar
    34     4     5   ar
    35    30    31    1
    36    31    32    1
    37     3     2   ar
    38    32    33    1
    39     5     6   ar
    40     2     1   ar
    41     6     1   ar
