@<TRIPOS>MOLECULE
3of1_CMP_A_1.pdb
 22 25 0 0 0
SMALL
GASTEIGER

@<TRIPOS>ATOM
      1  P        -57.3220   18.4050  -25.6770 P.3   501  CMP501      0.2141
      2  O1P      -58.4940   17.9380  -24.8880 O.3   501  CMP501     -0.4373
      3  O2P      -56.5600   19.5640  -25.0190 O.2   501  CMP501     -0.5172
      4  O5'      -57.6640   18.7040  -27.2490 O.3   501  CMP501     -0.3114
      5  C5'      -56.6470   18.7520  -28.2530 C.3   501  CMP501      0.1812
      6  C4'      -55.8780   17.4380  -28.0940 C.3   501  CMP501      0.1793
      7  O4'      -54.7340   17.2640  -28.9290 O.3   501  CMP501     -0.3136
      8  C3'      -55.2620   17.3880  -26.7220 C.3   501  CMP501      0.1884
      9  O3'      -56.3200   17.1600  -25.7900 O.3   501  CMP501     -0.3111
     10  C2'      -54.2410   16.2940  -26.8480 C.3   501  CMP501      0.2541
     11  O2'      -54.9520   15.0700  -26.5650 O.3   501  CMP501     -0.2131
     12  C1'      -53.7500   16.4330  -28.2820 C.3   501  CMP501      0.3185
     13  N9       -52.4100   17.0920  -28.5480 N.pl3 501  CMP501     -0.1439
     14  C8       -51.4990   16.5820  -29.3800 C.3   501  CMP501      0.3377
     15  N7       -50.3660   17.3560  -29.5010 N.2   501  CMP501     -0.2095
     16  C5       -50.5420   18.4370  -28.7380 C.2   501  CMP501      0.2526
     17  C6       -49.7160   19.6370  -28.4200 C.2   501  CMP501      0.4393
     18  N6       -48.4660   19.7700  -29.0050 N.pl3 501  CMP501      0.2180
     19  N1       -50.2830   20.5760  -27.5470 N.2   501  CMP501      0.0021
     20  C2       -51.5440   20.3980  -26.9930 C.3   501  CMP501      0.5254
     21  N3       -52.3270   19.2980  -27.2510 N.2   501  CMP501     -0.0055
     22  C4       -51.9150   18.3040  -28.1250 C.2   501  CMP501      0.3518
@<TRIPOS>BOND
     1    15    14    1
     2    15    16    2
     3    14    13    1
     4    18    17    1
     5     7    12    1
     6     7     6    1
     7    16    17    1
     8    16    22    1
     9    13    12    1
    10    13    22    1
    11    17    19    2
    12    12    10    1
    13     5     6    1
    14     5     4    1
    15    22    21    2
    16     6     8    1
    17    19    20    1
    18    21    20    1
    19     4     1    1
    20    10     8    1
    21    10    11    1
    22     8     9    1
    23     9     1    1
    24     1     3    2
    25     1     2    1
