@<TRIPOS>MOLECULE
3of2_NAD_A_1.pdb
 44 48 0 0 0
SMALL
GASTEIGER

@<TRIPOS>ATOM
      1  PA         0.7010  -33.6980   11.1090 P.3   4345  NAD4345     0.2189
      2  O1A        0.7440  -32.3810   10.4440 O.2   4345  NAD4345    -0.5170
      3  O2A       -0.2760  -34.6240   10.5060 O.3   4345  NAD4345    -0.4371
      4  O5B        0.3740  -33.4930   12.6750 O.3   4345  NAD4345    -0.3112
      5  C5B        0.9530  -32.4680   13.4520 C.3   4345  NAD4345     0.1813
      6  C4B       -0.1430  -31.9970   14.4040 C.3   4345  NAD4345     0.1821
      7  O4B        0.3170  -30.9840   15.2910 O.3   4345  NAD4345    -0.3135
      8  C3B       -1.3060  -31.4020   13.6020 C.3   4345  NAD4345     0.2184
      9  O3B       -2.5140  -32.0410   13.9380 O.3   4345  NAD4345    -0.2174
     10  C2B       -1.4090  -29.9830   14.0950 C.3   4345  NAD4345     0.2570
     11  O2B       -2.7610  -29.6120   14.1600 O.3   4345  NAD4345    -0.2130
     12  C1B       -0.7650  -30.0960   15.4790 C.3   4345  NAD4345     0.3186
     13  N9A       -0.4460  -28.7650   16.0330 N.pl3 4345  NAD4345    -0.1439
     14  C8A        0.3400  -27.7810   15.4830 C.3   4345  NAD4345     0.3377
     15  N7A        0.3250  -26.7100   16.3090 N.2   4345  NAD4345    -0.2095
     16  C5A       -0.4760  -26.9880   17.3700 C.2   4345  NAD4345     0.2526
     17  C6A       -0.8530  -26.2640   18.4950 C.2   4345  NAD4345     0.4393
     18  N6A       -0.5430  -24.9780   18.6290 N.pl3 4345  NAD4345     0.2180
     19  N1A       -1.7020  -26.8360   19.4100 N.2   4345  NAD4345     0.0021
     20  C2A       -2.1790  -28.1160   19.2210 C.3   4345  NAD4345     0.5254
     21  N3A       -1.8040  -28.8280   18.1130 N.2   4345  NAD4345    -0.0055
     22  C4A       -0.9660  -28.2740   17.2020 C.2   4345  NAD4345     0.3518
     23  O3         2.2030  -34.3000   11.1050 O.3   4345  NAD4345    -0.2703
     24  PN         2.6610  -35.7360   11.7060 P.3   4345  NAD4345     0.2189
     25  O1N        3.7950  -36.1860   10.8620 O.2   4345  NAD4345    -0.5170
     26  O2N        1.5390  -36.6590   11.9820 O.3   4345  NAD4345    -0.4371
     27  O5D        3.2740  -35.2520   13.1130 O.3   4345  NAD4345    -0.3112
     28  C5D        2.8620  -35.8000   14.3530 C.3   4345  NAD4345     0.1813
     29  C4D        4.0990  -35.9080   15.2480 C.3   4345  NAD4345     0.1799
     30  O4D        4.9440  -36.9280   14.7270 O.3   4345  NAD4345    -0.3327
     31  C3D        4.9330  -34.6300   15.2640 C.3   4345  NAD4345     0.2158
     32  O3D        5.4900  -34.4490   16.5580 O.3   4345  NAD4345    -0.2175
     33  C2D        6.0630  -34.9600   14.3080 C.3   4345  NAD4345     0.2309
     34  O2D        7.2120  -34.1880   14.5690 O.3   4345  NAD4345    -0.2158
     35  C1D        6.2640  -36.4270   14.6340 C.3   4345  NAD4345     0.2263
     36  N1N        7.0600  -37.1560   13.6300 N.pl3 4345  NAD4345    -0.2787
     37  C2N        6.7680  -37.0380   12.2880 C.3   4345  NAD4345     0.1244
     38  C3N        7.5210  -37.7340   11.3580 C.2   4345  NAD4345     0.0544
     39  C7N        7.1850  -37.6780    9.8900 C.2   4345  NAD4345     0.2818
     40  O7N        8.1890  -38.0480    8.9950 O.2   4345  NAD4345    -0.2670
     41  N7N        5.9770  -37.3040    9.4540 N.am  4345  NAD4345    -0.0839
     42  C4N        8.5720  -38.5480   11.7920 C.2   4345  NAD4345     0.0033
     43  C5N        8.8520  -38.6670   13.1580 C.2   4345  NAD4345     0.0157
     44  C6N        8.0830  -37.9550   14.0690 C.2   4345  NAD4345     0.0633
@<TRIPOS>BOND
     1    40    39    2
     2    41    39   am
     3    39    38    1
     4     2     1    2
     5     3     1    1
     6    25    24    2
     7    23     1    1
     8    23    24    1
     9     1     4    1
    10    38    42    2
    11    38    37    1
    12    24    26    1
    13    24    27    1
    14    42    43    1
    15    37    36    1
    16     4     5    1
    17    27    28    1
    18    43    44    2
    19     5     6    1
    20     8     9    1
    21     8    10    1
    22     8     6    1
    23    36    44    1
    24    36    35    1
    25    10    11    1
    26    10    12    1
    27    33    34    1
    28    33    35    1
    29    33    31    1
    30    28    29    1
    31     6     7    1
    32    35    30    1
    33    30    29    1
    34    29    31    1
    35    31    32    1
    36     7    12    1
    37    12    13    1
    38    14    13    1
    39    14    15    1
    40    13    22    1
    41    15    16    2
    42    22    16    1
    43    22    21    2
    44    16    17    1
    45    21    20    1
    46    17    18    1
    47    17    19    2
    48    20    19    1
