@<TRIPOS>MOLECULE
3of3_DIH_A_1.pdb
 19 21 0 0 0
SMALL
GASTEIGER

@<TRIPOS>ATOM
      1  O5'       51.6590   18.9510  177.8470 O.3   500  DIH500     -0.2203
      2  C5'       50.5480   19.7410  177.4140 C.3   500  DIH500      0.1860
      3  C4'       49.5040   19.7990  178.5340 C.3   500  DIH500      0.0807
      4  C6'       50.1330   20.3810  179.7900 C.3   500  DIH500      0.0776
      5  C3'       48.3850   20.7650  178.1610 C.3   500  DIH500      0.1717
      6  O3'       47.1560   20.3450  178.7860 O.3   500  DIH500     -0.2215
      7  C2'       48.8280   22.1060  178.7400 C.3   500  DIH500      0.1057
      8  N1'       49.4500   21.6780  180.0070 N.3   500  DIH500     -0.2665
      9  C10       50.3180   22.7440  180.5310 C.3   500  DIH500      0.1023
     10  C9        51.7290   22.8500  179.9990 C.2   500  DIH500      0.0325
     11  C8        52.8850   22.4370  180.6290 C.2   500  DIH500      0.0983
     12  N7        53.9820   22.7270  179.8710 N.2   500  DIH500     -0.2310
     13  C5        53.6360   23.3430  178.7290 C.2   500  DIH500      0.1804
     14  C6        54.3080   23.8790  177.5250 C.1   500  DIH500      0.1716
     15  O6        55.5500   23.8290  177.4260 O.2   500  DIH500     -0.2206
     16  N1        53.5680   24.4640  176.4980 N.2   500  DIH500     -0.1739
     17  C2        52.1700   24.5010  176.6650 C.3   500  DIH500      0.2626
     18  N3        51.5070   24.0180  177.7260 N.2   500  DIH500     -0.2415
     19  C4        52.1920   23.4470  178.7390 C.2   500  DIH500      0.1058
@<TRIPOS>BOND
     1    16    17    1
     2    16    14    2
     3    17    18    1
     4     2     1    1
     5     2     3    1
     6    15    14    2
     7    14    13    1
     8    18    19    2
     9     5     3    1
    10     5     7    1
    11     5     6    1
    12     3     4    1
    13    13    19    1
    14    13    12    2
    15    19    10    1
    16     7     8    1
    17     4     8    1
    18    12    11    1
    19    10     9    1
    20    10    11    2
    21     8     9    1
