@<TRIPOS>MOLECULE
3of4_FMN_A_1.pdb
 31 33 0 0 0
SMALL
GASTEIGER

@<TRIPOS>ATOM
      1  N1        41.4530   47.6430   23.0870 N.2   250  FMN250     -0.2890
      2  C2        41.8850   46.7620   24.0490 C.1   250  FMN250      0.3669
      3  O2        42.1340   45.5800   23.7280 O.2   250  FMN250     -0.1744
      4  N3        42.0450   47.1940   25.3570 N.2   250  FMN250     -0.2300
      5  C4        41.7680   48.4990   25.7170 C.1   250  FMN250      0.2513
      6  O4        41.9340   48.8530   26.9040 O.2   250  FMN250     -0.2057
      7  C4A       41.3260   49.3900   24.7270 C.2   250  FMN250      0.2700
      8  N5        41.0410   50.7090   25.0270 N.2   250  FMN250     -0.3878
      9  C5A       40.9010   51.6280   23.9930 C.2   250  FMN250      0.1320
     10  C6        40.9130   53.0140   24.2680 C.2   250  FMN250      0.0250
     11  C7        40.7840   53.9630   23.2480 C.2   250  FMN250     -0.0238
     12  C7M       40.7950   55.4440   23.5620 C.3   250  FMN250      0.0308
     13  C8        40.6460   53.5290   21.9270 C.2   250  FMN250     -0.0280
     14  C8M       40.5030   54.5390   20.8030 C.3   250  FMN250      0.0304
     15  C9        40.6330   52.1610   21.6490 C.2   250  FMN250     -0.0041
     16  C9A       40.7570   51.1930   22.6700 C.3   250  FMN250      0.1497
     17  N10       40.7420   49.8110   22.4130 N.pl3 250  FMN250     -0.2691
     18  C10       41.1730   48.9470   23.4060 C.2   250  FMN250      0.2416
     19  C1'       40.6640   49.3110   20.9880 C.3   250  FMN250      0.1294
     20  C2'       39.2670   49.5020   20.4270 C.3   250  FMN250      0.2044
     21  O2'       38.4940   48.4560   20.9280 O.3   250  FMN250     -0.2185
     22  C3'       39.2950   49.5570   18.8740 C.3   250  FMN250      0.2164
     23  O3'       39.9920   50.7170   18.4850 O.3   250  FMN250     -0.2175
     24  C4'       37.9160   49.6650   18.2290 C.3   250  FMN250      0.2147
     25  O4'       37.2160   48.4710   18.5340 O.3   250  FMN250     -0.2176
     26  C5'       37.9320   49.9620   16.7000 C.3   250  FMN250      0.1892
     27  O5'       38.5540   48.9320   15.9330 O.3   250  FMN250     -0.2674
     28  P         40.0550   49.0350   15.3160 P.3   250  FMN250      0.5327
     29  O1P       40.8850   49.9610   16.1570 O.3   250  FMN250     -0.1145
     30  O2P       39.8900   49.5600   13.9440 O.2   250  FMN250     -0.2224
     31  O3P       40.6620   47.6580   15.3100 O.3   250  FMN250     -0.1145
@<TRIPOS>BOND
     1    30    28    2
     2    31    28    1
     3    28    27    1
     4    28    29    1
     5    27    26    1
     6    26    24    1
     7    24    25    1
     8    24    22    1
     9    23    22    1
    10    22    20    1
    11    20    21    1
    12    20    19    1
    13    14    13    1
    14    19    17    1
    15    15    13    2
    16    15    16    1
    17    13    11    1
    18    17    16    1
    19    17    18    1
    20    16     9    1
    21     1    18    2
    22     1     2    2
    23    11    12    1
    24    11    10    2
    25    18     7    1
    26     3     2    2
    27     9    10    1
    28     9     8    2
    29     2     4    2
    30     7     8    2
    31     7     5    1
    32     4     5    2
    33     5     6    2
