@<TRIPOS>MOLECULE
3of8_I0Y_A_1.pdb
 39 41 0 0 0
SMALL
GASTEIGER

@<TRIPOS>ATOM
      1  C1        29.7440    7.2640    2.7920 C.2   501  I0Y501      0.4219
      2  O1        29.0320    6.3230    3.2300 O.2   501  I0Y501     -0.2245
      3  O2        31.0110    7.2620    2.9150 O.3   501  I0Y501     -0.4285
      4  C2        31.7700    6.1040    2.9920 C.3   501  I0Y501      0.2368
      5  C3        32.7450    5.9770    1.8510 C.ar  501  I0Y501      0.0213
      6  C8        34.0910    6.2750    2.0400 C.ar  501  I0Y501     -0.0007
      7  C7        34.9670    6.1740    0.9560 C.ar  501  I0Y501     -0.0002
      8  C6        34.4850    5.7990   -0.3050 C.ar  501  I0Y501     -0.0000
      9  C5        33.1280    5.5220   -0.4900 C.ar  501  I0Y501     -0.0002
     10  C4        32.2550    5.6130    0.5940 C.ar  501  I0Y501     -0.0007
     11  N1        29.1060    8.5020    2.4730 N.am  501  I0Y501     -0.1607
     12  C9        27.8040    8.4900    3.2750 C.3   501  I0Y501      0.1804
     13  C10       26.6160    7.8170    2.4500 C.2   501  I0Y501      0.2620
     14  O3        26.5740    7.6560    1.2410 O.2   501  I0Y501     -0.2715
     15  C11       27.3530    9.7980    4.1020 C.3   501  I0Y501      0.0575
     16  C12       28.3070   10.9650    4.1130 C.ar  501  I0Y501     -0.0200
     17  C13       28.4660   11.6270    2.9180 C.ar  501  I0Y501     -0.0042
     18  C14       29.0100   11.3510    5.2420 C.ar  501  I0Y501     -0.0042
     19  C15       29.3420   12.6940    2.8370 C.ar  501  I0Y501     -0.0003
     20  C16       29.8850   12.4310    5.1610 C.ar  501  I0Y501     -0.0003
     21  C17       30.0510   13.0960    3.9580 C.ar  501  I0Y501     -0.0000
     22  N2        25.5160    7.5410    3.3300 N.am  501  I0Y501     -0.1977
     23  O4        22.4050    7.6110    3.7610 O.2   501  I0Y501     -0.2915
     24  O5        19.0540    3.8460    4.0430 O.3   501  I0Y501     -0.4826
     25  O6        21.4570    7.9950    1.5490 O.3   501  I0Y501     -0.2118
     26  C18       24.4250    5.5500    4.1360 C.3   501  I0Y501      0.0556
     27  C19       24.4730    6.5980    3.0110 C.3   501  I0Y501      0.1593
     28  C20       23.2170    7.4300    2.8550 C.2   501  I0Y501      0.2037
     29  C21       22.8360    7.9570    1.6550 C.3   501  I0Y501      0.2477
     30  C23       23.0570    5.0010    4.3120 C.ar  501  I0Y501     -0.0198
     31  C24       20.4140    4.2320    4.2280 C.ar  501  I0Y501      0.1382
     32  C25       17.9670    5.9730    4.1120 C.3   501  I0Y501      0.0436
     33  C26       18.1400    4.6960    3.3320 C.3   501  I0Y501      0.1334
     34  C28       22.3540    4.9160    5.5220 C.ar  501  I0Y501     -0.0011
     35  C27       22.4760    4.7370    3.0990 C.ar  501  I0Y501     -0.0011
     36  C30       21.0050    4.5170    5.4790 C.ar  501  I0Y501      0.0366
     37  C29       21.1510    4.3450    3.0630 C.ar  501  I0Y501      0.0366
     38  C32       18.6100    5.0490    1.9450 C.3   501  I0Y501      0.0436
     39  C33       16.7890    4.0160    3.1420 C.3   501  I0Y501      0.0436
@<TRIPOS>BOND
     1     9     8   ar
     2     9    10   ar
     3     8     7   ar
     4    10     5   ar
     5     7     6   ar
     6    14    13    2
     7    25    29    1
     8    29    28    1
     9     5     6   ar
    10     5     4    1
    11    38    33    1
    12    13    12    1
    13    13    22   am
    14    11     1   am
    15    11    12    1
    16     1     3    1
    17     1     2    2
    18    19    17   ar
    19    19    21   ar
    20    28    27    1
    21    28    23    2
    22     3     4    1
    23    17    16   ar
    24    27    22    1
    25    27    26    1
    26    37    35   ar
    27    37    31   ar
    28    35    30   ar
    29    39    33    1
    30    12    15    1
    31    33    24    1
    32    33    32    1
    33    21    20   ar
    34    24    31    1
    35    15    16    1
    36    16    18   ar
    37    26    30    1
    38    31    36   ar
    39    30    34   ar
    40    20    18   ar
    41    36    34   ar
