@<TRIPOS>MOLECULE
3of9_I0X_A_1.pdb
 38 40 0 0 0
SMALL
GASTEIGER

@<TRIPOS>ATOM
      1  C10       20.6510  -21.7920    2.9850 C.2   501  I0X501      0.4219
      2  O2        19.6040  -21.7650    3.6490 O.2   501  I0X501     -0.2245
      3  O3        21.1070  -22.8640    2.5730 O.3   501  I0X501     -0.4285
      4  C11       20.4480  -24.0880    2.8090 C.3   501  I0X501      0.2368
      5  C12       21.1070  -25.1780    1.9470 C.ar  501  I0X501      0.0213
      6  C13       21.8990  -26.1750    2.5700 C.ar  501  I0X501     -0.0007
      7  C14       22.5330  -27.1230    1.7630 C.ar  501  I0X501     -0.0002
      8  C15       22.3860  -27.0570    0.3740 C.ar  501  I0X501     -0.0000
      9  C16       21.6120  -26.0720   -0.2220 C.ar  501  I0X501     -0.0002
     10  C17       20.9630  -25.1100    0.5840 C.ar  501  I0X501     -0.0007
     11  N1        21.4040  -20.6400    2.6610 N.am  501  I0X501     -0.1607
     12  C1        20.8440  -19.4340    3.1200 C.3   501  I0X501      0.1804
     13  C2        19.8100  -18.9740    2.1520 C.2   501  I0X501      0.2620
     14  O1        19.8400  -19.3020    0.9400 O.2   501  I0X501     -0.2715
     15  C3        21.9860  -18.3920    3.1680 C.3   501  I0X501      0.0575
     16  C4        23.2720  -18.8890    3.8420 C.ar  501  I0X501     -0.0200
     17  C9        23.2270  -19.2990    5.1760 C.ar  501  I0X501     -0.0042
     18  C5        24.5020  -18.9070    3.1150 C.ar  501  I0X501     -0.0042
     19  C6        24.3700  -19.7350    5.7830 C.ar  501  I0X501     -0.0003
     20  C7        25.6730  -19.3530    3.7510 C.ar  501  I0X501     -0.0003
     21  C8        25.6430  -19.7650    5.0370 C.ar  501  I0X501     -0.0000
     22  N2        18.7490  -18.1940    2.6520 N.am  501  I0X501     -0.1978
     23  C18       15.6890  -17.5980    3.2370 C.ar  501  I0X501     -0.0198
     24  O4        14.2510  -15.4350    6.4500 O.3   501  I0X501     -0.4826
     25  C19       14.7220  -16.1640    5.3770 C.ar  501  I0X501      0.1382
     26  C20       16.2550  -18.3680    2.0430 C.3   501  I0X501      0.0555
     27  C23       14.1530  -13.0830    5.8370 C.3   501  I0X501      0.0436
     28  C22       14.3400  -13.8510    8.1520 C.3   501  I0X501      0.0436
     29  C21       16.2730  -14.0740    6.7080 C.3   501  I0X501      0.0436
     30  C24       14.7520  -14.1510    6.7720 C.3   501  I0X501      0.1334
     31  C26       17.6770  -16.1890    1.4700 C.2   501  I0X501      0.1710
     32  C25       17.6910  -17.6770    1.6240 C.3   501  I0X501      0.1566
     33  C27       16.1500  -17.8910    4.5320 C.ar  501  I0X501     -0.0011
     34  C28       14.7710  -16.5920    3.0120 C.ar  501  I0X501     -0.0011
     35  C29       15.6490  -17.1620    5.5940 C.ar  501  I0X501      0.0366
     36  C30       14.2850  -15.8680    4.0730 C.ar  501  I0X501      0.0366
     37  O5        17.0110  -15.6980    0.6190 O.2   501  I0X501     -0.2942
     38  C31       18.5320  -15.3170    2.4230 C.3   501  I0X501      0.0741
@<TRIPOS>BOND
     1     9     8   ar
     2     9    10   ar
     3     8     7   ar
     4    10     5   ar
     5    37    31    2
     6    14    13    2
     7    31    32    1
     8    31    38    1
     9    32    26    1
    10    32    22    1
    11     7     6   ar
    12     5     6   ar
    13     5     4    1
    14    26    23    1
    15    13    22   am
    16    13    12    1
    17     3     4    1
    18     3     1    1
    19    11     1   am
    20    11    12    1
    21     1     2    2
    22    34    23   ar
    23    34    36   ar
    24    18    20   ar
    25    18    16   ar
    26    12    15    1
    27    15    16    1
    28    23    33   ar
    29    20    21   ar
    30    16    17   ar
    31    36    25   ar
    32    33    35   ar
    33    21    19   ar
    34    17    19   ar
    35    25    35   ar
    36    25    24    1
    37    27    30    1
    38    24    30    1
    39    29    30    1
    40    30    28    1
