@<TRIPOS>MOLECULE
3ofi_III_C_1.pdb
 25 24 0 0 0
SMALL
GASTEIGER

@<TRIPOS>ATOM
      1  N        109.2640  -65.0110    5.1600 N.3     1  MET1       -0.1230
      2  CA       109.0320  -65.9940    6.2310 C.3     1  MET1        0.1702
      3  C        108.4110  -67.2750    5.6900 C.2     1  MET1        0.2592
      4  O        107.8230  -67.2760    4.6220 O.2     1  MET1       -0.2718
      5  CB       108.1820  -65.4020    7.3590 C.3     1  MET1        0.0401
      6  CG       106.6880  -65.5650    7.1560 C.3     1  MET1        0.0596
      7  SD       105.5780  -64.3870    8.0090 S.3     1  MET1       -0.1393
      8  CE       105.7670  -62.7910    7.0810 C.3     1  MET1        0.0692
      9  N        108.5500  -68.3610    6.4440 N.am    2  GLN2       -0.1966
     10  CA       107.9710  -69.6330    6.0470 C.3     2  GLN2        0.1733
     11  C        106.5290  -69.7910    6.5090 C.2     2  GLN2        0.2616
     12  O        106.2120  -69.3920    7.6320 O.2     2  GLN2       -0.2715
     13  CB       108.7480  -70.7660    6.6490 C.3     2  GLN2        0.0408
     14  CG       108.4580  -72.0120    5.9020 C.3     2  GLN2        0.0908
     15  CD       109.1890  -73.1660    6.4920 C.2     2  GLN2        0.2608
     16  OE1      108.5870  -74.1990    6.8030 O.2     2  GLN2       -0.2717
     17  NE2      110.4940  -72.9910    6.7080 N.am    2  GLN2       -0.0878
     18  N        105.6430  -70.3680    5.6770 N.am    3  ILE3       -0.1977
     19  CA       104.2410  -70.4680    6.1400 C.3     3  ILE3        0.1596
     20  C        104.1260  -71.5450    7.2380 C.2     3  ILE3        0.2287
     21  O        104.7700  -72.5800    7.1300 O.2     3  ILE3       -0.2864
     22  CB       103.1810  -70.5820    4.9640 C.3     3  ILE3        0.0276
     23  CG1      101.7020  -70.3970    5.4550 C.3     3  ILE3        0.0022
     24  CG2      103.4180  -71.7840    4.1680 C.3     3  ILE3        0.0022
     25  CD1      100.7150  -71.5160    5.0290 C.3     3  ILE3        0.0001
@<TRIPOS>BOND
     1    24    22    1
     2     4     3    2
     3    22    23    1
     4    22    19    1
     5    25    23    1
     6     1     2    1
     7    18    19    1
     8    18    11   am
     9     3     2    1
    10     3     9   am
    11    14    15    1
    12    14    13    1
    13    10     9    1
    14    10    11    1
    15    10    13    1
    16    19    20    1
    17     2     5    1
    18    15    17   am
    19    15    16    2
    20    11    12    2
    21     8     7    1
    22    21    20    2
    23     6     5    1
    24     6     7    1
