@<TRIPOS>MOLECULE
3ofk_SAH_A_1.pdb
 26 28 0 0 0
SMALL
GASTEIGER

@<TRIPOS>ATOM
      1  N         26.9970   29.8950   42.2280 N.3   217  SAH217     -0.1208
      2  CA        28.2000   30.6570   42.5460 C.3   217  SAH217      0.1952
      3  CB        29.2930   29.7140   43.0420 C.3   217  SAH217      0.0422
      4  CG        29.8880   28.6950   42.0830 C.3   217  SAH217      0.0597
      5  SD        31.3340   27.7840   42.7290 S.3   217  SAH217     -0.1375
      6  C         28.7230   31.5110   41.3800 C.2   217  SAH217      0.3819
      7  O         28.3160   31.3390   40.2290 O.co2 217  SAH217     -0.2441
      8  OXT       29.5620   32.3880   41.5780 O.co2 217  SAH217     -0.2441
      9  C5'       30.4410   26.2250   43.0400 C.3   217  SAH217      0.0899
     10  C4'       29.8280   26.0110   44.4100 C.3   217  SAH217      0.1630
     11  O4'       28.9760   24.8680   44.3490 O.3   217  SAH217     -0.3153
     12  C3'       30.8450   25.7540   45.5210 C.3   217  SAH217      0.2168
     13  O3'       30.4870   26.5050   46.6890 O.3   217  SAH217     -0.2175
     14  C2'       30.7130   24.2410   45.7590 C.3   217  SAH217      0.2569
     15  O2'       31.0380   23.8750   47.0780 O.3   217  SAH217     -0.2130
     16  C1'       29.2520   24.0390   45.4650 C.3   217  SAH217      0.3185
     17  N9        28.7850   22.6700   45.1480 N.pl3 217  SAH217     -0.1439
     18  C8        29.4150   21.7270   44.3760 C.3   217  SAH217      0.3377
     19  N7        28.6170   20.6400   44.3070 N.2   217  SAH217     -0.2095
     20  C5        27.4930   20.8680   45.0090 C.2   217  SAH217      0.2526
     21  C6        26.3640   20.0680   45.1850 C.2   217  SAH217      0.4393
     22  N6        26.3630   18.8050   44.6740 N.pl3 217  SAH217      0.2180
     23  N1        25.3390   20.5610   45.9540 N.2   217  SAH217      0.0021
     24  C2        25.4220   21.8450   46.4830 C.3   217  SAH217      0.5254
     25  N3        26.5450   22.6370   46.2660 N.2   217  SAH217     -0.0055
     26  C4        27.5650   22.1590   45.5190 C.2   217  SAH217      0.3518
@<TRIPOS>BOND
     1     7     6   ar
     2     6     8   ar
     3     6     2    1
     4     4     5    1
     5     4     3    1
     6     1     2    1
     7     2     3    1
     8     5     9    1
     9     9    10    1
    10    19    18    1
    11    19    20    2
    12    11    10    1
    13    11    16    1
    14    18    17    1
    15    10    12    1
    16    22    21    1
    17    20    21    1
    18    20    26    1
    19    17    16    1
    20    17    26    1
    21    21    23    2
    22    16    14    1
    23    26    25    2
    24    12    14    1
    25    12    13    1
    26    14    15    1
    27    23    24    1
    28    25    24    1
