@<TRIPOS>MOLECULE
3ofl_JHM_A_1.pdb
 15 15 0 0 0
SMALL
GASTEIGER

@<TRIPOS>ATOM
      1  S        -22.3030    6.4220  -45.9690 S.3   517  JHM517     -0.0001
      2  C1       -24.2790    3.0550  -49.9580 C.3   517  JHM517      0.2716
      3  O1       -25.6900    2.9990  -50.2770 O.3   517  JHM517     -0.1898
      4  C2       -23.8430    1.7170  -49.3830 C.3   517  JHM517      0.0999
      5  C3       -24.7040    1.4600  -48.1450 C.3   517  JHM517      0.1898
      6  O3       -24.3850    0.2040  -47.6060 O.3   517  JHM517     -0.2201
      7  C4       -24.3680    2.5700  -47.1140 C.3   517  JHM517      0.2118
      8  O4       -25.1500    2.4090  -45.9520 O.3   517  JHM517     -0.2177
      9  C5       -24.7260    3.9270  -47.7850 C.3   517  JHM517      0.1825
     10  O5       -24.0300    4.0900  -49.0240 O.3   517  JHM517     -0.3255
     11  C6       -24.4220    5.1780  -46.9620 C.3   517  JHM517      0.2046
     12  O6       -23.0330    5.2810  -46.7690 O.3   517  JHM517     -0.2384
     13  O7       -23.1350    6.6900  -44.8140 O.3   517  JHM517     -0.2682
     14  O8       -21.0020    5.9000  -45.6040 O.2   517  JHM517     -0.3452
     15  O9       -22.2360    7.5490  -46.8760 O.2   517  JHM517     -0.3452
@<TRIPOS>BOND
     1     3     2    1
     2     2     4    1
     3     2    10    1
     4     4     5    1
     5    10     9    1
     6     5     6    1
     7     5     7    1
     8     9     7    1
     9     9    11    1
    10     7     8    1
    11    11    12    1
    12    15     1    2
    13    12     1    1
    14     1    14    2
    15     1    13    1
