@<TRIPOS>MOLECULE
3ofl_IDS_A_1.pdb
 15 15 0 0 0
SMALL
GASTEIGER

@<TRIPOS>ATOM
      1  C1       -51.6540   21.2370    8.5110 C.3   544  IDS544      0.1772
      2  C2       -50.4740   22.0580    8.0800 C.3   544  IDS544      0.2028
      3  C3       -50.7430   22.9170    6.8460 C.3   544  IDS544      0.1868
      4  C4       -52.0780   23.6330    6.9130 C.3   544  IDS544      0.0768
      5  C5       -53.1200   22.6130    7.2440 C.3   544  IDS544      0.2204
      6  C6       -54.5480   23.1470    7.1670 C.2   544  IDS544      0.3914
      7  O2       -50.1470   22.9060    9.0990 O.3   544  IDS544     -0.2385
      8  O3       -50.7690   22.0720    5.7250 O.3   544  IDS544     -0.2203
      9  O5       -52.8280   22.0310    8.5020 O.3   544  IDS544     -0.3422
     10  O61      -55.3140   23.0480    8.1250 O.co2 544  IDS544     -0.2430
     11  O62      -54.9570   23.6900    6.1320 O.co2 544  IDS544     -0.2430
     12  S        -48.8640   22.8960    9.9340 S.3   544  IDS544     -0.0001
     13  O1S      -47.8060   22.9290    8.9800 O.2   544  IDS544     -0.3452
     14  O2S      -48.9320   24.0520   10.7620 O.3   544  IDS544     -0.2682
     15  O3S      -48.8880   21.6910   10.6820 O.2   544  IDS544     -0.3452
@<TRIPOS>BOND
     1     8     3    1
     2    11     6   ar
     3     3     4    1
     4     3     2    1
     5     4     5    1
     6     6     5    1
     7     6    10   ar
     8     5     9    1
     9     2     1    1
    10     2     7    1
    11     9     1    1
    12    13    12    2
    13     7    12    1
    14    12    15    2
    15    12    14    1
