@<TRIPOS>MOLECULE
3ofm_4B0_A_1.pdb
 17 18 0 0 0
SMALL
GASTEIGER

@<TRIPOS>ATOM
      1  OAA        3.7310  -11.4480    4.6080 O.3   351  4B0351     -0.2204
      2 BRAB       -1.8870  -12.5080   11.3870 Br    351  4B0351     -0.0519
      3 BRAC        1.1680  -12.0410   10.4910 Br    351  4B0351     -0.0482
      4 BRAD       -4.2550  -13.3920    9.1730 Br    351  4B0351     -0.0697
      5 BRAE        2.0040  -12.4680    7.2590 Br    351  4B0351     -0.0471
      6  CAF        2.6940  -12.2720    4.0040 C.3   351  4B0351      0.1839
      7  CAG        1.3240  -12.0590    4.6960 C.3   351  4B0351      0.0590
      8  CAH        0.3960  -13.2920    4.6110 C.3   351  4B0351      0.1183
      9  NAI       -2.7030  -13.6270    6.1770 N.2   351  4B0351     -0.1454
     10  NAJ       -1.8990  -13.6360    5.2320 N.pl3 351  4B0351     -0.0447
     11  CAK       -1.4540  -12.7500    9.5580 C.2   351  4B0351      0.0351
     12  CAL       -0.1240  -12.5510    9.1710 C.2   351  4B0351      0.0454
     13  CAM       -2.4370  -13.1230    8.6270 C.3   351  4B0351      0.1287
     14  CAN        0.2250  -12.7230    7.8280 C.2   351  4B0351      0.0571
     15  CAO       -2.0550  -13.2900    7.2900 C.2   351  4B0351      0.1097
     16  CAP       -0.7370  -13.0920    6.8910 C.2   351  4B0351      0.0913
     17  NAQ       -0.7490  -13.3240    5.5780 N.pl3 351  4B0351     -0.2013
@<TRIPOS>BOND
     1     6     1    1
     2     6     7    1
     3     8     7    1
     4     8    17    1
     5    10    17    1
     6    10     9    1
     7    17    16    1
     8     9    15    2
     9    16    15    1
    10    16    14    2
    11     5    14    1
    12    15    13    1
    13    14    12    1
    14    13     4    1
    15    13    11    1
    16    12    11    2
    17    12     3    1
    18    11     2    1
