@<TRIPOS>MOLECULE
3ofn_ANP_A_1.pdb
 31 33 0 0 0
SMALL
GASTEIGER

@<TRIPOS>ATOM
      1  PG        -1.0100   14.9200   59.2580 P.3   600  ANP600      0.4884
      2  O1G       -0.1650   14.2420   58.2080 O.2   600  ANP600     -0.2331
      3  O2G       -1.3150   14.0170   60.4140 O.3   600  ANP600     -0.1240
      4  O3G       -0.6000   16.3120   59.6300 O.3   600  ANP600     -0.1240
      5  PB        -3.7660   13.9720   58.8580 P.3   600  ANP600      0.4669
      6  O1B       -3.5460   12.8770   57.8520 O.2   600  ANP600     -0.2351
      7  O2B       -3.7340   13.6700   60.3390 O.3   600  ANP600     -0.1253
      8  N3B       -2.5630   15.1730   58.5470 N.3   600  ANP600     -0.0163
      9  PA        -5.7630   15.8360   59.3540 P.3   600  ANP600      0.2220
     10  O1A       -6.8890   15.2730   60.1750 O.3   600  ANP600     -0.4370
     11  O2A       -4.6150   16.5060   60.0530 O.2   600  ANP600     -0.5170
     12  O3A       -5.1660   14.6460   58.4740 O.3   600  ANP600     -0.2360
     13  O5'       -6.3930   16.8000   58.2420 O.3   600  ANP600     -0.3111
     14  C5'       -5.6250   17.8210   57.6170 C.3   600  ANP600      0.1813
     15  C4'       -6.4600   19.0810   57.3950 C.3   600  ANP600      0.1821
     16  O4'       -7.7400   18.7910   56.8170 O.3   600  ANP600     -0.3135
     17  C3'       -6.7630   19.7710   58.7010 C.3   600  ANP600      0.2184
     18  O3'       -6.7850   21.1690   58.4090 O.3   600  ANP600     -0.2174
     19  C2'       -8.1410   19.2440   59.0380 C.3   600  ANP600      0.2570
     20  O2'       -8.8640   20.0840   59.9240 O.3   600  ANP600     -0.2130
     21  C1'       -8.7900   19.2300   57.6800 C.3   600  ANP600      0.3186
     22  N9        -9.9630   18.3220   57.6200 N.pl3 600  ANP600     -0.1439
     23  C8       -10.0230   17.0450   58.0360 C.3   600  ANP600      0.3377
     24  N7       -11.2500   16.5150   57.8180 N.2   600  ANP600     -0.2095
     25  C5       -12.0010   17.4680   57.2410 C.2   600  ANP600      0.2526
     26  C6       -13.3900   17.5780   56.7430 C.2   600  ANP600      0.4393
     27  N6       -14.2590   16.5420   56.8240 N.pl3 600  ANP600      0.2180
     28  N1       -13.7630   18.7600   56.2120 N.2   600  ANP600      0.0021
     29  C2       -12.9290   19.8160   56.1220 C.3   600  ANP600      0.5254
     30  N3       -11.6610   19.7900   56.5550 N.2   600  ANP600     -0.0055
     31  C4       -11.1500   18.6600   57.1130 C.2   600  ANP600      0.3518
@<TRIPOS>BOND
     1    29    28    1
     2    29    30    1
     3    28    26    2
     4    30    31    2
     5    26    27    1
     6    26    25    1
     7    16    15    1
     8    16    21    1
     9    31    25    1
    10    31    22    1
    11    25    24    2
    12    15    14    1
    13    15    17    1
    14    14    13    1
    15    22    21    1
    16    22    23    1
    17    21    19    1
    18    24    23    1
    19     6     5    2
    20     2     1    2
    21    13     9    1
    22    18    17    1
    23    12     5    1
    24    12     9    1
    25     8     5    1
    26     8     1    1
    27    17    19    1
    28     5     7    1
    29    19    20    1
    30     1     4    1
    31     1     3    1
    32     9    11    2
    33     9    10    1
