@<TRIPOS>MOLECULE
3ofs_AVU_A_1.pdb
 35 38 0 0 0
SMALL
GASTEIGER

@<TRIPOS>ATOM
      1  N1       -31.7470   -4.2610    5.9040 N.2   301  AVU301      0.0021
      2  C2       -31.2990   -4.5750    4.6880 C.3   301  AVU301      0.5254
      3  N3       -30.0970   -4.1980    4.2860 N.2   301  AVU301     -0.0055
      4  C4       -29.2940   -3.4910    5.1150 C.2   301  AVU301      0.3518
      5  C5       -29.7240   -3.1460    6.3880 C.2   301  AVU301      0.2526
      6  C6       -31.0000   -3.5560    6.7820 C.2   301  AVU301      0.4393
      7  N6       -31.4780   -3.2580    8.0010 N.pl3 301  AVU301      0.2180
      8  N7       -28.7460   -2.4540    6.9680 N.2   301  AVU301     -0.2095
      9  C8       -27.7360   -2.3700    6.0980 C.3   301  AVU301      0.3377
     10  N9       -28.0750   -2.9960    4.9640 N.pl3 301  AVU301     -0.1439
     11  PA       -21.9730   -2.7000    5.6500 P.3   301  AVU301      0.2189
     12  PB       -22.4890   -2.6720    8.4950 P.3   301  AVU301      0.2189
     13  C1'      -27.2570   -3.1830    3.7330 C.3   301  AVU301      0.3186
     14  O1A      -21.1490   -1.5690    5.1770 O.2   301  AVU301     -0.5170
     15  O1B      -21.1250   -2.3340    8.9410 O.3   301  AVU301     -0.4371
     16  C1R      -25.9410    1.2690   10.4070 C.3   301  AVU301      0.1801
     17  C2'      -27.3880   -2.0930    2.6840 C.3   301  AVU301      0.2570
     18  O2'      -27.4800   -2.7320    1.3930 O.3   301  AVU301     -0.2130
     19  O2A      -21.3580   -4.0240    5.8610 O.3   301  AVU301     -0.4371
     20  O2B      -23.0200   -4.0340    8.6910 O.2   301  AVU301     -0.5170
     21  C2R      -26.5330    0.6260   11.6550 C.3   301  AVU301      0.2229
     22  F2R      -27.8920    0.8690   11.7620 F     301  AVU301     -0.2317
     23  C3'      -26.0880   -1.2840    2.8540 C.3   301  AVU301      0.2184
     24  O3'      -25.6970   -0.6480    1.6250 O.3   301  AVU301     -0.2174
     25  O3A      -22.7910   -2.2070    6.9830 O.3   301  AVU301     -0.2703
     26  C3R      -26.2690   -0.8540   11.4540 C.3   301  AVU301      0.2162
     27  O3R      -26.1520   -1.4620   12.7360 O.3   301  AVU301     -0.2174
     28  C4'      -25.0920   -2.3780    3.2290 C.3   301  AVU301      0.1821
     29  O4'      -25.8460   -3.2560    4.1140 O.3   301  AVU301     -0.3135
     30  C4R      -24.9010   -0.8050   10.7840 C.3   301  AVU301      0.1782
     31  O4R      -24.8750    0.3760    9.9650 O.3   301  AVU301     -0.3480
     32  C5'      -23.8820   -1.8390    4.0210 C.3   301  AVU301      0.1813
     33  O5'      -23.1410   -2.9240    4.5570 O.3   301  AVU301     -0.3112
     34  C5R      -24.6500   -1.8770    9.7700 C.3   301  AVU301      0.1812
     35  O5R      -23.3570   -1.6150    9.2720 O.3   301  AVU301     -0.3112
@<TRIPOS>BOND
     1    18    17    1
     2    24    23    1
     3    17    23    1
     4    17    13    1
     5    23    28    1
     6    28    32    1
     7    28    29    1
     8    13    29    1
     9    13    10    1
    10    32    33    1
    11     3     2    1
    12     3     4    2
    13    33    11    1
    14     2     1    1
    15    10     4    1
    16    10     9    1
    17     4     5    1
    18    14    11    2
    19    11    19    1
    20    11    25    1
    21     1     6    2
    22     9     8    1
    23     5     6    1
    24     5     8    2
    25     6     7    1
    26    25    12    1
    27    12    20    2
    28    12    15    1
    29    12    35    1
    30    35    34    1
    31    34    30    1
    32    31    16    1
    33    31    30    1
    34    16    21    1
    35    30    26    1
    36    26    21    1
    37    26    27    1
    38    21    22    1
