@<TRIPOS>MOLECULE
3oft_HEM_A_1.pdb
 43 50 0 0 0
SMALL
GASTEIGER

@<TRIPOS>ATOM
      1  CHA        5.9020   -6.1270   19.6980 C.2   417  HEM417      0.0000
      2  CHB       10.1010   -7.5200   21.7310 C.2   417  HEM417      0.0000
      3  CHC       12.2490   -7.2450   17.4170 C.2   417  HEM417      0.0000
      4  CHD        8.4290   -4.9030   15.6770 C.2   417  HEM417      0.0000
      5  C1A        6.8490   -6.5960   20.5900 C.2   417  HEM417      0.0000
      6  C2A        6.5720   -6.9650   21.9580 C.2   417  HEM417      0.0000
      7  C3A        7.7010   -7.3530   22.5400 C.2   417  HEM417      0.0000
      8  C4A        8.7750   -7.2090   21.5550 C.2   417  HEM417      0.0000
      9  CMA        7.8240   -7.7840   24.0230 C.3   417  HEM417      0.0000
     10  CAA        5.1670   -6.9640   22.6280 C.3   417  HEM417      0.0000
     11  CBA        4.8720   -5.5520   23.0820 C.3   417  HEM417      0.0000
     12  CGA        3.5630   -5.4560   23.8520 C.2   417  HEM417      0.0000
     13  O1A        3.1430   -4.2990   24.1680 O.co2 417  HEM417      0.0000
     14  O2A        2.8950   -6.4860   24.1820 O.co2 417  HEM417      0.0000
     15  C1B       11.0690   -7.5870   20.7380 C.ar  417  HEM417      0.0000
     16  C2B       12.4150   -8.0740   20.8980 C.ar  417  HEM417      0.0000
     17  C3B       12.9950   -7.9920   19.6840 C.ar  417  HEM417      0.0000
     18  C4B       12.0250   -7.4530   18.7510 C.ar  417  HEM417      0.0000
     19  CMB       12.9990   -8.5820   22.2290 C.3   417  HEM417      0.0000
     20  CAB       14.4130   -8.3240   19.2100 C.2   417  HEM417      0.0000
     21  CBB       15.3890   -8.7460   20.0350 C.2   417  HEM417      0.0000
     22  C1C       11.4470   -6.5960   16.5250 C.2   417  HEM417      0.0000
     23  C2C       11.7170   -6.3540   15.1140 C.2   417  HEM417      0.0000
     24  C3C       10.6370   -5.6630   14.6520 C.2   417  HEM417      0.0000
     25  C4C        9.6560   -5.5550   15.7070 C.2   417  HEM417      0.0000
     26  CMC       13.0230   -6.7750   14.3670 C.3   417  HEM417      0.0000
     27  CAC       10.3070   -5.1390   13.2330 C.2   417  HEM417      0.0000
     28  CBC       11.2450   -4.7440   12.3790 C.2   417  HEM417      0.0000
     29  C1D        7.4090   -5.0430   16.5600 C.ar  417  HEM417      0.0000
     30  C2D        6.0670   -4.5220   16.3420 C.ar  417  HEM417      0.0000
     31  C3D        5.2860   -4.9460   17.5720 C.ar  417  HEM417      0.0000
     32  C4D        6.2030   -5.6320   18.4390 C.ar  417  HEM417      0.0000
     33  CMD        5.5340   -3.7550   15.0800 C.3   417  HEM417      0.0000
     34  CAD        3.7780   -4.6340   17.7970 C.3   417  HEM417      0.0000
     35  CBD        3.0290   -5.9450   17.5020 C.3   417  HEM417      0.0000
     36  CGD        1.5730   -5.6920   17.9080 C.2   417  HEM417      0.0000
     37  O1D        1.2630   -4.7360   18.6480 O.co2 417  HEM417      0.0000
     38  O2D        0.6920   -6.4780   17.5440 O.co2 417  HEM417      0.0000
     39  NA         8.2150   -6.7790   20.3660 N.2   417  HEM417      0.0000
     40  NB        10.8720   -7.2700   19.4100 N.ar  417  HEM417      0.0000
     41  NC        10.1740   -6.1400   16.8290 N.2   417  HEM417      0.0000
     42  ND         7.4550   -5.6630   17.8040 N.ar  417  HEM417      0.0000
     43 FE          9.1570   -6.5310   18.5790 Fe    417  HEM417      0.0000
@<TRIPOS>BOND
     1    28    27    2
     2    27    24    1
     3    26    23    1
     4    24    23    2
     5    24    25    1
     6    33    30    1
     7    23    22    1
     8     4    25    1
     9     4    29    2
    10    25    41    2
    11    30    29   ar
    12    30    31   ar
    13    22    41    1
    14    22     3    2
    15    29    42   ar
    16    41    43    1
    17     3    18    1
    18    35    34    1
    19    35    36    1
    20    38    36   ar
    21    31    34    1
    22    31    32   ar
    23    42    32   ar
    24    42    43    1
    25    36    37   ar
    26    32     1    2
    27    43    40    1
    28    43    39    1
    29    18    40   ar
    30    18    17   ar
    31    20    17    1
    32    20    21    2
    33    40    15   ar
    34    17    16   ar
    35     1     5    1
    36    39     5    2
    37    39     8    1
    38     5     6    1
    39    15    16   ar
    40    15     2    1
    41    16    19    1
    42     8     2    2
    43     8     7    1
    44     6     7    2
    45     6    10    1
    46     7     9    1
    47    10    11    1
    48    11    12    1
    49    12    13   ar
    50    12    14   ar
