@<TRIPOS>MOLECULE
3ofu_ID3_A_1.pdb
 14 14 0 0 0
SMALL
GASTEIGER

@<TRIPOS>ATOM
      1  C1        10.2350   12.5520   29.0420 C.3   397  ID3397      0.0183
      2  O1         7.8360   14.0450   34.6450 O.2   397  ID3397     -0.2913
      3  C2        10.0680   11.7320   27.7340 C.3   397  ID3397      0.0044
      4  C3         8.8550   12.1340   26.8160 C.3   397  ID3397      0.0047
      5  C4         7.8580   13.0750   27.5540 C.3   397  ID3397      0.0217
      6  C5         7.7880   12.8720   29.1060 C.2   397  ID3397     -0.0479
      7  C6         8.9150   12.7010   29.8800 C.2   397  ID3397     -0.0306
      8  C7         8.9550   12.6270   31.4300 C.2   397  ID3397     -0.0020
      9  C8         8.5520   13.5850   32.3530 C.2   397  ID3397      0.0371
     10  C9         8.6710   13.5700   33.8950 C.2   397  ID3397      0.1736
     11  C16       11.3160   11.9860   30.0000 C.3   397  ID3397      0.0043
     12  C17       10.6830   13.9260   28.5150 C.3   397  ID3397      0.0043
     13  C18        6.4290   12.8200   29.7300 C.3   397  ID3397      0.0260
     14  C19        9.8940   13.0130   34.5510 C.3   397  ID3397      0.0773
@<TRIPOS>BOND
     1     4     5    1
     2     4     3    1
     3     5     6    1
     4     3     1    1
     5    12     1    1
     6     1     7    1
     7     1    11    1
     8     6    13    1
     9     6     7    2
    10     7     8    1
    11     8     9    2
    12     9    10    1
    13    10    14    1
    14    10     2    2
