@<TRIPOS>MOLECULE
3ofu_HEM_A_1.pdb
 43 50 0 0 0
SMALL
GASTEIGER

@<TRIPOS>ATOM
      1  CHA        6.5380    9.2990   22.9680 C.2   417  HEM417      0.0000
      2  CHB        7.8560   13.7340   21.9060 C.2   417  HEM417      0.0000
      3  CHC        3.2250   14.8230   21.9890 C.2   417  HEM417      0.0000
      4  CHD        2.1260   10.7860   24.4360 C.2   417  HEM417      0.0000
      5  C1A        7.2550   10.3610   22.6120 C.ar  417  HEM417      0.0000
      6  C2A        8.6770   10.2890   22.1870 C.ar  417  HEM417      0.0000
      7  C3A        9.0220   11.5470   21.8510 C.ar  417  HEM417      0.0000
      8  C4A        7.8550   12.3870   22.0750 C.ar  417  HEM417      0.0000
      9  CMA       10.4400   12.0060   21.3810 C.3   417  HEM417      0.0000
     10  CAA        9.5930    9.0610   22.1260 C.3   417  HEM417      0.0000
     11  CBA       10.0870    8.9310   23.4970 C.3   417  HEM417      0.0000
     12  CGA       11.0860    7.7780   23.6490 C.2   417  HEM417      0.0000
     13  O1A       11.6850    7.6020   24.7860 O.co2 417  HEM417      0.0000
     14  O2A       11.3930    6.9970   22.7080 O.co2 417  HEM417      0.0000
     15  C1B        6.7080   14.4170   21.7910 C.2   417  HEM417      0.0000
     16  C2B        6.6150   15.7190   21.2340 C.2   417  HEM417      0.0000
     17  C3B        5.2800   15.9630   21.2400 C.2   417  HEM417      0.0000
     18  C4B        4.5750   14.8530   21.8090 C.2   417  HEM417      0.0000
     19  CMB        7.7850   16.5740   20.7340 C.3   417  HEM417      0.0000
     20  CAB        4.5200   17.2080   20.7620 C.2   417  HEM417      0.0000
     21  CBB        4.9960   18.4110   21.1780 C.2   417  HEM417      0.0000
     22  C1C        2.5200   13.8390   22.6600 C.ar  417  HEM417      0.0000
     23  C2C        1.0810   13.8510   22.8260 C.ar  417  HEM417      0.0000
     24  C3C        0.8290   12.7240   23.5130 C.ar  417  HEM417      0.0000
     25  C4C        2.0380   12.0110   23.7750 C.ar  417  HEM417      0.0000
     26  CMC        0.1400   14.9580   22.2270 C.3   417  HEM417      0.0000
     27  CAC       -0.5420   12.0750   23.9540 C.2   417  HEM417      0.0000
     28  CBC       -1.5940   12.8130   24.3380 C.2   417  HEM417      0.0000
     29  C1D        3.2500    9.9580   24.2400 C.2   417  HEM417      0.0000
     30  C2D        3.4180    8.5590   24.7450 C.2   417  HEM417      0.0000
     31  C3D        4.7950    8.0730   24.1940 C.2   417  HEM417      0.0000
     32  C4D        5.3580    9.2680   23.5440 C.2   417  HEM417      0.0000
     33  CMD        2.4700    7.6400   25.5830 C.3   417  HEM417      0.0000
     34  CAD        5.4250    6.6980   24.4350 C.2   417  HEM417      0.0000
     35  CBD        5.2740    5.7310   23.3160 C.2   417  HEM417      0.0000
     36  CGD        5.8620    4.2600   23.4690 C.2   417  HEM417      0.0000
     37  O1D        6.8120    3.8860   24.2120 O.co2 417  HEM417      0.0000
     38  O2D        5.4140    3.3740   22.7170 O.co2 417  HEM417      0.0000
     39  NA         6.8040   11.6130   22.4650 N.ar  417  HEM417      0.0000
     40  NB         5.4830   13.9170   22.1460 N.2   417  HEM417      0.0000
     41  NC         3.0560   12.7330   23.2070 N.ar  417  HEM417      0.0000
     42  ND         4.4560   10.2920   23.5100 N.2   417  HEM417      0.0000
     43 FE          4.9950   12.0830   22.7340 Fe    417  HEM417      0.0000
@<TRIPOS>BOND
     1    19    16    1
     2    20    21    2
     3    20    17    1
     4    16    17    2
     5    16    15    1
     6    17    18    1
     7     9     7    1
     8    15     2    1
     9    15    40    2
    10    18     3    2
    11    18    40    1
    12     7     8   ar
    13     7     6   ar
    14     2     8    2
    15     3    22    1
    16     8    39   ar
    17    10     6    1
    18    10    11    1
    19    40    43    1
    20     6     5   ar
    21    26    23    1
    22    39     5   ar
    23    39    43    1
    24     5     1    2
    25    22    23   ar
    26    22    41   ar
    27    14    12   ar
    28    38    36   ar
    29    43    41    1
    30    43    42    1
    31    23    24   ar
    32     1    32    1
    33    41    25   ar
    34    35    36    1
    35    35    34    2
    36    36    37   ar
    37    11    12    1
    38    42    32    2
    39    42    29    1
    40    24    25   ar
    41    24    27    1
    42    32    31    1
    43    12    13   ar
    44    25     4    1
    45    27    28    2
    46    31    34    1
    47    31    30    2
    48    29     4    2
    49    29    30    1
    50    30    33    1
