@<TRIPOS>MOLECULE
3og2_MAN_A_1.pdb
 11 11 0 0 0
SMALL
GASTEIGER

@<TRIPOS>ATOM
      1  C1        20.5780  -11.5870   -7.0080 C.3   1027  MAN1027     0.1777
      2  C2        19.8110  -11.9930   -8.2580 C.3   1027  MAN1027     0.2141
      3  C3        20.5970  -13.1390   -8.9400 C.3   1027  MAN1027     0.2173
      4  C4        22.0330  -12.6540   -9.2620 C.3   1027  MAN1027     0.2142
      5  C5        22.7150  -12.2430   -7.9360 C.3   1027  MAN1027     0.1810
      6  C6        24.0940  -11.6420   -8.2320 C.3   1027  MAN1027     0.2141
      7  O2        19.7290  -10.8680   -9.1190 O.3   1027  MAN1027    -0.2176
      8  O3        19.9190  -13.4030  -10.2030 O.3   1027  MAN1027    -0.2175
      9  O4        22.7460  -13.7330   -9.8280 O.3   1027  MAN1027    -0.2176
     10  O5        21.9180  -11.2180   -7.3340 O.3   1027  MAN1027    -0.3481
     11  O6        24.7830  -11.4100   -6.9930 O.3   1027  MAN1027    -0.2176
@<TRIPOS>BOND
     1     8     3    1
     2     9     4    1
     3     4     3    1
     4     4     5    1
     5     7     2    1
     6     3     2    1
     7     2     1    1
     8     6     5    1
     9     6    11    1
    10     5    10    1
    11    10     1    1
