@<TRIPOS>MOLECULE
3og2_NAG_A_1.pdb
 14 14 0 0 0
SMALL
GASTEIGER

@<TRIPOS>ATOM
      1  C1        19.7070   -5.5620   -2.7890 C.3   1025  NAG1025     0.1665
      2  C2        19.9960   -6.2190   -4.1320 C.3   1025  NAG1025     0.1576
      3  C3        19.0350   -7.3570   -4.4030 C.3   1025  NAG1025     0.2069
      4  C4        19.0670   -8.3470   -3.2260 C.3   1025  NAG1025     0.2134
      5  C5        18.7730   -7.5760   -1.9220 C.3   1025  NAG1025     0.1809
      6  C6        18.9070   -8.4390   -0.6780 C.3   1025  NAG1025     0.2141
      7  C7        20.8610   -4.5430   -5.7140 C.2   1025  NAG1025     0.2420
      8  C8        20.5170   -3.3610   -6.5740 C.3   1025  NAG1025     0.0964
      9  N2        19.8320   -5.1960   -5.1850 N.am  1025  NAG1025    -0.2019
     10  O3        19.3380   -7.9890   -5.6090 O.3   1025  NAG1025    -0.2184
     11  O4        18.0180   -9.2960   -3.4420 O.3   1025  NAG1025    -0.2176
     12  O5        19.7860   -6.5610   -1.7910 O.3   1025  NAG1025    -0.3489
     13  O6        20.1550   -9.1100   -0.6470 O.3   1025  NAG1025    -0.2176
     14  O7        22.0340   -4.7950   -5.4040 O.2   1025  NAG1025    -0.2733
@<TRIPOS>BOND
     1     8     7    1
     2     7    14    2
     3     7     9   am
     4    10     3    1
     5     9     2    1
     6     3     2    1
     7     3     4    1
     8     2     1    1
     9    11     4    1
    10     4     5    1
    11     1    12    1
    12     5    12    1
    13     5     6    1
    14     6    13    1
