@<TRIPOS>MOLECULE
3og2_BMA_A_1.pdb
 11 11 0 0 0
SMALL
GASTEIGER

@<TRIPOS>ATOM
      1  C1        -3.5110  -21.6620   13.5790 C.3   1034  BMA1034     0.1777
      2  C2        -3.6170  -22.4080   12.2450 C.3   1034  BMA1034     0.2141
      3  C3        -5.0230  -22.1380   11.7220 C.3   1034  BMA1034     0.2173
      4  C4        -6.0960  -22.4590   12.7670 C.3   1034  BMA1034     0.2142
      5  C5        -5.7820  -21.7880   14.1360 C.3   1034  BMA1034     0.1810
      6  C6        -6.7100  -22.3520   15.2210 C.3   1034  BMA1034     0.2141
      7  O2        -3.4340  -23.8210   12.5230 O.3   1034  BMA1034    -0.2176
      8  O3        -5.3850  -22.8720   10.5480 O.3   1034  BMA1034    -0.2175
      9  O4        -7.3590  -21.8910   12.3160 O.3   1034  BMA1034    -0.2176
     10  O5        -4.4530  -22.2040   14.5100 O.3   1034  BMA1034    -0.3481
     11  O6        -6.5690  -23.7910   15.2020 O.3   1034  BMA1034    -0.2176
@<TRIPOS>BOND
     1     8     3    1
     2     3     2    1
     3     3     4    1
     4     2     7    1
     5     2     1    1
     6     9     4    1
     7     4     5    1
     8     1    10    1
     9     5    10    1
    10     5     6    1
    11    11     6    1
