@<TRIPOS>MOLECULE
3og2_GLC_A_1.pdb
 11 11 0 0 0
SMALL
GASTEIGER

@<TRIPOS>ATOM
      1  C1       -10.6280  -13.0360    0.9520 C.3   1043  GLC1043     0.1777
      2  C2       -10.6380  -12.7450   -0.5300 C.3   1043  GLC1043     0.2141
      3  C3       -10.7710  -11.3040   -0.9640 C.3   1043  GLC1043     0.2173
      4  C4       -11.6440  -10.4960   -0.0200 C.3   1043  GLC1043     0.2142
      5  C5       -11.1090  -10.7240    1.4100 C.3   1043  GLC1043     0.1810
      6  C6       -11.5910   -9.6630    2.3220 C.3   1043  GLC1043     0.2141
      7  O2        -9.4910  -13.2900   -1.1460 O.3   1043  GLC1043    -0.2176
      8  O3       -11.3240  -11.2960   -2.2690 O.3   1043  GLC1043    -0.2175
      9  O4       -11.5870   -9.1110   -0.3070 O.3   1043  GLC1043    -0.2176
     10  O5       -11.3040  -12.0800    1.7560 O.3   1043  GLC1043    -0.3481
     11  O6       -11.8040   -9.8430    3.6720 O.3   1043  GLC1043    -0.2176
@<TRIPOS>BOND
     1     8     3    1
     2     7     2    1
     3     3     2    1
     4     3     4    1
     5     2     1    1
     6     9     4    1
     7     4     5    1
     8     1    10    1
     9     5    10    1
    10     5     6    1
    11     6    11    1
