@<TRIPOS>MOLECULE
3og7_032_A_1.pdb
 33 36 0 0 0
SMALL
GASTEIGER

@<TRIPOS>ATOM
      1  C10        9.4540   -4.1760  -21.7350 C.ar    1  0321        0.0577
      2  C15        1.9340   -1.2310  -18.3570 C.2     1  0321        0.1134
      3  C17        1.5160   -2.3160  -20.5970 C.2     1  0321        0.2021
      4  C20       -0.8450   -3.0530  -20.4180 C.ar    1  0321        0.1619
      5  C21       -2.2070   -2.7780  -20.3740 C.ar    1  0321        0.1182
      6  C22       -2.6580   -1.4610  -20.4690 C.ar    1  0321        0.0226
      7  C24       -0.3870   -0.7200  -20.6490 C.ar    1  0321        0.1454
      8  C01        6.1300   -2.5620  -19.5770 C.2     1  0321        0.0206
      9  C02        6.3090   -1.9530  -18.3330 C.2     1  0321        0.1095
     10  N03        5.3540   -1.3930  -17.5580 N.2     1  0321       -0.1922
     11  C04        4.8250   -2.6070  -20.0890 C.2     1  0321        0.0117
     12  N14        2.9990   -0.9880  -17.5350 N.2     1  0321       -0.1921
     13  C16        2.3650   -1.8860  -19.4910 C.2     1  0321        0.0683
     14  C05        3.7810   -2.0440  -19.3350 C.2     1  0321        0.0671
     15  C06        4.1330   -1.4740  -18.1140 C.1     1  0321        0.0354
     16  C07        7.2690   -3.1240  -20.3170 C.ar    1  0321        0.0016
     17  C18        0.0730   -2.0290  -20.5490 C.ar    1  0321        0.0952
     18  C23       -1.7420   -0.4200  -20.6080 C.ar    1  0321        0.0313
     19  F25        0.4770    0.2870  -20.7820 F       1  0321       -0.2040
     20  F26       -0.4260   -4.3170  -20.3250 F       1  0321       -0.2026
     21  N27       -3.1160   -3.8770  -20.2300 N.pl3   1  0321       -0.0984
     22  S28       -4.8030   -3.5710  -20.1630 S.O2    1  0321        0.0732
     23  O29       -5.5100   -4.8280  -20.0310 O.2     1  0321       -0.1529
     24  O30       -5.2060   -2.5980  -21.1570 O.2     1  0321       -0.1529
     25  C31       -4.9970   -2.7740  -18.5710 C.3     1  0321        0.1744
     26  C32       -5.0160   -3.7200  -17.3780 C.3     1  0321        0.0274
     27  C33       -4.2770   -3.0960  -16.2050 C.3     1  0321        0.0019
     28  C08        7.1460   -4.3190  -21.0470 C.ar    1  0321        0.0009
     29  C09        8.2320   -4.8460  -21.7510 C.ar    1  0321        0.0114
     30  C11        9.6030   -2.9860  -21.0240 C.ar    1  0321        0.0114
     31  C12        8.5140   -2.4650  -20.3230 C.ar    1  0321        0.0009
     32 CL13       10.7950   -4.8200  -22.6010 Cl      1  0321       -0.0822
     33  O19        1.9420   -2.8980  -21.5920 O.2     1  0321       -0.2863
@<TRIPOS>BOND
     1    32     1    1
     2    29     1   ar
     3    29    28   ar
     4     1    30   ar
     5    33     3    2
     6    24    22    2
     7    28    16   ar
     8    30    31   ar
     9    19     7    1
    10     7    18   ar
    11     7    17   ar
    12    18     6   ar
    13     3    17    1
    14     3    13    1
    15    17     4   ar
    16     6     5   ar
    17     4     5   ar
    18     4    20    1
    19     5    21    1
    20    31    16   ar
    21    16     8    1
    22    21    22    1
    23    22    23    2
    24    22    25    1
    25    11     8    1
    26    11    14    2
    27     8     9    2
    28    13    14    1
    29    13     2    2
    30    14    15    1
    31    25    26    1
    32     2    12    1
    33     9    10    1
    34    15    10    2
    35    15    12    2
    36    26    27    1
