@<TRIPOS>MOLECULE
3ogb_HEM_A_1.pdb
 43 50 0 0 0
SMALL
GASTEIGER

@<TRIPOS>ATOM
      1  CHA       -2.6320    8.4310   81.9690 C.2   154  HEM154      0.0000
      2  CHB        0.0930    4.6800   80.4780 C.2   154  HEM154      0.0000
      3  CHC        2.0710    7.4310   76.9980 C.2   154  HEM154      0.0000
      4  CHD       -0.6840   11.1490   78.3820 C.2   154  HEM154      0.0000
      5  C1A       -2.0610    7.1860   81.8660 C.2   154  HEM154      0.0000
      6  C2A       -2.3620    6.0570   82.7080 C.2   154  HEM154      0.0000
      7  C3A       -1.6150    5.0210   82.3070 C.2   154  HEM154      0.0000
      8  C4A       -0.8110    5.4540   81.1880 C.2   154  HEM154      0.0000
      9  CMA       -1.6050    3.6080   82.9170 C.3   154  HEM154      0.0000
     10  CAA       -3.3840    6.0520   83.8600 C.3   154  HEM154      0.0000
     11  CBA       -4.6090    5.2460   83.4230 C.3   154  HEM154      0.0000
     12  CGA       -5.2200    5.7980   82.1480 C.2   154  HEM154      0.0000
     13  O1A       -5.7380    6.9430   82.1440 O.co2 154  HEM154      0.0000
     14  O2A       -5.2070    5.0730   81.1230 O.co2 154  HEM154      0.0000
     15  C1B        0.8640    5.0910   79.4100 C.ar  154  HEM154      0.0000
     16  C2B        1.8320    4.2840   78.7020 C.ar  154  HEM154      0.0000
     17  C3B        2.3630    5.0410   77.7260 C.ar  154  HEM154      0.0000
     18  C4B        1.7780    6.3600   77.8180 C.ar  154  HEM154      0.0000
     19  CMB        2.1150    2.8020   79.0290 C.3   154  HEM154      0.0000
     20  CAB        3.4610    4.6730   76.7100 C.2   154  HEM154      0.0000
     21  CBB        4.3750    3.7440   77.0010 C.2   154  HEM154      0.0000
     22  C1C        1.5520    8.7020   77.1060 C.2   154  HEM154      0.0000
     23  C2C        2.0070    9.8840   76.4070 C.2   154  HEM154      0.0000
     24  C3C        1.2430   10.9250   76.7960 C.2   154  HEM154      0.0000
     25  C4C        0.2830   10.4100   77.7460 C.2   154  HEM154      0.0000
     26  CMC        3.1790    9.8920   75.4060 C.3   154  HEM154      0.0000
     27  CAC        1.2960   12.4150   76.3850 C.2   154  HEM154      0.0000
     28  CBC        2.2060   12.9040   75.5360 C.2   154  HEM154      0.0000
     29  C1D       -1.4220   10.7660   79.4760 C.ar  154  HEM154      0.0000
     30  C2D       -2.2740   11.6690   80.1990 C.ar  154  HEM154      0.0000
     31  C3D       -2.8890   10.8350   81.3160 C.ar  154  HEM154      0.0000
     32  C4D       -2.3440    9.5090   81.1640 C.ar  154  HEM154      0.0000
     33  CMD       -2.4870   13.1630   79.8870 C.3   154  HEM154      0.0000
     34  CAD       -3.8550   11.3360   82.3980 C.3   154  HEM154      0.0000
     35  CBD       -3.0180   12.2420   83.2970 C.3   154  HEM154      0.0000
     36  CGD       -3.8560   12.7900   84.4240 C.2   154  HEM154      0.0000
     37  O1D       -3.3930   13.7360   85.1050 O.co2 154  HEM154      0.0000
     38  O2D       -4.9840   12.2880   84.6430 O.co2 154  HEM154      0.0000
     39  NA        -1.1110    6.7820   80.9420 N.2   154  HEM154      0.0000
     40  NB         0.8550    6.3480   78.8410 N.ar  154  HEM154      0.0000
     41  NC         0.4950    9.0590   77.9160 N.2   154  HEM154      0.0000
     42  ND        -1.4830    9.5070   80.0680 N.ar  154  HEM154      0.0000
     43 FE         -0.4790    7.8440   79.2620 Fe    154  HEM154      0.0000
@<TRIPOS>BOND
     1    26    23    1
     2    28    27    2
     3    27    24    1
     4    23    24    2
     5    23    22    1
     6    20    21    2
     7    20    17    1
     8    24    25    1
     9     3    22    2
    10     3    18    1
    11    22    41    1
    12    17    18   ar
    13    17    16   ar
    14    25    41    2
    15    25     4    1
    16    18    40   ar
    17    41    43    1
    18     4    29    2
    19    16    19    1
    20    16    15   ar
    21    40    43    1
    22    40    15   ar
    23    43    42    1
    24    43    39    1
    25    15     2    1
    26    29    42   ar
    27    29    30   ar
    28    33    30    1
    29    42    32   ar
    30    30    31   ar
    31     2     8    2
    32    39     8    1
    33    39     5    2
    34    14    12   ar
    35    32    31   ar
    36    32     1    2
    37     8     7    1
    38    31    34    1
    39     5     1    1
    40     5     6    1
    41    13    12   ar
    42    12    11    1
    43     7     6    2
    44     7     9    1
    45    34    35    1
    46     6    10    1
    47    35    36    1
    48    11    10    1
    49    36    38   ar
    50    36    37   ar
