@<TRIPOS>MOLECULE
3ogj_CMP_A_1.pdb
 22 25 0 0 0
SMALL
GASTEIGER

@<TRIPOS>ATOM
      1  P          9.1060   29.7140   30.9410 P.3   250  CMP250      0.2141
      2  O1P        9.7490   29.8520   32.2970 O.3   250  CMP250     -0.4373
      3  O2P        8.2310   28.4800   30.9510 O.2   250  CMP250     -0.5172
      4  O5'        8.2560   31.0570   30.6130 O.3   250  CMP250     -0.3114
      5  C5'        8.8660   32.2580   30.1520 C.3   250  CMP250      0.1812
      6  C4'        9.9140   31.9140   29.1320 C.3   250  CMP250      0.1793
      7  O4'       10.7530   33.0330   28.7680 O.3   250  CMP250     -0.3136
      8  C3'       10.9060   30.9050   29.6490 C.3   250  CMP250      0.1884
      9  O3'       10.2700   29.6550   29.8120 O.3   250  CMP250     -0.3111
     10  C2'       12.0290   31.0200   28.6320 C.3   250  CMP250      0.2541
     11  O2'       11.6740   30.4000   27.4100 O.3   250  CMP250     -0.2131
     12  C1'       12.0370   32.5410   28.4310 C.3   250  CMP250      0.3185
     13  N9        13.0030   33.2070   29.3210 N.pl3 250  CMP250     -0.1439
     14  C8        12.9350   33.2390   30.6690 C.3   250  CMP250      0.3377
     15  N7        13.9690   33.9380   31.2000 N.2   250  CMP250     -0.2095
     16  C5        14.7160   34.3750   30.1700 C.2   250  CMP250      0.2526
     17  C6        15.9540   35.1720   30.0210 C.2   250  CMP250      0.4393
     18  N6        16.6060   35.6490   31.1100 N.pl3 250  CMP250      0.2180
     19  N1        16.4040   35.4020   28.7640 N.2   250  CMP250      0.0021
     20  C2        15.7610   34.9270   27.6780 C.3   250  CMP250      0.5254
     21  N3        14.6330   34.1960   27.7390 N.2   250  CMP250     -0.0055
     22  C4        14.0750   33.8940   28.9340 C.2   250  CMP250      0.3518
@<TRIPOS>BOND
     1    11    10    1
     2    20    21    1
     3    20    19    1
     4    21    22    2
     5    12    10    1
     6    12     7    1
     7    12    13    1
     8    10     8    1
     9    19    17    2
    10     7     6    1
    11    22    13    1
    12    22    16    1
    13     6     8    1
    14     6     5    1
    15    13    14    1
    16     8     9    1
    17     9     1    1
    18    17    16    1
    19    17    18    1
    20     5     4    1
    21    16    15    2
    22     4     1    1
    23    14    15    1
    24     1     3    2
    25     1     2    1
