@<TRIPOS>MOLECULE
3ogk_OGK_B_1.pdb
 23 25 0 0 0
SMALL
GASTEIGER

@<TRIPOS>ATOM
      1  C01       -3.3340    6.3610   43.3530 C.3   1100  OGK1100     0.0000
      2  C02       -2.1030    6.3850   44.2640 C.3   1100  OGK1100     0.0000
      3  C03       -2.3670    6.2160   45.7690 C.3   1100  OGK1100     0.0009
      4  C04       -1.8410    4.8660   46.0820 C.3   1100  OGK1100     0.0091
      5  C05       -0.8890    4.7260   47.2310 C.3   1100  OGK1100     0.0786
      6  C06        0.0010    3.4900   47.1730 C.2   1100  OGK1100     0.2413
      7  O07       -0.2810    2.6450   46.3960 O.2   1100  OGK1100    -0.2733
      8  N08        0.8800    3.2340   48.3260 N.am  1100  OGK1100    -0.1979
      9  C09        1.7880    2.0640   48.3130 C.3   1100  OGK1100     0.1714
     10  C10        1.3360    1.0180   48.5390 C.2   1100  OGK1100     0.3820
     11  O11        0.2540    0.8710   49.0640 O.co2 1100  OGK1100    -0.2438
     12  O12        1.7860   -0.0630   47.7480 O.co2 1100  OGK1100    -0.2438
     13  C13        2.6830    2.1100   47.3970 C.3   1100  OGK1100     0.0332
     14  C14        2.9870    2.5850   48.5890 C.3   1100  OGK1100     0.0311
     15  C15        3.4380    1.6460   49.7230 C.3   1100  OGK1100     0.0023
     16  C16        4.9490    1.4050   49.7520 C.3   1100  OGK1100     0.0001
     17  C17       -0.6830    5.8070   48.3220 C.3   1100  OGK1100     0.0160
     18  C18        0.6490    6.3200   48.0690 C.3   1100  OGK1100     0.0086
     19  C19        0.6600    7.6570   48.8280 C.3   1100  OGK1100     0.0645
     20  C20       -0.8050    8.0460   48.8540 C.2   1100  OGK1100     0.1502
     21  O21       -1.2650    9.0340   49.3370 O.2   1100  OGK1100    -0.2961
     22  C22       -1.5910    6.9680   48.1260 C.3   1100  OGK1100     0.0581
     23  C23       -1.6570    7.2860   46.5830 C.3   1100  OGK1100     0.0073
@<TRIPOS>BOND
     1     1     2    1
     2     2     3    1
     3     3     4    1
     4     3    23    1
     5     4     5    1
     6     7     6    2
     7    23    22    1
     8     6     5    1
     9     6     8   am
    10     5    17    1
    11    13     9    1
    12    13    14    1
    13    12    10   ar
    14    18    17    1
    15    18    19    1
    16    22    17    1
    17    22    20    1
    18     9     8    1
    19     9    10    1
    20     9    14    1
    21    10    11   ar
    22    14    15    1
    23    19    20    1
    24    20    21    2
    25    15    16    1
