@<TRIPOS>MOLECULE
3ogl_7JA_B_1.pdb
 23 23 0 0 0
SMALL
GASTEIGER

@<TRIPOS>ATOM
      1  C          1.1780    0.8480   48.3430 C.2   1100  7JA1100     0.3842
      2  N          1.3210    3.2380   47.7810 N.am  1100  7JA1100    -0.1956
      3  O          0.2090    1.0130   49.0200 O.co2 1100  7JA1100    -0.2437
      4  CA         2.0840    2.0220   47.9030 C.3   1100  7JA1100     0.1977
      5  CB         2.9290    2.3770   49.1040 C.3   1100  7JA1100     0.0311
      6  C01       -3.4440    7.8680   43.0600 C.3   1100  7JA1100     0.0050
      7  C02       -3.7330    7.0180   44.3040 C.3   1100  7JA1100     0.0257
      8  C03       -2.8840    5.7820   44.5900 C.2   1100  7JA1100    -0.0307
      9  C04       -1.8570    5.9000   45.3950 C.2   1100  7JA1100    -0.0303
     10  C05       -1.5720    7.0970   46.3090 C.3   1100  7JA1100     0.0330
     11  C06       -1.4670    6.8940   47.8310 C.3   1100  7JA1100     0.0624
     12  C07       -0.7470    8.0630   48.4920 C.2   1100  7JA1100     0.1506
     13  O08       -1.1740    9.1350   48.6530 O.2   1100  7JA1100    -0.2961
     14  C09        0.6550    7.6440   48.8890 C.3   1100  7JA1100     0.0645
     15  C10        0.8020    6.2910   48.2020 C.3   1100  7JA1100     0.0087
     16  C11       -0.5990    5.7050   48.1840 C.3   1100  7JA1100     0.0168
     17  C12       -0.6770    4.6430   47.0940 C.3   1100  7JA1100     0.0873
     18  C13       -0.0420    3.2950   47.2920 C.2   1100  7JA1100     0.2418
     19  O14       -0.5310    2.3980   46.7100 O.2   1100  7JA1100    -0.2733
     20  CD1        5.2400    1.9800   50.1610 C.3   1100  7JA1100     0.0001
     21  CG1        4.2040    1.5450   49.1340 C.3   1100  7JA1100     0.0023
     22  CG2        2.0650    2.0950   50.3430 C.3   1100  7JA1100     0.0023
     23  OXT        1.5940   -0.4570   48.0650 O.co2 1100  7JA1100    -0.2437
@<TRIPOS>BOND
     1     6     7    1
     2     7     8    1
     3     8     9    2
     4     9    10    1
     5    10    11    1
     6    19    18    2
     7    17    18    1
     8    17    16    1
     9    18     2   am
    10     2     4    1
    11    11    16    1
    12    11    12    1
    13     4     1    1
    14     4     5    1
    15    23     1   ar
    16    16    15    1
    17    15    14    1
    18     1     3   ar
    19    12    13    2
    20    12    14    1
    21     5    21    1
    22     5    22    1
    23    21    20    1
