@<TRIPOS>MOLECULE
3ogm_OGK_B_1.pdb
 23 25 0 0 0
SMALL
GASTEIGER

@<TRIPOS>ATOM
      1  C01       -3.5790    7.3310   43.6610 C.3   1100  OGK1100     0.0000
      2  C02       -2.3670    6.5560   44.2080 C.3   1100  OGK1100     0.0000
      3  C03       -2.3270    6.2740   45.7250 C.3   1100  OGK1100     0.0009
      4  C04       -1.5730    4.9860   45.9360 C.3   1100  OGK1100     0.0091
      5  C05       -0.6310    4.8770   47.1230 C.3   1100  OGK1100     0.0786
      6  C06        0.1380    3.5490   47.3190 C.2   1100  OGK1100     0.2413
      7  O07       -0.3280    2.5840   46.8120 O.2   1100  OGK1100    -0.2733
      8  N08        1.1990    3.4440   48.3600 N.am  1100  OGK1100    -0.1979
      9  C09        1.9040    2.1520   48.6640 C.3   1100  OGK1100     0.1714
     10  C10        1.2620    1.3440   49.1640 C.2   1100  OGK1100     0.3820
     11  O11        0.3850    1.6720   49.9290 O.co2 1100  OGK1100    -0.2438
     12  O12        1.2300    0.0320   48.5950 O.co2 1100  OGK1100    -0.2438
     13  C13        2.7350    1.7870   47.7620 C.3   1100  OGK1100     0.0332
     14  C14        3.2120    2.3740   48.8360 C.3   1100  OGK1100     0.0311
     15  C15        3.4470    1.5000   50.0800 C.3   1100  OGK1100     0.0023
     16  C16        4.7470    1.8000   50.8270 C.3   1100  OGK1100     0.0001
     17  C17       -0.7500    5.8430   48.3270 C.3   1100  OGK1100     0.0160
     18  C18        0.6420    6.1770   48.5190 C.3   1100  OGK1100     0.0086
     19  C19        0.6800    7.6060   49.0960 C.3   1100  OGK1100     0.0645
     20  C20       -0.6550    8.2010   48.7260 C.2   1100  OGK1100     0.1502
     21  O21       -1.0520    9.2600   49.0820 O.2   1100  OGK1100    -0.2961
     22  C22       -1.4630    7.1330   48.0240 C.3   1100  OGK1100     0.0581
     23  C23       -1.6220    7.4140   46.4730 C.3   1100  OGK1100     0.0073
@<TRIPOS>BOND
     1     1     2    1
     2     2     3    1
     3     3     4    1
     4     3    23    1
     5     4     5    1
     6    23    22    1
     7     7     6    2
     8     5     6    1
     9     5    17    1
    10     6     8   am
    11    13     9    1
    12    13    14    1
    13    22    17    1
    14    22    20    1
    15    17    18    1
    16     8     9    1
    17    18    19    1
    18    12    10   ar
    19     9    14    1
    20     9    10    1
    21    20    21    2
    22    20    19    1
    23    14    15    1
    24    10    11   ar
    25    15    16    1
