@<TRIPOS>MOLECULE
3ogn_3OG_A_1.pdb
 22 22 0 0 0
SMALL
GASTEIGER

@<TRIPOS>ATOM
      1  OAA        2.0950   29.3300   12.3340 O.2     1  3OG1       -0.2501
      2  OAB        2.4960   27.4250   11.1060 O.3     1  3OG1       -0.4485
      3  CAC        2.4360   28.1410   12.3050 C.2     1  3OG1        0.3176
      4  CAD        2.8180   27.3940   13.5660 C.3     1  3OG1        0.1212
      5  CAE        0.6280   24.7970    8.3040 C.3     1  3OG1        0.0155
      6  CAF        1.7220   25.5180    9.1000 C.3     1  3OG1        0.0480
      7  CAG        1.3000   27.0460    9.1450 C.3     1  3OG1        0.2084
      8  CAH        2.1680   28.1630    9.8050 C.3     1  3OG1        0.2084
      9  CAI        3.5350   28.3840    9.2220 C.3     1  3OG1        0.0474
     10  CAJ        4.1490   29.7510    9.6180 C.3     1  3OG1        0.0038
     11  CAK        3.4400   30.9120    8.9310 C.3     1  3OG1        0.0001
     12  CAL        4.4460   32.1260    8.8200 C.3     1  3OG1        0.0000
     13  CAM        3.7740   33.3660    8.4660 C.3     1  3OG1        0.0000
     14  CAN        4.7570   34.4320    8.0390 C.3     1  3OG1        0.0000
     15  CAO        5.5970   35.0300    9.0660 C.3     1  3OG1        0.0000
     16  CAP        6.2620   36.2620    8.4860 C.3     1  3OG1        0.0000
     17  CAQ        7.2670   36.7700    9.4760 C.3     1  3OG1        0.0000
     18  CAR        7.5600   38.2120    9.1730 C.3     1  3OG1        0.0000
     19  CAS       -0.5890   24.7760    9.2690 C.3     1  3OG1        0.1097
     20  CAT       -0.9490   26.2560    9.7270 C.2     1  3OG1        0.3170
     21  OAU       -0.0170   27.2890    9.6980 O.3     1  3OG1       -0.4485
     22  OAV       -2.0470   26.4880   10.2520 O.2     1  3OG1       -0.2501
@<TRIPOS>BOND
     1    14    13    1
     2    14    15    1
     3     5     6    1
     4     5    19    1
     5    13    12    1
     6    16    15    1
     7    16    17    1
     8    12    11    1
     9    11    10    1
    10     6     7    1
    11     7    21    1
    12     7     8    1
    13    18    17    1
    14     9    10    1
    15     9     8    1
    16    19    20    1
    17    21    20    1
    18    20    22    2
    19     8     2    1
    20     2     3    1
    21     3     1    2
    22     3     4    1
