@<TRIPOS>MOLECULE
3ogr_BMA_A_1.pdb
 11 11 0 0 0
SMALL
GASTEIGER

@<TRIPOS>ATOM
      1  C1        -3.8710  -21.9530   13.8080 C.3   1034  BMA1034     0.1777
      2  C2        -4.0290  -22.6720   12.4720 C.3   1034  BMA1034     0.2141
      3  C3        -5.4480  -22.3890   11.9760 C.3   1034  BMA1034     0.2173
      4  C4        -6.5370  -22.6960   13.0500 C.3   1034  BMA1034     0.2142
      5  C5        -6.1540  -22.1030   14.4360 C.3   1034  BMA1034     0.1810
      6  C6        -7.0080  -22.6220   15.5800 C.3   1034  BMA1034     0.2141
      7  O2        -3.9190  -24.0740   12.6350 O.3   1034  BMA1034    -0.2176
      8  O3        -5.8120  -23.1370   10.7770 O.3   1034  BMA1034    -0.2175
      9  O4        -7.7760  -22.0670   12.6110 O.3   1034  BMA1034    -0.2176
     10  O5        -4.8190  -22.4300   14.7600 O.3   1034  BMA1034    -0.3481
     11  O6        -6.9030  -24.0850   15.5540 O.3   1034  BMA1034    -0.2176
@<TRIPOS>BOND
     1     8     3    1
     2     3     2    1
     3     3     4    1
     4     2     7    1
     5     2     1    1
     6     9     4    1
     7     4     5    1
     8     1    10    1
     9     5    10    1
    10     5     6    1
    11    11     6    1
