@<TRIPOS>MOLECULE
3ogr_MAN_A_1.pdb
 11 11 0 0 0
SMALL
GASTEIGER

@<TRIPOS>ATOM
      1  C1        20.2260  -11.9620   -6.6740 C.3   1028  MAN1028     0.1777
      2  C2        19.4440  -12.3870   -7.9370 C.3   1028  MAN1028     0.2141
      3  C3        20.2260  -13.4640   -8.6350 C.3   1028  MAN1028     0.2173
      4  C4        21.6660  -13.0060   -8.9090 C.3   1028  MAN1028     0.2142
      5  C5        22.3430  -12.5700   -7.5930 C.3   1028  MAN1028     0.1810
      6  C6        23.7620  -11.9980   -7.9270 C.3   1028  MAN1028     0.2141
      7  O2        19.3290  -11.2200   -8.7740 O.3   1028  MAN1028    -0.2176
      8  O3        19.5500  -13.7700   -9.8610 O.3   1028  MAN1028    -0.2175
      9  O4        22.4030  -14.1040   -9.4870 O.3   1028  MAN1028    -0.2176
     10  O5        21.5320  -11.5290   -6.9950 O.3   1028  MAN1028    -0.3481
     11  O6        24.3840  -11.7170   -6.7220 O.3   1028  MAN1028    -0.2176
@<TRIPOS>BOND
     1     8     3    1
     2     9     4    1
     3     4     3    1
     4     4     5    1
     5     7     2    1
     6     3     2    1
     7     2     1    1
     8     6     5    1
     9     6    11    1
    10     5    10    1
    11    10     1    1
