@<TRIPOS>MOLECULE
3ogr_GAL_A_1.pdb
 12 12 0 0 0
SMALL
GASTEIGER

@<TRIPOS>ATOM
      1  C1        -9.1920   -5.3880   -4.6270 C.3   1024  GAL1024     0.3024
      2  C2        -9.9100   -4.2150   -3.8820 C.3   1024  GAL1024     0.2434
      3  C3        -8.9270   -3.4690   -3.0020 C.3   1024  GAL1024     0.2199
      4  C4        -8.2210   -4.4460   -2.0530 C.3   1024  GAL1024     0.2144
      5  C5        -7.5900   -5.5520   -2.8940 C.3   1024  GAL1024     0.1836
      6  C6        -6.9620   -6.6930   -2.0660 C.3   1024  GAL1024     0.2142
      7  O1       -10.1150   -6.3270   -5.1770 O.3   1024  GAL1024    -0.1869
      8  O2       -10.4120   -3.3130   -4.8650 O.3   1024  GAL1024    -0.2148
      9  O3        -9.6180   -2.5000   -2.2280 O.3   1024  GAL1024    -0.2174
     10  O4        -9.2240   -5.0000   -1.2050 O.3   1024  GAL1024    -0.2176
     11  O5        -8.6100   -6.2170   -3.6670 O.3   1024  GAL1024    -0.3236
     12  O6        -5.8700   -6.1630   -1.3170 O.3   1024  GAL1024    -0.2176
@<TRIPOS>BOND
     1     7     1    1
     2     8     2    1
     3     1     2    1
     4     1    11    1
     5     2     3    1
     6    11     5    1
     7     3     9    1
     8     3     4    1
     9     5     6    1
    10     5     4    1
    11     6    12    1
    12     4    10    1
