@<TRIPOS>MOLECULE
3ogr_GLC_A_1.pdb
 11 11 0 0 0
SMALL
GASTEIGER

@<TRIPOS>ATOM
      1  C1        -8.0890  -14.6850    4.4230 C.3   1041  GLC1041     0.1777
      2  C2        -9.1660  -14.0230    3.5830 C.3   1041  GLC1041     0.2141
      3  C3        -9.5620  -14.5880    2.2680 C.3   1041  GLC1041     0.2173
      4  C4        -8.2170  -14.7080    1.5760 C.3   1041  GLC1041     0.2142
      5  C5        -7.3840  -15.7530    2.3170 C.3   1041  GLC1041     0.1810
      6  C6        -6.0580  -16.0520    1.6100 C.3   1041  GLC1041     0.2141
      7  O2       -10.3200  -13.9140    4.4200 O.3   1041  GLC1041    -0.2176
      8  O3       -10.2920  -13.4520    1.7750 O.3   1041  GLC1041    -0.2175
      9  O4        -8.3110  -15.2050    0.3110 O.3   1041  GLC1041    -0.2176
     10  O5        -7.1410  -15.3150    3.6580 O.3   1041  GLC1041    -0.3481
     11  O6        -5.4460  -17.1630    2.3320 O.3   1041  GLC1041    -0.2176
@<TRIPOS>BOND
     1     9     4    1
     2     4     3    1
     3     4     5    1
     4     6     5    1
     5     6    11    1
     6     8     3    1
     7     3     2    1
     8     5    10    1
     9     2     7    1
    10     2     1    1
    11    10     1    1
