@<TRIPOS>MOLECULE
3ogr_NAG_A_1.pdb
 14 14 0 0 0
SMALL
GASTEIGER

@<TRIPOS>ATOM
      1  C1        19.3310   -5.9360   -2.5140 C.3   1026  NAG1026     0.1665
      2  C2        19.6280   -6.5900   -3.8660 C.3   1026  NAG1026     0.1576
      3  C3        18.5910   -7.6840   -4.0880 C.3   1026  NAG1026     0.2069
      4  C4        18.6700   -8.6610   -2.8890 C.3   1026  NAG1026     0.2134
      5  C5        18.4140   -7.9020   -1.5850 C.3   1026  NAG1026     0.1809
      6  C6        18.5040   -8.7900   -0.3340 C.3   1026  NAG1026     0.2141
      7  C7        20.4940   -4.8700   -5.4080 C.2   1026  NAG1026     0.2420
      8  C8        20.1340   -3.8050   -6.3940 C.3   1026  NAG1026     0.0964
      9  N2        19.4660   -5.5740   -4.8840 N.am  1026  NAG1026    -0.2019
     10  O3        18.9350   -8.3150   -5.3030 O.3   1026  NAG1026    -0.2184
     11  O4        17.6100   -9.6030   -3.0680 O.3   1026  NAG1026    -0.2176
     12  O5        19.4330   -6.8830   -1.4640 O.3   1026  NAG1026    -0.3489
     13  O6        19.7770   -9.4200   -0.3290 O.3   1026  NAG1026    -0.2176
     14  O7        21.6730   -5.0810   -5.1210 O.2   1026  NAG1026    -0.2733
@<TRIPOS>BOND
     1     8     7    1
     2     7    14    2
     3     7     9   am
     4    10     3    1
     5     9     2    1
     6     3     2    1
     7     3     4    1
     8     2     1    1
     9    11     4    1
    10     4     5    1
    11     1    12    1
    12     5    12    1
    13     5     6    1
    14     6    13    1
