@<TRIPOS>MOLECULE
3ogs_GLC_A_1.pdb
 11 11 0 0 0
SMALL
GASTEIGER

@<TRIPOS>ATOM
      1  C1        -8.6230  -15.0130    4.6270 C.3   1040  GLC1040     0.1777
      2  C2        -9.7370  -14.2820    3.8710 C.3   1040  GLC1040     0.2141
      3  C3       -10.0420  -14.7710    2.4640 C.3   1040  GLC1040     0.2173
      4  C4        -8.7390  -14.9650    1.7120 C.3   1040  GLC1040     0.2142
      5  C5        -7.8840  -15.9900    2.4670 C.3   1040  GLC1040     0.1810
      6  C6        -6.5930  -16.2920    1.6710 C.3   1040  GLC1040     0.2141
      7  O2       -10.9170  -14.2510    4.6680 O.3   1040  GLC1040    -0.2176
      8  O3       -10.7760  -13.7100    1.8890 O.3   1040  GLC1040    -0.2175
      9  O4        -8.9460  -15.4930    0.4300 O.3   1040  GLC1040    -0.2176
     10  O5        -7.6080  -15.5210    3.7930 O.3   1040  GLC1040    -0.3481
     11  O6        -5.8340  -17.3470    2.2890 O.3   1040  GLC1040    -0.2176
@<TRIPOS>BOND
     1     9     4    1
     2     6    11    1
     3     6     5    1
     4     4     3    1
     5     4     5    1
     6     8     3    1
     7     3     2    1
     8     5    10    1
     9    10     1    1
    10     2     1    1
    11     2     7    1
