@<TRIPOS>MOLECULE
3ogs_NAG_A_1.pdb
 14 14 0 0 0
SMALL
GASTEIGER

@<TRIPOS>ATOM
      1  C1        19.9110   -6.1650   -2.5540 C.3   1026  NAG1026     0.1665
      2  C2        20.1900   -6.8680   -3.8780 C.3   1026  NAG1026     0.1576
      3  C3        19.2050   -8.0260   -4.0970 C.3   1026  NAG1026     0.2069
      4  C4        19.1960   -8.9760   -2.8570 C.3   1026  NAG1026     0.2134
      5  C5        18.9220   -8.1270   -1.5750 C.3   1026  NAG1026     0.1809
      6  C6        19.0000   -8.9480   -0.2750 C.3   1026  NAG1026     0.2141
      7  C7        21.1670   -5.2760   -5.5060 C.2   1026  NAG1026     0.2420
      8  C8        20.8630   -4.1780   -6.5030 C.3   1026  NAG1026     0.0964
      9  N2        20.1120   -5.8690   -4.9430 N.am  1026  NAG1026    -0.2019
     10  O3        19.5500   -8.6990   -5.2820 O.3   1026  NAG1026    -0.2184
     11  O4        18.1420   -9.9760   -3.0740 O.3   1026  NAG1026    -0.2176
     12  O5        19.9730   -7.1240   -1.4660 O.3   1026  NAG1026    -0.3489
     13  O6        20.2120   -9.7090   -0.3600 O.3   1026  NAG1026    -0.2176
     14  O7        22.3410   -5.5770   -5.2200 O.2   1026  NAG1026    -0.2733
@<TRIPOS>BOND
     1     8     7    1
     2     7    14    2
     3     7     9   am
     4    10     3    1
     5     9     2    1
     6     3     2    1
     7     3     4    1
     8     2     1    1
     9    11     4    1
    10     4     5    1
    11     1    12    1
    12     5    12    1
    13     5     6    1
    14    13     6    1
