@<TRIPOS>MOLECULE
3ogs_MAN_A_1.pdb
 11 11 0 0 0
SMALL
GASTEIGER

@<TRIPOS>ATOM
      1  C1        20.7730  -12.3290   -6.7160 C.3   1028  MAN1028     0.1777
      2  C2        20.0000  -12.7130   -8.0030 C.3   1028  MAN1028     0.2141
      3  C3        20.8040  -13.8200   -8.7580 C.3   1028  MAN1028     0.2173
      4  C4        22.2810  -13.3660   -9.0310 C.3   1028  MAN1028     0.2142
      5  C5        22.9770  -12.8530   -7.7480 C.3   1028  MAN1028     0.1810
      6  C6        24.3810  -12.1750   -8.0860 C.3   1028  MAN1028     0.2141
      7  O2        19.9590  -11.6540   -8.9170 O.3   1028  MAN1028    -0.2176
      8  O3        20.0790  -14.1080   -9.9640 O.3   1028  MAN1028    -0.2175
      9  O4        23.0010  -14.4420   -9.6390 O.3   1028  MAN1028    -0.2176
     10  O5        22.1280  -11.8970   -7.0220 O.3   1028  MAN1028    -0.3481
     11  O6        25.1160  -12.1470   -6.9060 O.3   1028  MAN1028    -0.2176
@<TRIPOS>BOND
     1     8     3    1
     2     9     4    1
     3     4     3    1
     4     4     5    1
     5     7     2    1
     6     3     2    1
     7     6     5    1
     8     6    11    1
     9     2     1    1
    10     5    10    1
    11    10     1    1
