@<TRIPOS>MOLECULE
3ogs_IPT_A_1.pdb
 15 15 0 0 0
SMALL
GASTEIGER

@<TRIPOS>ATOM
      1  C1        -9.8030   -5.5120   -4.6710 C.3   1024  IPT1024     0.1955
      2  C2       -10.3610   -4.2600   -3.9420 C.3   1024  IPT1024     0.2219
      3  O2       -10.7690   -3.2800   -4.9430 O.3   1024  IPT1024    -0.2167
      4  C3        -9.2730   -3.5480   -3.1270 C.3   1024  IPT1024     0.2181
      5  O3        -9.8370   -2.4620   -2.3630 O.3   1024  IPT1024    -0.2175
      6  C4        -8.5160   -4.5080   -2.1540 C.3   1024  IPT1024     0.2143
      7  O4        -9.5300   -4.9740   -1.2000 O.3   1024  IPT1024    -0.2176
      8  C5        -7.9370   -5.7170   -3.0120 C.3   1024  IPT1024     0.1820
      9  O5        -9.0770   -6.2900   -3.7160 O.3   1024  IPT1024    -0.3398
     10  C6        -7.2060   -6.7900   -2.1590 C.3   1024  IPT1024     0.2142
     11  O6        -6.0660   -6.2620   -1.4320 O.3   1024  IPT1024    -0.2176
     12  S1       -11.2110   -6.4680   -5.2570 S.3   1024  IPT1024    -0.1102
     13  C1'      -10.1940   -7.6720   -6.1230 C.3   1024  IPT1024     0.0500
     14  C2'      -10.0900   -9.1130   -5.5710 C.3   1024  IPT1024     0.0117
     15  C3'      -10.5910   -7.7330   -7.5750 C.3   1024  IPT1024     0.0117
@<TRIPOS>BOND
     1    15    13    1
     2    13    14    1
     3    13    12    1
     4    12     1    1
     5     3     2    1
     6     1     2    1
     7     1     9    1
     8     2     4    1
     9     9     8    1
    10     4     5    1
    11     4     6    1
    12     8    10    1
    13     8     6    1
    14    10    11    1
    15     6     7    1
