@<TRIPOS>MOLECULE
3ogs_BMA_A_1.pdb
 11 11 0 0 0
SMALL
GASTEIGER

@<TRIPOS>ATOM
      1  C1        -4.0710  -22.4470   13.8980 C.3   1034  BMA1034     0.1777
      2  C2        -4.2520  -23.1190   12.5480 C.3   1034  BMA1034     0.2141
      3  C3        -5.6640  -22.8200   12.0270 C.3   1034  BMA1034     0.2173
      4  C4        -6.7650  -23.1390   13.0780 C.3   1034  BMA1034     0.2142
      5  C5        -6.4090  -22.5980   14.4580 C.3   1034  BMA1034     0.1810
      6  C6        -7.3600  -23.0440   15.5580 C.3   1034  BMA1034     0.2141
      7  O2        -4.1250  -24.5680   12.7790 O.3   1034  BMA1034    -0.2176
      8  O3        -6.0880  -23.5630   10.8430 O.3   1034  BMA1034    -0.2175
      9  O4        -8.0450  -22.6150   12.6580 O.3   1034  BMA1034    -0.2176
     10  O5        -5.0400  -22.9380   14.8190 O.3   1034  BMA1034    -0.3481
     11  O6        -7.2900  -24.4980   15.6170 O.3   1034  BMA1034    -0.2176
@<TRIPOS>BOND
     1     8     3    1
     2     3     2    1
     3     3     4    1
     4     2     7    1
     5     2     1    1
     6     9     4    1
     7     4     5    1
     8     1    10    1
     9     5    10    1
    10     5     6    1
    11     6    11    1
