@<TRIPOS>MOLECULE
3ogt_FMV_A_1.pdb
 32 35 0 0 0
SMALL
GASTEIGER

@<TRIPOS>ATOM
      1  C1        14.1220   17.6080   35.7130 C.3     1  FMV1        0.1765
      2  O1        13.0870   16.9600   36.4740 O.3     1  FMV1       -0.2182
      3  C2        14.7780   16.6280   34.7370 C.3     1  FMV1        0.0707
      4  C3        15.8530   17.3230   33.8890 C.3     1  FMV1        0.1592
      5  O3        16.8700   17.8570   34.7480 O.3     1  FMV1       -0.2227
      6  C4        15.2280   18.4430   33.0520 C.3     1  FMV1        0.0591
      7  C5        14.3940   19.3830   33.9010 C.2     1  FMV1       -0.0213
      8  C6        14.4100   20.7180   33.6490 C.2     1  FMV1       -0.0051
      9  C7        13.6820   21.7570   34.3960 C.2     1  FMV1       -0.0088
     10  C8        13.4750   22.9890   33.8830 C.2     1  FMV1       -0.0446
     11  C9        13.9330   23.3980   32.4970 C.3     1  FMV1        0.0220
     12  C10       13.5680   18.7690   34.9380 C.2     1  FMV1        0.0039
     13  C11       12.7730   24.0390   31.7090 C.3     1  FMV1        0.0044
     14  C12       12.0320   25.1580   32.4620 C.3     1  FMV1        0.0006
     15  C13       11.5870   24.5970   33.8090 C.3     1  FMV1        0.0039
     16  C14       12.7830   24.1130   34.5890 C.3     1  FMV1        0.0183
     17  C15       12.3010   23.8670   36.0150 C.3     1  FMV1        0.0040
     18  C16       11.2920   25.0010   36.2160 C.3     1  FMV1        0.0008
     19  C17       11.1180   25.6390   34.8280 C.3     1  FMV1        0.0074
     20  C18       10.6050   23.4390   33.6270 C.3     1  FMV1        0.0003
     21  C19       12.3310   19.1980   35.1360 C.2     1  FMV1       -0.0024
     22  C20        9.7750   26.2970   34.5360 C.3     1  FMV1        0.0574
     23  C21        9.7380   27.6800   35.1920 C.3     1  FMV1        0.0080
     24  C22        8.5430   25.5910   34.9500 C.ar    1  FMV1        0.1221
     25  O22        7.4380   25.8660   34.2210 O.2     1  FMV1       -0.4596
     26  C23        8.3570   24.7260   36.0250 C.ar    1  FMV1        0.0358
     27  C24        7.0020   24.3890   35.9640 C.ar    1  FMV1        0.0382
     28  C25        6.5330   25.1040   34.8680 C.ar    1  FMV1        0.1497
     29  C26        5.1350   25.1250   34.3600 C.3     1  FMV1        0.1769
     30  O26        4.4780   26.2360   34.9800 O.3     1  FMV1       -0.2180
     31  C27        5.2520   25.3410   32.8540 C.3     1  FMV1        0.0408
     32  C28        4.3910   23.8430   34.7200 C.3     1  FMV1        0.0408
@<TRIPOS>BOND
     1    13    14    1
     2    13    11    1
     3    14    15    1
     4    11    10    1
     5    31    29    1
     6     6     4    1
     7     6     7    1
     8    20    15    1
     9     8     7    2
    10     8     9    1
    11    15    16    1
    12    15    19    1
    13    10     9    2
    14    10    16    1
    15     4     3    1
    16     4     5    1
    17     7    12    1
    18    25    28   ar
    19    25    24   ar
    20    29    32    1
    21    29    28    1
    22    29    30    1
    23    22    19    1
    24    22    24    1
    25    22    23    1
    26    16    17    1
    27     3     1    1
    28    19    18    1
    29    28    27   ar
    30    12    21    2
    31    12     1    1
    32    24    26   ar
    33     1     2    1
    34    27    26   ar
    35    17    18    1
