@<TRIPOS>MOLECULE
3ogv_GLC_A_1.pdb
 11 11 0 0 0
SMALL
GASTEIGER

@<TRIPOS>ATOM
      1  C1        -8.3570  -14.3160    4.7830 C.3   1039  GLC1039     0.1777
      2  C2        -8.8840  -12.8950    4.9240 C.3   1039  GLC1039     0.2141
      3  C3       -10.3100  -12.7550    4.4390 C.3   1039  GLC1039     0.2173
      4  C4       -10.3280  -13.1710    2.9890 C.3   1039  GLC1039     0.2142
      5  C5        -9.8490  -14.6290    2.8860 C.3   1039  GLC1039     0.1810
      6  C6        -9.8730  -15.2010    1.4710 C.3   1039  GLC1039     0.2141
      7  O2        -8.7530  -12.5300    6.2750 O.3   1039  GLC1039    -0.2176
      8  O3       -10.6900  -11.3740    4.5530 O.3   1039  GLC1039    -0.2175
      9  O4       -11.6890  -13.1300    2.5260 O.3   1039  GLC1039    -0.2176
     10  O5        -8.5690  -14.6640    3.4200 O.3   1039  GLC1039    -0.3481
     11  O6        -8.9650  -14.4350    0.6910 O.3   1039  GLC1039    -0.2176
@<TRIPOS>BOND
     1    11     6    1
     2     6     5    1
     3     9     4    1
     4     5     4    1
     5     5    10    1
     6     4     3    1
     7    10     1    1
     8     3     8    1
     9     3     2    1
    10     1     2    1
    11     2     7    1
