@<TRIPOS>MOLECULE
3ogv_BMA_A_1.pdb
 11 11 0 0 0
SMALL
GASTEIGER

@<TRIPOS>ATOM
      1  C1        -3.9580  -22.0260   13.5320 C.3   1034  BMA1034     0.1777
      2  C2        -4.1330  -22.6740   12.1490 C.3   1034  BMA1034     0.2141
      3  C3        -5.5580  -22.3770   11.7010 C.3   1034  BMA1034     0.2173
      4  C4        -6.6370  -22.7020   12.7520 C.3   1034  BMA1034     0.2142
      5  C5        -6.2220  -22.1690   14.1770 C.3   1034  BMA1034     0.1810
      6  C6        -7.1310  -22.7420   15.2720 C.3   1034  BMA1034     0.2141
      7  O2        -4.0090  -24.1060   12.2860 O.3   1034  BMA1034    -0.2176
      8  O3        -5.9670  -23.0320   10.4630 O.3   1034  BMA1034    -0.2175
      9  O4        -7.9170  -22.1390   12.3990 O.3   1034  BMA1034    -0.2176
     10  O5        -4.8850  -22.5870   14.4630 O.3   1034  BMA1034    -0.3481
     11  O6        -7.2070  -24.1870   15.1160 O.3   1034  BMA1034    -0.2176
@<TRIPOS>BOND
     1     8     3    1
     2     3     2    1
     3     3     4    1
     4     2     7    1
     5     2     1    1
     6     9     4    1
     7     4     5    1
     8     1    10    1
     9     5    10    1
    10     5     6    1
    11    11     6    1
