@<TRIPOS>MOLECULE
3ogv_MAN_A_1.pdb
 11 11 0 0 0
SMALL
GASTEIGER

@<TRIPOS>ATOM
      1  C1        20.2760  -12.0510   -6.6380 C.3   1028  MAN1028     0.1777
      2  C2        19.5580  -12.4620   -7.9250 C.3   1028  MAN1028     0.2141
      3  C3        20.3240  -13.5760   -8.6180 C.3   1028  MAN1028     0.2173
      4  C4        21.7460  -13.1120   -8.8640 C.3   1028  MAN1028     0.2142
      5  C5        22.4050  -12.7090   -7.5520 C.3   1028  MAN1028     0.1810
      6  C6        23.7990  -12.0340   -7.8710 C.3   1028  MAN1028     0.2141
      7  O2        19.4360  -11.3250   -8.7500 O.3   1028  MAN1028    -0.2176
      8  O3        19.6440  -13.8080   -9.8240 O.3   1028  MAN1028    -0.2175
      9  O4        22.4950  -14.1850   -9.4580 O.3   1028  MAN1028    -0.2176
     10  O5        21.6380  -11.6570   -6.9020 O.3   1028  MAN1028    -0.3481
     11  O6        24.4070  -11.8420   -6.6310 O.3   1028  MAN1028    -0.2176
@<TRIPOS>BOND
     1     8     3    1
     2     9     4    1
     3     4     3    1
     4     4     5    1
     5     7     2    1
     6     3     2    1
     7     2     1    1
     8     6     5    1
     9     6    11    1
    10     5    10    1
    11    10     1    1
