@<TRIPOS>MOLECULE
3ogv_PTQ_A_1.pdb
 20 21 0 0 0
SMALL
GASTEIGER

@<TRIPOS>ATOM
      1  C1        -9.5570   -5.1880   -4.5950 C.3   1024  PTQ1024     0.1955
      2  O1        -8.9220   -6.1220   -3.6850 O.3   1024  PTQ1024    -0.3398
      3  S1       -10.9830   -6.1020   -5.3190 S.3   1024  PTQ1024    -0.1090
      4  C2       -10.0510   -3.9420   -3.9420 C.3   1024  PTQ1024     0.2219
      5  O2       -10.5710   -3.0220   -4.8600 O.3   1024  PTQ1024    -0.2167
      6  C3        -9.0110   -3.2780   -3.0380 C.3   1024  PTQ1024     0.2181
      7  O3        -9.6070   -2.2780   -2.2660 O.3   1024  PTQ1024    -0.2175
      8  C4        -8.2970   -4.3150   -2.1930 C.3   1024  PTQ1024     0.2143
      9  O4        -9.2890   -4.7770   -1.2210 O.3   1024  PTQ1024    -0.2176
     10  C5        -7.7660   -5.4760   -2.9570 C.3   1024  PTQ1024     0.1820
     11  O5        -6.0620   -6.1560   -1.4750 O.3   1024  PTQ1024    -0.2176
     12  C6        -7.2010   -6.6740   -2.2680 C.3   1024  PTQ1024     0.2142
     13  C7       -10.1400   -7.4670   -6.1570 C.3   1024  PTQ1024     0.0646
     14  C8       -11.0770   -8.5570   -6.6070 C.3   1024  PTQ1024     0.0381
     15  C9       -10.3560   -9.6770   -7.2440 C.ar  1024  PTQ1024    -0.0213
     16  C10       -9.8990  -10.7360   -6.4680 C.ar  1024  PTQ1024    -0.0042
     17  C11       -9.1590  -11.7550   -7.1050 C.ar  1024  PTQ1024    -0.0003
     18  C12       -8.8940  -11.6730   -8.4900 C.ar  1024  PTQ1024    -0.0000
     19  C13       -9.3390  -10.5850   -9.2000 C.ar  1024  PTQ1024    -0.0003
     20  C14      -10.0020   -9.5930   -8.5980 C.ar  1024  PTQ1024    -0.0042
@<TRIPOS>BOND
     1    19    20   ar
     2    19    18   ar
     3    20    15   ar
     4    18    17   ar
     5    15    14    1
     6    15    16   ar
     7    17    16   ar
     8    14    13    1
     9    13     3    1
    10     3     1    1
    11     5     4    1
    12     1     4    1
    13     1     2    1
    14     4     6    1
    15     2    10    1
    16     6     7    1
    17     6     8    1
    18    10    12    1
    19    10     8    1
    20    12    11    1
    21     8     9    1
