@<TRIPOS>MOLECULE
3ogv_NAG_A_1.pdb
 14 14 0 0 0
SMALL
GASTEIGER

@<TRIPOS>ATOM
      1  C1        19.3610   -5.9380   -2.4740 C.3   1026  NAG1026     0.1665
      2  C2        19.6770   -6.6160   -3.8210 C.3   1026  NAG1026     0.1576
      3  C3        18.6630   -7.7500   -4.0710 C.3   1026  NAG1026     0.2069
      4  C4        18.7270   -8.7110   -2.8800 C.3   1026  NAG1026     0.2134
      5  C5        18.4170   -7.9500   -1.5830 C.3   1026  NAG1026     0.1809
      6  C6        18.5360   -8.7870   -0.3000 C.3   1026  NAG1026     0.2141
      7  C7        20.5750   -4.9170   -5.3960 C.2   1026  NAG1026     0.2420
      8  C8        20.2770   -3.7740   -6.3030 C.3   1026  NAG1026     0.0964
      9  N2        19.5490   -5.5940   -4.8430 N.am  1026  NAG1026    -0.2019
     10  O3        19.0490   -8.4290   -5.2430 O.3   1026  NAG1026    -0.2184
     11  O4        17.6570   -9.6700   -3.1060 O.3   1026  NAG1026    -0.2176
     12  O5        19.4440   -6.9380   -1.4520 O.3   1026  NAG1026    -0.3489
     13  O6        19.7670   -9.4650   -0.2520 O.3   1026  NAG1026    -0.2176
     14  O7        21.7280   -5.2510   -5.1140 O.2   1026  NAG1026    -0.2733
@<TRIPOS>BOND
     1     8     7    1
     2     7    14    2
     3     7     9   am
     4    10     3    1
     5     9     2    1
     6     3     2    1
     7     3     4    1
     8     2     1    1
     9    11     4    1
    10     4     5    1
    11     1    12    1
    12     5    12    1
    13     5     6    1
    14     6    13    1
