@<TRIPOS>MOLECULE
3ogw_IMN_A_1.pdb
 25 27 0 0 0
SMALL
GASTEIGER

@<TRIPOS>ATOM
      1  C        -23.4340    3.5250   31.7430 C.ar  597  IMN597      0.0664
      2  C1       -24.8080    3.1960   32.1530 C.ar  597  IMN597      0.0169
      3  C2       -25.0310    2.2880   33.1690 C.ar  597  IMN597      0.0381
      4  C3       -23.9090    1.7340   33.7790 C.ar  597  IMN597      0.1388
      5  C4       -22.5960    2.0300   33.3790 C.ar  597  IMN597      0.0384
      6  C5       -22.3420    2.9370   32.3620 C.ar  597  IMN597      0.0207
      7  C6       -23.7950   -0.5000   34.2370 C.3   597  IMN597      0.2525
      8  C7       -25.7220    3.9990   31.2960 C.ar  597  IMN597      0.0027
      9  C8       -24.8170    4.7600   30.3940 C.ar  597  IMN597      0.0411
     10  C9       -22.4650    4.8530   30.1830 C.2   597  IMN597      0.2644
     11  C10      -21.8210    4.0640   29.0750 C.ar  597  IMN597      0.0565
     12  C11      -21.7070    2.7150   29.1680 C.ar  597  IMN597      0.0056
     13  C12      -21.0840    2.0010   28.1830 C.ar  597  IMN597      0.0115
     14  C13      -20.5890    2.6770   27.0920 C.ar  597  IMN597      0.0577
     15  C14      -20.6810    4.0270   26.9840 C.ar  597  IMN597      0.0115
     16  C15      -21.2940    4.7180   27.9820 C.ar  597  IMN597      0.0056
     17  C16      -25.2230    5.7250   29.3200 C.3   597  IMN597      0.0501
     18  C17      -27.2240    4.0210   31.3110 C.3   597  IMN597      0.1415
     19  C18      -27.6810    2.7490   30.6320 C.2   597  IMN597      0.3693
     20  N        -23.5820    4.3970   30.7600 N.ar  597  IMN597     -0.2785
     21  O        -24.0800    0.8090   34.7470 O.3   597  IMN597     -0.4714
     22  O1       -21.9160    5.8400   30.6270 O.2   597  IMN597     -0.2666
     23  O2       -28.8930    2.5990   30.4080 O.co2 597  IMN597     -0.2453
     24  O3       -26.8420    1.8810   30.3210 O.co2 597  IMN597     -0.2453
     25 CL        -19.7220    1.7960   25.8260 Cl    597  IMN597     -0.0822
@<TRIPOS>BOND
     1    25    14    1
     2    15    14   ar
     3    15    16   ar
     4    14    13   ar
     5    16    11   ar
     6    13    12   ar
     7    11    12   ar
     8    11    10    1
     9    17     9    1
    10    10    22    2
    11    10    20   am
    12    24    19   ar
    13     9    20   ar
    14     9     8   ar
    15    23    19   ar
    16    19    18    1
    17    20     1   ar
    18     8    18    1
    19     8     2   ar
    20     1     2   ar
    21     1     6   ar
    22     2     3   ar
    23     6     5   ar
    24     3     4   ar
    25     5     4   ar
    26     4    21    1
    27     7    21    1
