@<TRIPOS>MOLECULE
3ogw_HEM_A_1.pdb
 43 50 0 0 0
SMALL
GASTEIGER

@<TRIPOS>ATOM
      1  CHA      -17.8060    0.0710   28.7760 C.2   605  HEM605      0.0000
      2  CHB      -17.5770    4.8640   28.5210 C.2   605  HEM605      0.0000
      3  CHC      -15.6360    4.5720   24.0650 C.2   605  HEM605      0.0000
      4  CHD      -16.0130   -0.2140   24.2830 C.2   605  HEM605      0.0000
      5  C1A      -17.8650    1.3790   29.0830 C.2   605  HEM605      0.0000
      6  C2A      -18.3870    1.8770   30.3520 C.2   605  HEM605      0.0000
      7  C3A      -18.3280    3.2270   30.2840 C.2   605  HEM605      0.0000
      8  C4A      -17.7760    3.5810   28.9780 C.2   605  HEM605      0.0000
      9  CMA      -18.7640    4.2360   31.3700 C.3   605  HEM605      0.0000
     10  CAA      -18.8950    0.9910   31.5310 C.3   605  HEM605      0.0000
     11  CBA      -17.6730    0.6180   32.3440 C.3   605  HEM605      0.0000
     12  CGA      -18.0740   -0.3610   33.4150 C.2   605  HEM605      0.0000
     13  O1A      -17.5020   -1.4590   33.4410 O.co2 605  HEM605      0.0000
     14  O2A      -18.9650   -0.0090   34.2330 O.co2 605  HEM605      0.0000
     15  C1B      -17.1190    5.1890   27.2590 C.ar  605  HEM605      0.0000
     16  C2B      -17.0810    6.5100   26.6950 C.ar  605  HEM605      0.0000
     17  C3B      -16.5500    6.4380   25.4800 C.ar  605  HEM605      0.0000
     18  C4B      -16.2260    5.0420   25.2270 C.ar  605  HEM605      0.0000
     19  CMB      -17.6020    7.7830   27.4090 C.3   605  HEM605      0.0000
     20  CAB      -16.2910    7.5590   24.4390 C.2   605  HEM605      0.0000
     21  CBB      -15.8800    8.8320   24.7550 C.2   605  HEM605      0.0000
     22  C1C      -15.5570    3.2250   23.7440 C.2   605  HEM605      0.0000
     23  C2C      -14.9970    2.6940   22.5350 C.2   605  HEM605      0.0000
     24  C3C      -15.0920    1.3490   22.5900 C.2   605  HEM605      0.0000
     25  C4C      -15.7510    1.0330   23.8390 C.2   605  HEM605      0.0000
     26  CMC      -14.3660    3.5810   21.3990 C.3   605  HEM605      0.0000
     27  CAC      -14.6870    0.2960   21.5110 C.2   605  HEM605      0.0000
     28  CBC      -13.9930    0.6070   20.4190 C.2   605  HEM605      0.0000
     29  C1D      -16.5800   -0.5330   25.4670 C.ar  605  HEM605      0.0000
     30  C2D      -17.1120   -1.8470   25.7470 C.ar  605  HEM605      0.0000
     31  C3D      -17.6610   -1.7520   27.1450 C.ar  605  HEM605      0.0000
     32  C4D      -17.4900   -0.3650   27.5350 C.ar  605  HEM605      0.0000
     33  CMD      -17.0990   -3.1160   24.8710 C.3   605  HEM605      0.0000
     34  CAD      -18.3600   -2.9130   27.8670 C.3   605  HEM605      0.0000
     35  CBD      -19.8420   -2.9550   27.3820 C.3   605  HEM605      0.0000
     36  CGD      -20.6200   -3.9920   28.2550 C.2   605  HEM605      0.0000
     37  O1D      -21.2710   -3.6220   29.2910 O.co2 605  HEM605      0.0000
     38  O2D      -20.6450   -5.2370   27.9100 O.co2 605  HEM605      0.0000
     39  NA       -17.4230    2.4190   28.2800 N.2   605  HEM605      0.0000
     40  NB       -16.5650    4.3090   26.3550 N.ar  605  HEM605      0.0000
     41  NC       -15.9750    2.1870   24.5490 N.2   605  HEM605      0.0000
     42  ND       -16.7810    0.3340   26.5450 N.ar  605  HEM605      0.0000
     43 FE        -16.5930    2.3030   26.4530 Fe    605  HEM605      0.0000
@<TRIPOS>BOND
     1    28    27    2
     2    26    23    1
     3    27    24    1
     4    23    24    2
     5    23    22    1
     6    24    25    1
     7    22     3    2
     8    22    41    1
     9    25     4    1
    10    25    41    2
    11     3    18    1
    12     4    29    2
    13    20    21    2
    14    20    17    1
    15    41    43    1
    16    33    30    1
    17    18    17   ar
    18    18    40   ar
    19    29    30   ar
    20    29    42   ar
    21    17    16   ar
    22    30    31   ar
    23    40    43    1
    24    40    15   ar
    25    43    42    1
    26    43    39    1
    27    42    32   ar
    28    16    15   ar
    29    16    19    1
    30    31    32   ar
    31    31    34    1
    32    15     2    1
    33    35    34    1
    34    35    36    1
    35    32     1    2
    36    38    36   ar
    37    36    37   ar
    38    39     8    1
    39    39     5    2
    40     2     8    2
    41     1     5    1
    42     8     7    1
    43     5     6    1
    44     7     6    2
    45     7     9    1
    46     6    10    1
    47    10    11    1
    48    11    12    1
    49    12    13   ar
    50    12    14   ar
