@<TRIPOS>MOLECULE
3ogx_H1S_C_1.pdb
 35 36 0 0 0
SMALL
GASTEIGER

@<TRIPOS>ATOM
      1  C1       -17.7750  -20.0250  -22.9800 C.3   173  H1S173      0.1793
      2  C2       -19.1990  -19.4920  -23.0300 C.3   173  H1S173      0.1794
      3  O3       -16.8150  -19.0170  -23.3170 O.3   173  H1S173     -0.3258
      4  C4       -17.4570  -20.6270  -21.6150 C.3   173  H1S173      0.2042
      5  O5       -20.0680  -20.6030  -22.7900 O.3   173  H1S173     -0.3246
      6  C6       -19.5660  -18.8170  -24.3600 C.3   173  H1S173      0.2045
      7  C7       -15.9740  -19.4750  -24.3940 C.3   173  H1S173      0.2689
      8  C8       -18.5960  -21.4990  -21.0630 C.3   173  H1S173      0.1857
      9  O9       -16.3080  -21.4820  -21.7930 O.3   173  H1S173     -0.2187
     10  C10      -20.0190  -21.0410  -21.4180 C.3   173  H1S173      0.2895
     11  O11      -20.8040  -18.0850  -24.1210 O.3   173  H1S173     -0.2384
     12  C12      -16.0610  -18.5080  -25.5760 C.3   173  H1S173      0.2293
     13  O13      -14.6150  -19.6840  -23.9610 O.3   173  H1S173     -0.3194
     14  N14      -18.4660  -21.7140  -19.6280 N.3   173  H1S173     -0.1129
     15  O15      -20.4730  -20.0110  -20.5090 O.3   173  H1S173     -0.1882
     16  S16      -21.4060  -17.0490  -25.1460 S.3   173  H1S173     -0.0001
     17  C17      -14.7390  -18.3660  -26.3170 C.3   173  H1S173      0.1894
     18  O18      -17.0770  -18.9430  -26.4960 O.3   173  H1S173     -0.2358
     19  C19      -13.6940  -20.1360  -25.0140 C.3   173  H1S173      0.2227
     20  S20      -17.0310  -21.5910  -18.8920 S.3   173  H1S173     -0.1288
     21  O21      -22.4170  -17.6950  -26.0570 O.2   173  H1S173     -0.3452
     22  O22      -22.0560  -15.9370  -24.3910 O.3   173  H1S173     -0.2682
     23  O23      -20.3090  -16.4150  -25.9420 O.2   173  H1S173     -0.3452
     24  C24      -13.9510  -19.6610  -26.2340 C.3   173  H1S173      0.0770
     25  O25      -14.0100  -17.2740  -25.7380 O.3   173  H1S173     -0.2202
     26  S26      -16.7150  -19.8270  -27.7220 S.3   173  H1S173      0.0000
     27  C27      -12.5300  -21.0270  -24.7610 C.2   173  H1S173      0.3915
     28  O28      -16.4900  -20.2310  -19.1290 O.3   173  H1S173     -0.2918
     29  O29      -17.1750  -21.7200  -17.4140 O.3   173  H1S173     -0.2918
     30  O30      -16.0820  -22.5800  -19.5020 O.3   173  H1S173     -0.2918
     31  O31      -16.0710  -18.7640  -28.5440 O.2   173  H1S173     -0.3452
     32  O32      -15.9940  -21.0940  -28.0190 O.3   173  H1S173     -0.2682
     33  O33      -18.1410  -19.8840  -28.1170 O.2   173  H1S173     -0.3452
     34  O34      -12.3930  -21.6170  -23.6590 O.co2 173  H1S173     -0.2430
     35  O35      -11.6640  -21.1930  -25.6510 O.co2 173  H1S173     -0.2430
@<TRIPOS>BOND
     1    31    26    2
     2    33    26    2
     3    32    26    1
     4    26    18    1
     5    18    12    1
     6    17    24    1
     7    17    25    1
     8    17    12    1
     9    24    19    1
    10    21    16    2
    11    23    16    2
    12    35    27   ar
    13    12     7    1
    14    16    22    1
    15    16    11    1
    16    19    27    1
    17    19    13    1
    18    27    34   ar
    19     7    13    1
    20     7     3    1
    21     6    11    1
    22     6     2    1
    23     3     1    1
    24     2     1    1
    25     2     5    1
    26     1     4    1
    27     5    10    1
    28     9     4    1
    29     4     8    1
    30    10     8    1
    31    10    15    1
    32     8    14    1
    33    14    20    1
    34    30    20    1
    35    28    20    1
    36    20    29    1
