@<TRIPOS>MOLECULE
3oh0_UTP_A_1.pdb
 29 30 0 0 0
SMALL
GASTEIGER

@<TRIPOS>ATOM
      1  PA        11.8080   10.6350   26.9770 P.3   642  UTP642      0.2189
      2  O1A       11.9310   11.8300   27.8400 O.3   642  UTP642     -0.4371
      3  O2A       12.9680   10.1760   26.1830 O.2   642  UTP642     -0.5170
      4  O3A       10.5500   10.8260   25.9940 O.3   642  UTP642     -0.2700
      5  O5'       11.3020    9.4220   27.8860 O.3   642  UTP642     -0.3112
      6  PB         9.2300   11.6090   26.4990 P.3   642  UTP642      0.2277
      7  O1B        9.1410   12.8860   25.7610 O.2   642  UTP642     -0.5168
      8  O2B        9.2290   11.6180   27.9780 O.3   642  UTP642     -0.4368
      9  O3B        8.0610   10.6430   25.9880 O.3   642  UTP642     -0.2258
     10  PG         7.8880    9.2350   26.7230 P.3   642  UTP642      0.5373
     11  O1G        9.1090    8.3980   26.6990 O.3   642  UTP642     -0.1143
     12  O2G        7.3670    9.5640   28.2220 O.3   642  UTP642     -0.1143
     13  O3G        6.6720    8.4720   26.0280 O.2   642  UTP642     -0.2221
     14  C5'       11.7980    8.1030   27.6530 C.3   642  UTP642      0.1813
     15  C4'       11.0940    7.0740   28.5860 C.3   642  UTP642      0.1799
     16  O4'       10.8740    8.3410   29.4100 O.3   642  UTP642     -0.3320
     17  C1'       10.0980    7.9760   30.5820 C.3   642  UTP642      0.2401
     18  C2'        9.0320    7.6680   29.5460 C.3   642  UTP642      0.2319
     19  O2'        7.8220    7.2850   30.1870 O.3   642  UTP642     -0.2157
     20  C3'        9.7490    6.4370   29.0310 C.3   642  UTP642      0.2158
     21  O3'        9.9770    5.4430   30.0160 O.3   642  UTP642     -0.2175
     22  N1         9.8560    9.1920   31.4280 N.am  642  UTP642     -0.1766
     23  C6        10.1690   10.4490   30.9040 C.2   642  UTP642      0.0929
     24  C2         9.3480    9.1250   32.7400 C.1   642  UTP642      0.2845
     25  O2         9.0550    8.0500   33.2620 O.2   642  UTP642     -0.1918
     26  N3         9.1600   10.3010   33.4800 N.2   642  UTP642     -0.2452
     27  C4         9.4760   11.5510   32.9420 C.1   642  UTP642      0.2182
     28  O4         9.3090   12.5800   33.6050 O.2   642  UTP642     -0.2085
     29  C5         9.9790   11.6130   31.6470 C.2   642  UTP642      0.1242
@<TRIPOS>BOND
     1     7     6    2
     2     9     6    1
     3     9    10    1
     4     4     6    1
     5     4     1    1
     6    13    10    2
     7     3     1    2
     8     6     8    1
     9    11    10    1
    10    10    12    1
    11     1     2    1
    12     1     5    1
    13    14     5    1
    14    14    15    1
    15    15    20    1
    16    15    16    1
    17    20    18    1
    18    20    21    1
    19    16    17    1
    20    18    19    1
    21    18    17    1
    22    17    22    1
    23    23    22    1
    24    23    29    2
    25    22    24   am
    26    29    27    1
    27    24    25    2
    28    24    26    2
    29    27    26    2
    30    27    28    2
