@<TRIPOS>MOLECULE
3oh1_UGB_A_1.pdb
 37 39 0 0 0
SMALL
GASTEIGER

@<TRIPOS>ATOM
      1  N1         9.6190    9.1830   31.8900 N.am  642  UGB642     -0.1766
      2  C2         9.1280    9.1990   33.2400 C.1   642  UGB642      0.2845
      3  O2         8.8760    8.1320   33.7680 O.2   642  UGB642     -0.1918
      4  N3         8.9640   10.4500   33.8880 N.2   642  UGB642     -0.2452
      5  C4         9.2700   11.5600   33.2230 C.1   642  UGB642      0.2182
      6  O4         9.1120   12.7520   33.8260 O.2   642  UGB642     -0.2085
      7  C5         9.7580   11.5920   31.8610 C.2   642  UGB642      0.1242
      8  C6         9.9170   10.3900   31.2480 C.2   642  UGB642      0.0929
      9  PA        11.3320    9.8170   26.5450 P.3   642  UGB642      0.2189
     10  PB        14.0560   10.8460   26.4660 P.3   642  UGB642      0.2208
     11  O'P       16.9100    6.0280   23.2980 O.co2 642  UGB642     -0.2429
     12  O'Q       14.9650    6.1820   24.3120 O.co2 642  UGB642     -0.2429
     13  C1'       15.9760    8.9610   26.9270 C.3   642  UGB642      0.2746
     14  O1A       10.8690    8.6000   25.6570 O.2   642  UGB642     -0.5170
     15  O1B       13.8170   10.9990   27.9180 O.3   642  UGB642     -0.4371
     16  C1D        9.8740    7.9600   31.0920 C.3   642  UGB642      0.2401
     17  C2'       17.4570    9.0980   27.4620 C.3   642  UGB642      0.2409
     18  O2'       17.6380   10.1840   28.3210 O.3   642  UGB642     -0.2149
     19  O2A       10.3190   10.9000   26.7090 O.3   642  UGB642     -0.4371
     20  O2B       14.3720   12.1410   25.6390 O.2   642  UGB642     -0.5170
     21  C2D        8.9700    7.6980   29.8320 C.3   642  UGB642      0.2319
     22  O2D        7.7400    7.2280   30.2730 O.3   642  UGB642     -0.2157
     23  C3'       18.4020    9.1110   26.1850 C.3   642  UGB642      0.2203
     24  O3'       19.7530    9.0980   26.5450 O.3   642  UGB642     -0.2174
     25  O3A       12.6630   10.3610   25.8870 O.3   642  UGB642     -0.2703
     26  O3B       15.4460   10.0190   26.1660 O.3   642  UGB642     -0.2857
     27  C3D        9.8880    6.6500   29.0970 C.3   642  UGB642      0.2158
     28  O3D        9.6740    5.3290   29.4550 O.3   642  UGB642     -0.2175
     29  C4'       18.1030    7.8900   25.2540 C.3   642  UGB642      0.2229
     30  O4'       18.5830    6.7030   25.8110 O.3   642  UGB642     -0.2171
     31  C4D       11.3400    7.1320   29.5160 C.3   642  UGB642      0.1799
     32  O4D       11.2350    7.7000   30.8100 O.3   642  UGB642     -0.3320
     33  C5'       16.5580    7.8080   24.9790 C.3   642  UGB642      0.2529
     34  O5'       15.8070    7.7760   26.1750 O.3   642  UGB642     -0.3167
     35  C5D       12.0570    7.9370   28.3970 C.3   642  UGB642      0.1813
     36  O5D       11.5530    9.1930   28.0670 O.3   642  UGB642     -0.3112
     37  C6'       16.2280    6.6140   24.1120 C.2   642  UGB642      0.3941
@<TRIPOS>BOND
     1    11    37   ar
     2    37    12   ar
     3    37    33    1
     4    33    29    1
     5    33    34    1
     6    29    30    1
     7    29    23    1
     8    20    10    2
     9    14     9    2
    10    25    10    1
    11    25     9    1
    12    26    10    1
    13    26    13    1
    14    34    13    1
    15    23    24    1
    16    23    17    1
    17    10    15    1
    18     9    19    1
    19     9    36    1
    20    13    17    1
    21    17    18    1
    22    36    35    1
    23    35    31    1
    24    27    28    1
    25    27    31    1
    26    27    21    1
    27    31    32    1
    28    21    22    1
    29    21    16    1
    30    32    16    1
    31    16     1    1
    32     8     7    2
    33     8     1    1
    34     7     5    1
    35     1     2   am
    36     5     6    2
    37     5     4    2
    38     2     3    2
    39     2     4    2
