@<TRIPOS>MOLECULE
3oh2_GDU_A_1.pdb
 36 38 0 0 0
SMALL
GASTEIGER

@<TRIPOS>ATOM
      1  N1         9.2510    9.2740   32.0940 N.am  642  GDU642     -0.1766
      2  C2         8.8340    9.3290   33.4610 C.1   642  GDU642      0.2845
      3  N3         8.6800   10.5530   34.1460 N.2   642  GDU642     -0.2452
      4  C4         8.9530   11.6570   33.4640 C.1   642  GDU642      0.2182
      5  C5         9.3670   11.6870   32.0940 C.2   642  GDU642      0.1242
      6  C6         9.4970   10.4920   31.4510 C.2   642  GDU642      0.0929
      7  O2         8.6170    8.2340   33.9680 O.2   642  GDU642     -0.1918
      8  O4         8.7600   12.7960   34.1710 O.2   642  GDU642     -0.2085
      9  C1D        9.4760    7.9940   31.3530 C.3   642  GDU642      0.2401
     10  C2D        8.6180    7.7620   30.0630 C.3   642  GDU642      0.2319
     11  O2D        7.3470    7.3470   30.3960 O.3   642  GDU642     -0.2157
     12  C3D        9.5100    6.7060   29.3050 C.3   642  GDU642      0.2158
     13  C4D       10.8710    7.3770   29.6510 C.3   642  GDU642      0.1799
     14  O4D       10.8440    7.7730   31.0200 O.3   642  GDU642     -0.3320
     15  O3D        9.2930    5.3810   29.6790 O.3   642  GDU642     -0.2175
     16  C5D       10.9030    8.7990   29.0140 C.3   642  GDU642      0.1813
     17  O5D       11.8640    8.8400   28.0540 O.3   642  GDU642     -0.3112
     18  PA        11.4350    9.6100   26.6770 P.3   642  GDU642      0.2189
     19  O1A       10.8900    8.4750   25.7580 O.2   642  GDU642     -0.5170
     20  O2A       10.4450   10.7220   26.8560 O.3   642  GDU642     -0.4371
     21  O3A       12.7470   10.0760   26.0250 O.3   642  GDU642     -0.2703
     22  PB        14.0150   10.8010   26.6950 P.3   642  GDU642      0.2208
     23  O1B       14.1300   11.8970   25.5970 O.2   642  GDU642     -0.5170
     24  O2B       13.5640   11.1510   28.0740 O.3   642  GDU642     -0.4371
     25  O3B       15.3310    9.9440   26.5650 O.3   642  GDU642     -0.2857
     26  C1'       15.7220    8.7600   27.2040 C.3   642  GDU642      0.2742
     27  C2'       17.2290    8.9340   27.5720 C.3   642  GDU642      0.2409
     28  C3'       18.0860    8.9440   26.2810 C.3   642  GDU642      0.2198
     29  C4'       17.7890    7.6360   25.4640 C.3   642  GDU642      0.2144
     30  C5'       16.2710    7.4340   25.1830 C.3   642  GDU642      0.1835
     31  C6'       15.9950    6.0190   24.5370 C.3   642  GDU642      0.2142
     32  O2'       17.3350   10.1280   28.2830 O.3   642  GDU642     -0.2149
     33  O3'       19.4570    9.0390   26.5230 O.3   642  GDU642     -0.2174
     34  O4'       18.1900    6.5730   26.2890 O.3   642  GDU642     -0.2176
     35  O5'       15.4440    7.6960   26.3020 O.3   642  GDU642     -0.3254
     36  O6'       14.6270    5.9700   24.1920 O.3   642  GDU642     -0.2176
@<TRIPOS>BOND
     1    36    31    1
     2    31    30    1
     3    30    29    1
     4    30    35    1
     5    29    28    1
     6    29    34    1
     7    23    22    2
     8    19    18    2
     9    21    18    1
    10    21    22    1
    11    28    33    1
    12    28    27    1
    13    35    26    1
    14    25    22    1
    15    25    26    1
    16    18    20    1
    17    18    17    1
    18    22    24    1
    19    26    27    1
    20    27    32    1
    21    17    16    1
    22    16    13    1
    23    12    13    1
    24    12    15    1
    25    12    10    1
    26    13    14    1
    27    10    11    1
    28    10     9    1
    29    14     9    1
    30     9     1    1
    31     6     1    1
    32     6     5    2
    33     1     2   am
    34     5     4    1
    35     2     7    2
    36     2     3    2
    37     4     3    2
    38     4     8    2
