@<TRIPOS>MOLECULE
3oh3_UAD_A_1.pdb
 34 36 0 0 0
SMALL
GASTEIGER

@<TRIPOS>ATOM
      1  N1         9.7190    9.7520   31.8730 N.am  642  UAD642     -0.1766
      2  C2         9.2430    9.8420   33.2430 C.1   642  UAD642      0.2845
      3  O2         9.0160    8.8020   33.8290 O.2   642  UAD642     -0.1918
      4  N3         9.0480   11.1060   33.8670 N.2   642  UAD642     -0.2452
      5  C4         9.3110   12.2080   33.1740 C.1   642  UAD642      0.2182
      6  O4         9.1050   13.3600   33.8590 O.2   642  UAD642     -0.2085
      7  C5         9.7820   12.1830   31.8140 C.2   642  UAD642      0.1242
      8  C6         9.9630   10.9600   31.2250 C.2   642  UAD642      0.0929
      9  PA        11.5450   10.2540   26.7030 P.3   642  UAD642      0.2189
     10  PB        14.3560   11.2550   26.7350 P.3   642  UAD642      0.2208
     11  O01       11.3350    9.0400   25.7110 O.2   642  UAD642     -0.5170
     12  O02       12.8750   10.9760   26.1880 O.3   642  UAD642     -0.2703
     13  C1A       16.2770    9.4880   26.2920 C.3   642  UAD642      0.2742
     14  O1A       10.4570   11.2470   26.5680 O.3   642  UAD642     -0.4371
     15  O1B       14.3630   12.2300   27.8440 O.3   642  UAD642     -0.4371
     16  C1C        9.9800    8.4910   31.0700 C.3   642  UAD642      0.2401
     17  C2A       17.6150    9.3600   27.0670 C.3   642  UAD642      0.2409
     18  O2A       17.8630   10.3980   27.9560 O.3   642  UAD642     -0.2149
     19  O2B       15.0480   11.7760   25.4070 O.2   642  UAD642     -0.5170
     20  C2C        9.1050    8.0980   29.8360 C.3   642  UAD642      0.2319
     21  O2C        7.8440    7.6460   30.1780 O.3   642  UAD642     -0.2157
     22  C3A       18.6330    9.2370   25.8870 C.3   642  UAD642      0.2198
     23  O3A       19.9180    9.2320   26.4200 O.3   642  UAD642     -0.2174
     24  O3B       15.1950    9.9020   27.0580 O.3   642  UAD642     -0.2857
     25  C3C       10.0230    7.0810   29.0730 C.3   642  UAD642      0.2158
     26  O3C        9.6920    5.7450   29.3040 O.3   642  UAD642     -0.2175
     27  C4A       18.3220    7.9310   25.0940 C.3   642  UAD642      0.2143
     28  O4A       18.6990    6.8320   25.8810 O.3   642  UAD642     -0.2176
     29  C4C       11.4810    7.4830   29.4950 C.3   642  UAD642      0.1799
     30  O4C       11.3200    8.2380   30.7010 O.3   642  UAD642     -0.3320
     31  O5A       15.9180    8.2380   25.7770 O.3   642  UAD642     -0.3255
     32  C5C       12.2700    8.3130   28.4080 C.3   642  UAD642      0.1813
     33  O5C       11.5660    9.5300   28.1670 O.3   642  UAD642     -0.3112
     34  C5M       16.7970    7.8330   24.7470 C.3   642  UAD642      0.1803
@<TRIPOS>BOND
     1    34    27    1
     2    34    31    1
     3    27    28    1
     4    27    22    1
     5    19    10    2
     6    11     9    2
     7    31    13    1
     8    22    23    1
     9    22    17    1
    10    12     9    1
    11    12    10    1
    12    13    24    1
    13    13    17    1
    14    14     9    1
    15     9    33    1
    16    10    24    1
    17    10    15    1
    18    17    18    1
    19    33    32    1
    20    32    29    1
    21    25    26    1
    22    25    29    1
    23    25    20    1
    24    29    30    1
    25    20    21    1
    26    20    16    1
    27    30    16    1
    28    16     1    1
    29     8     7    2
    30     8     1    1
    31     7     5    1
    32     1     2   am
    33     5     6    2
    34     5     4    2
    35     2     3    2
    36     2     4    2
