@<TRIPOS>MOLECULE
3oh4_UPG_A_1.pdb
 36 38 0 0 0
SMALL
GASTEIGER

@<TRIPOS>ATOM
      1  N1         9.3130    9.1690   32.1050 N.am  7566  UPG7566    -0.1766
      2  C2         8.7680    9.1920   33.4400 C.1   7566  UPG7566     0.2845
      3  N3         8.5670   10.4290   34.1040 N.2   7566  UPG7566    -0.2452
      4  C4         8.8960   11.5440   33.4630 C.1   7566  UPG7566     0.2182
      5  C5         9.4400   11.5830   32.1240 C.2   7566  UPG7566     0.1242
      6  C6         9.6220   10.3830   31.5040 C.2   7566  UPG7566     0.0929
      7  O2         8.4900    8.1170   33.9400 O.2   7566  UPG7566    -0.1918
      8  O4         8.7180   12.7400   34.0440 O.2   7566  UPG7566    -0.2085
      9  C1C        9.5990    7.9390   31.2900 C.3   7566  UPG7566     0.2401
     10  C2C        8.7860    7.6910   29.9850 C.3   7566  UPG7566     0.2319
     11  O2C        7.5870    7.1150   30.4020 O.3   7566  UPG7566    -0.2157
     12  C3C        9.7250    6.6530   29.2820 C.3   7566  UPG7566     0.2158
     13  C4C       11.1500    7.0120   29.7850 C.3   7566  UPG7566     0.1799
     14  O4C       10.9590    7.7720   30.9840 O.3   7566  UPG7566    -0.3320
     15  O3C        9.3730    5.3400   29.5690 O.3   7566  UPG7566    -0.2175
     16  C5C       12.0900    7.8380   28.8260 C.3   7566  UPG7566     0.1813
     17  O5C       11.3630    8.9260   28.2820 O.3   7566  UPG7566    -0.3112
     18  PA        11.4030    9.4270   26.7440 P.3   7566  UPG7566     0.2189
     19  O1A       10.4890   10.7080   26.7940 O.3   7566  UPG7566    -0.4371
     20  O2A       11.0360    8.3900   25.7660 O.2   7566  UPG7566    -0.5170
     21  O3A       12.8480    9.7550   26.1770 O.3   7566  UPG7566    -0.2703
     22  PB        13.9910   10.7640   26.7050 P.3   7566  UPG7566     0.2208
     23  O1B       13.7560   10.8900   28.2530 O.3   7566  UPG7566    -0.4371
     24  O2B       13.9530   11.7780   25.6420 O.2   7566  UPG7566    -0.5170
     25  O3B       15.3720    9.9520   26.7060 O.3   7566  UPG7566    -0.2857
     26  C1'       15.8390    8.7750   27.2410 C.3   7566  UPG7566     0.2742
     27  C2'       17.3210    8.8550   27.7670 C.3   7566  UPG7566     0.2409
     28  C3'       18.1830    8.9580   26.4800 C.3   7566  UPG7566     0.2198
     29  C4'       18.0070    7.6440   25.6730 C.3   7566  UPG7566     0.2144
     30  C5'       16.5130    7.5390   25.2760 C.3   7566  UPG7566     0.1835
     31  C6'       16.2380    6.2780   24.4340 C.3   7566  UPG7566     0.2142
     32  O2'       17.4010   10.0700   28.4300 O.3   7566  UPG7566    -0.2149
     33  O3'       19.5160    9.1130   26.8490 O.3   7566  UPG7566    -0.2174
     34  O4'       18.8620    7.5440   24.5840 O.3   7566  UPG7566    -0.2176
     35  O5'       15.6050    7.6820   26.3450 O.3   7566  UPG7566    -0.3254
     36  O6'       14.8990    5.9880   24.1970 O.3   7566  UPG7566    -0.2176
@<TRIPOS>BOND
     1    36    31    1
     2    31    30    1
     3    34    29    1
     4    30    29    1
     5    30    35    1
     6    24    22    2
     7    29    28    1
     8    20    18    2
     9    21    22    1
    10    21    18    1
    11    35    26    1
    12    28    33    1
    13    28    27    1
    14    22    25    1
    15    22    23    1
    16    25    26    1
    17    18    19    1
    18    18    17    1
    19    26    27    1
    20    27    32    1
    21    17    16    1
    22    16    13    1
    23    12    15    1
    24    12    13    1
    25    12    10    1
    26    13    14    1
    27    10    11    1
    28    10     9    1
    29    14     9    1
    30     9     1    1
    31     6     1    1
    32     6     5    2
    33     1     2   am
    34     5     4    1
    35     2     7    2
    36     2     3    2
    37     4     8    2
    38     4     3    2
