@<TRIPOS>MOLECULE
3oha_DCP_A_1.pdb
 28 29 0 0 0
SMALL
GASTEIGER

@<TRIPOS>ATOM
      1  N1       -23.4670   32.0960   -3.3320 N.am  514  DCP514     -0.1802
      2  C2       -23.9620   30.9570   -3.9950 C.1   514  DCP514      0.2756
      3  N3       -25.0570   31.0660   -4.7710 N.2   514  DCP514     -0.3024
      4  C4       -25.6770   32.2580   -4.9570 C.2   514  DCP514      0.2346
      5  C5       -25.1660   33.3960   -4.3600 C.2   514  DCP514      0.0687
      6  C6       -24.0560   33.2830   -3.5270 C.2   514  DCP514      0.0835
      7  O2       -23.3870   29.8580   -3.8170 O.2   514  DCP514     -0.1925
      8  N4       -26.7670   32.3560   -5.7480 N.pl3 514  DCP514     -0.0921
      9  C1'      -22.3100   31.9300   -2.4500 C.3   514  DCP514      0.2090
     10  C2'      -21.0260   32.3830   -3.0810 C.3   514  DCP514      0.0874
     11  C3'      -20.7480   33.6920   -2.3770 C.3   514  DCP514      0.1857
     12  C4'      -21.4610   33.5820   -1.0230 C.3   514  DCP514      0.1773
     13  O4'      -22.5510   32.6760   -1.2530 O.3   514  DCP514     -0.3339
     14  O3'      -19.3470   33.9180   -2.2420 O.3   514  DCP514     -0.2203
     15  C5'      -21.9490   34.9280   -0.4730 C.3   514  DCP514      0.1812
     16  O5'      -22.8070   35.5830   -1.4070 O.3   514  DCP514     -0.3112
     17  PA       -22.7650   37.1440   -1.7750 P.3   514  DCP514      0.2189
     18  O1A      -22.4360   37.9440   -0.5280 O.3   514  DCP514     -0.4371
     19  O2A      -24.0020   37.4000   -2.5670 O.2   514  DCP514     -0.5170
     20  O3A      -21.5710   37.2570   -2.8780 O.3   514  DCP514     -0.2700
     21  PB       -19.9900   37.3660   -2.5910 P.3   514  DCP514      0.2277
     22  O1B      -19.3530   36.2990   -3.4630 O.2   514  DCP514     -0.5168
     23  O2B      -19.6300   37.4180   -1.1350 O.3   514  DCP514     -0.4368
     24  O3B      -19.6550   38.7790   -3.3210 O.3   514  DCP514     -0.2258
     25  PG       -19.8440   40.2650   -2.7030 P.3   514  DCP514      0.5373
     26  O1G      -20.6120   40.9230   -3.8090 O.2   514  DCP514     -0.2221
     27  O2G      -18.4650   40.8410   -2.5290 O.3   514  DCP514     -0.1143
     28  O3G      -20.5800   40.0680   -1.3990 O.3   514  DCP514     -0.1143
@<TRIPOS>BOND
     1     8     4    1
     2     4     3    2
     3     4     5    1
     4     3     2    2
     5     5     6    2
     6     2     7    2
     7     2     1   am
     8    26    25    2
     9     6     1    1
    10    22    21    2
    11     1     9    1
    12    24    25    1
    13    24    21    1
    14    10     9    1
    15    10    11    1
    16    20    21    1
    17    20    17    1
    18    25    27    1
    19    25    28    1
    20    21    23    1
    21    19    17    2
    22     9    13    1
    23    11    14    1
    24    11    12    1
    25    17    16    1
    26    17    18    1
    27    16    15    1
    28    13    12    1
    29    12    15    1
