@<TRIPOS>MOLECULE
3ohb_DCP_A_1.pdb
 28 29 0 0 0
SMALL
GASTEIGER

@<TRIPOS>ATOM
      1  N1       -23.4280   32.1950   -3.3470 N.am  514  DCP514     -0.1802
      2  C2       -23.9430   31.0490   -3.9900 C.1   514  DCP514      0.2756
      3  N3       -25.0710   31.1310   -4.7320 N.2   514  DCP514     -0.3024
      4  C4       -25.7090   32.3170   -4.8840 C.2   514  DCP514      0.2346
      5  C5       -25.1950   33.4600   -4.2900 C.2   514  DCP514      0.0687
      6  C6       -24.0490   33.3650   -3.5060 C.2   514  DCP514      0.0835
      7  O2       -23.3390   29.9680   -3.8580 O.2   514  DCP514     -0.1925
      8  N4       -26.8240   32.4090   -5.6270 N.pl3 514  DCP514     -0.0921
      9  C1'      -22.2420   32.0510   -2.4860 C.3   514  DCP514      0.2090
     10  C2'      -20.9510   32.5190   -3.1030 C.3   514  DCP514      0.0874
     11  C3'      -20.6970   33.8340   -2.4000 C.3   514  DCP514      0.1857
     12  C4'      -21.4080   33.7280   -1.0510 C.3   514  DCP514      0.1773
     13  O4'      -22.4890   32.8030   -1.2920 O.3   514  DCP514     -0.3339
     14  O3'      -19.2990   34.0660   -2.2700 O.3   514  DCP514     -0.2203
     15  C5'      -21.9160   35.0620   -0.5080 C.3   514  DCP514      0.1812
     16  O5'      -22.7420   35.7270   -1.4740 O.3   514  DCP514     -0.3112
     17  PA       -22.7090   37.2890   -1.8300 P.3   514  DCP514      0.2189
     18  O1A      -22.3780   38.1110   -0.6200 O.3   514  DCP514     -0.4371
     19  O2A      -23.9140   37.5460   -2.6620 O.2   514  DCP514     -0.5170
     20  O3A      -21.4900   37.3610   -2.9020 O.3   514  DCP514     -0.2700
     21  PB       -19.9380   37.5130   -2.5930 P.3   514  DCP514      0.2277
     22  O1B      -19.5500   37.5510   -1.1580 O.3   514  DCP514     -0.4368
     23  O2B      -19.2490   36.4440   -3.4220 O.2   514  DCP514     -0.5168
     24  O3B      -19.5850   38.9080   -3.3480 O.3   514  DCP514     -0.2258
     25  PG       -19.7540   40.4000   -2.7270 P.3   514  DCP514      0.5373
     26  O1G      -20.5120   40.1830   -1.4320 O.3   514  DCP514     -0.1143
     27  O2G      -18.3630   40.9250   -2.5000 O.3   514  DCP514     -0.1143
     28  O3G      -20.4850   41.0540   -3.8570 O.2   514  DCP514     -0.2221
@<TRIPOS>BOND
     1     8     4    1
     2     4     3    2
     3     4     5    1
     4     3     2    2
     5     5     6    2
     6     2     7    2
     7     2     1   am
     8    28    25    2
     9     6     1    1
    10    23    21    2
    11    24    25    1
    12    24    21    1
    13     1     9    1
    14    10     9    1
    15    10    11    1
    16    20    21    1
    17    20    17    1
    18    25    27    1
    19    25    26    1
    20    19    17    2
    21    21    22    1
    22     9    13    1
    23    11    14    1
    24    11    12    1
    25    17    16    1
    26    17    18    1
    27    16    15    1
    28    13    12    1
    29    12    15    1
