@<TRIPOS>MOLECULE
3ohf_3HF_A_1.pdb
 44 47 0 0 0
SMALL
GASTEIGER

@<TRIPOS>ATOM
      1  C1        77.6040   65.9270   82.9510 C.ar  394  3HF394     -0.0000
      2  C2        82.8170   58.9930   82.9930 C.ar  394  3HF394      0.0001
      3  C3        78.2630   65.4710   84.0920 C.ar  394  3HF394     -0.0003
      4  C4        76.3730   65.3780   82.5730 C.ar  394  3HF394     -0.0003
      5  C5        83.0230   59.2690   81.6410 C.ar  394  3HF394      0.0015
      6  C6        79.0030   59.3280   91.2470 C.ar  394  3HF394      0.0028
      7  C7        81.7100   59.5210   83.6610 C.ar  394  3HF394      0.0016
      8  C8        77.6750   64.4550   84.8630 C.ar  394  3HF394     -0.0042
      9  C9        75.8000   64.3690   83.3450 C.ar  394  3HF394     -0.0042
     10  C10       78.6690   58.4940   90.1740 C.ar  394  3HF394     -0.0027
     11  C11       82.1260   60.0820   80.9400 C.ar  394  3HF394      0.0177
     12  C12       78.0100   60.0620   91.8990 C.ar  394  3HF394      0.0369
     13  C13       76.3530   59.1210   90.4300 C.ar  394  3HF394      0.0340
     14  C14       79.1860   61.6680   82.2120 C.ar  394  3HF394      0.0887
     15  C15       80.8100   60.3370   82.9740 C.ar  394  3HF394      0.0221
     16  C16       79.6400   61.0030   83.3380 C.ar  394  3HF394      0.0741
     17  C17       76.4450   63.9020   84.4940 C.ar  394  3HF394     -0.0204
     18  C18       77.3410   58.3890   89.7680 C.ar  394  3HF394     -0.0018
     19  C19       81.0250   60.6100   81.6210 C.ar  394  3HF394      0.0682
     20  C20       76.6800   59.9620   91.4870 C.ar  394  3HF394      0.1385
     21  C21       78.9430   61.1160   84.6490 C.2   394  3HF394      0.2663
     22  C22       79.8960   61.8320   79.9120 C.2   394  3HF394      0.3232
     23  C23       83.4480   64.7600   78.9940 C.3   394  3HF394      0.0001
     24  C24       74.9590   62.7920   79.3280 C.3   394  3HF394      0.0001
     25  C25       76.0050   61.9600   92.5850 C.3   394  3HF394      0.2525
     26  C26       75.8030   62.8000   85.3190 C.3   394  3HF394      0.0507
     27  C27       76.9590   57.5020   88.6070 C.3   394  3HF394      0.1152
     28  C28       82.2990   64.1000   79.7590 C.3   394  3HF394      0.0018
     29  C29       76.2870   62.4170   78.6780 C.3   394  3HF394      0.0018
     30  C30       81.0490   64.9820   79.7260 C.3   394  3HF394      0.0216
     31  C31       77.2110   63.6290   78.6620 C.3   394  3HF394      0.0216
     32  C32       79.8270   64.3020   80.3640 C.3   394  3HF394      0.0952
     33  C33       78.6770   63.2600   78.4270 C.3   394  3HF394      0.0952
     34  C34       76.9550   59.4070   86.9900 C.3   394  3HF394      0.1237
     35  C35       76.7320   61.6360   85.7390 C.3   394  3HF394      0.1316
     36  C36       76.0160   60.3800   86.2630 C.3   394  3HF394      0.1894
     37  N37       80.0330   61.4330   81.1840 N.ar  394  3HF394     -0.2609
     38  N38       77.6260   61.3980   84.6060 N.am  394  3HF394     -0.2004
     39  N39       76.1900   58.2540   87.5530 N.3   394  3HF394     -0.2105
     40  N40       79.4130   63.0670   79.6750 N.am  394  3HF394     -0.2617
     41  O41       79.5550   60.9960   85.6970 O.2   394  3HF394     -0.2683
     42  O42       79.7340   60.8730   79.1700 O.2   394  3HF394     -0.2490
     43  O43       75.0000   60.8010   87.1730 O.3   394  3HF394     -0.2197
     44  O44       75.7010   60.6390   92.0890 O.3   394  3HF394     -0.4714
@<TRIPOS>BOND
     1    33    31    1
     2    33    40    1
     3    31    29    1
     4    29    24    1
     5    23    28    1
     6    42    22    2
     7    40    22   am
     8    40    32    1
     9    30    28    1
    10    30    32    1
    11    22    37   am
    12    11    19   ar
    13    11     5   ar
    14    37    19   ar
    15    37    14   ar
    16    19    15   ar
    17     5     2   ar
    18    14    16   ar
    19     4     1   ar
    20     4     9   ar
    21     1     3   ar
    22    15    16   ar
    23    15     7   ar
    24     2     7   ar
    25    16    21    1
    26     9    17   ar
    27     3     8   ar
    28    17     8   ar
    29    17    26    1
    30    38    21   am
    31    38    35    1
    32    21    41    2
    33    26    35    1
    34    35    36    1
    35    36    34    1
    36    36    43    1
    37    34    39    1
    38    39    27    1
    39    27    18    1
    40    18    10   ar
    41    18    13   ar
    42    10     6   ar
    43    13    20   ar
    44     6    12   ar
    45    20    12   ar
    46    20    44    1
    47    44    25    1
