@<TRIPOS>MOLECULE
3ohh_3HH_A_1.pdb
 45 48 0 0 0
SMALL
GASTEIGER

@<TRIPOS>ATOM
      1  C1        43.4590   58.1040   52.0970 C.ar  394  3HH394      0.0119
      2  F1        44.5690   59.5430   58.8290 F     394  3HH394     -0.2041
      3  N1        44.8800   55.5880   54.0730 N.ar  394  3HH394     -0.2609
      4  C2        45.6930   56.5830   54.4530 C.ar  394  3HH394      0.0887
      5  F2        47.4290   55.8250   58.8680 F     394  3HH394     -0.2041
      6  N2        41.1600   58.8240   49.6620 N.1   394  3HH394     -0.1908
      7  C3        45.3230   57.7380   53.7970 C.ar  394  3HH394      0.0741
      8  C4        44.2480   57.3720   52.9900 C.ar  394  3HH394      0.0228
      9  C5        42.9260   55.3680   52.4700 C.ar  394  3HH394      0.0183
     10  C6        43.9600   56.0070   53.1630 C.ar  394  3HH394      0.0683
     11  C7        41.6560   58.2580   50.5230 C.1   394  3HH394      0.1004
     12  C8        49.2980   52.7990   55.4170 C.3   394  3HH394      0.0001
     13  C9        42.1440   56.1040   51.5870 C.ar  394  3HH394      0.0118
     14  C10       42.4230   57.4580   51.4210 C.ar  394  3HH394      0.0685
     15  C11       45.0220   54.3240   54.5340 C.2   394  3HH394      0.3233
     16  N12       45.1650   53.9100   55.8110 N.am  394  3HH394     -0.2599
     17  C13       44.6550   54.6930   56.9470 C.3   394  3HH394      0.1167
     18  C14       45.7960   52.6400   56.1880 C.3   394  3HH394      0.0952
     19  C15       47.1780   52.7230   56.8480 C.3   394  3HH394      0.0216
     20  C18       48.1690   53.5940   56.0700 C.3   394  3HH394      0.0018
     21  O33       45.0530   53.5010   53.6190 O.2   394  3HH394     -0.2490
     22  C34       46.0090   59.0450   53.9810 C.2   394  3HH394      0.2663
     23  N35       47.2310   58.9450   54.3730 N.am  394  3HH394     -0.2004
     24  C36       48.0690   60.0420   54.8630 C.3   394  3HH394      0.1316
     25  C37       49.0740   60.4930   53.7920 C.3   394  3HH394      0.1894
     26  C38       48.3190   61.0720   52.5870 C.3   394  3HH394      0.1237
     27  N39       49.2160   61.7520   51.6120 N.3   394  3HH394     -0.2105
     28  C42       48.5760   62.8140   50.7780 C.3   394  3HH394      0.1152
     29  C43       47.9700   63.9320   51.5940 C.ar  394  3HH394     -0.0018
     30  O46       45.3740   60.1910   53.7330 O.2   394  3HH394     -0.2683
     31  C48       48.7360   59.6690   56.2010 C.3   394  3HH394      0.0508
     32  C50       47.7520   59.0110   57.1390 C.ar  394  3HH394     -0.0159
     33  C53       48.0430   57.7180   57.5690 C.ar  394  3HH394      0.0256
     34  C54       47.1650   57.0610   58.4320 C.ar  394  3HH394      0.1421
     35  C55       45.9840   57.6640   58.8680 C.ar  394  3HH394      0.0592
     36  C56       45.6960   58.9520   58.4230 C.ar  394  3HH394      0.1421
     37  C57       46.5690   59.6150   57.5700 C.ar  394  3HH394      0.0256
     38  O63       49.9050   61.4920   54.3880 O.3   394  3HH394     -0.2197
     39  C67       48.8070   64.6690   52.4200 C.ar  394  3HH394      0.0340
     40  C68       48.2500   65.6920   53.1800 C.ar  394  3HH394      0.1385
     41  C69       46.8780   65.9550   53.1050 C.ar  394  3HH394      0.0369
     42  C70       46.0170   65.2200   52.2870 C.ar  394  3HH394      0.0028
     43  C71       46.6010   64.2010   51.5300 C.ar  394  3HH394     -0.0027
     44  O76       49.1870   66.2980   53.9060 O.3   394  3HH394     -0.4714
     45  C77       48.8800   66.6480   55.2810 C.3   394  3HH394      0.2525
@<TRIPOS>BOND
     1     6    11    3
     2    11    14    1
     3    28    29    1
     4    28    27    1
     5    14    13   ar
     6    14     1   ar
     7    43    29   ar
     8    43    42   ar
     9    13     9   ar
    10    29    39   ar
    11    27    26    1
    12     1     8   ar
    13    42    41   ar
    14    39    40   ar
    15     9    10   ar
    16    26    25    1
    17     8    10   ar
    18     8     7   ar
    19    41    40   ar
    20    10     3   ar
    21    40    44    1
    22    21    15    2
    23    30    22    2
    24    25    38    1
    25    25    24    1
    26     7    22    1
    27     7     4   ar
    28    44    45    1
    29    22    23   am
    30     3     4   ar
    31     3    15   am
    32    23    24    1
    33    15    16   am
    34    24    31    1
    35    12    20    1
    36    16    18    1
    37    16    17    1
    38    20    19    1
    39    18    19    1
    40    31    32    1
    41    32    33   ar
    42    32    37   ar
    43    33    34   ar
    44    37    36   ar
    45    36     2    1
    46    36    35   ar
    47    34    35   ar
    48    34     5    1
