@<TRIPOS>MOLECULE
3ohi_HDX_A_1.pdb
 20 20 0 0 0
SMALL
GASTEIGER

@<TRIPOS>ATOM
      1  OAA       12.2380    0.3020   18.7040 O.2   341  HDX341     -0.2635
      2  OAB       16.4910   -0.2610   15.8380 O.2   341  HDX341     -0.4582
      3  OAC       12.8300    6.8690   12.7400 O.3   341  HDX341     -0.1145
      4  OAD       10.1610    1.6330   17.5720 O.3   341  HDX341     -0.2818
      5  OAE       16.8360    1.9430   16.9980 O.3   341  HDX341     -0.3559
      6  OAF       17.3410   -0.2380   18.1950 O.3   341  HDX341     -0.3559
      7  OAG       10.8320    5.9230   11.4430 O.2   341  HDX341     -0.2224
      8  OAH       10.4350    7.1640   13.5850 O.3   341  HDX341     -0.1145
      9  CAI       13.0210    2.5430   15.4500 C.ar  341  HDX341      0.0179
     10  CAJ       14.0410    1.8270   16.0800 C.ar  341  HDX341      0.0786
     11  CAK       11.0940    4.7620   14.9800 C.3   341  HDX341      0.1585
     12  CAL       10.6470    3.3060   15.2060 C.3   341  HDX341      0.0625
     13  CAM       14.8410    0.3150   17.8360 C.3   341  HDX341      0.1677
     14  OAN       11.5880    4.9530   13.6370 O.3   341  HDX341     -0.2699
     15  CAO       12.4630    0.9980   17.6790 C.ar  341  HDX341      0.3000
     16  CAP       11.7110    2.4970   15.9320 C.ar  341  HDX341      0.0256
     17  CAQ       11.4270    1.7120   17.0560 C.ar  341  HDX341      0.2474
     18  NAR       13.7910    1.0710   17.1650 N.ar  341  HDX341     -0.2845
     19  PAS       16.4920    0.4860   17.1530 P.3   341  HDX341      0.1401
     20  PAT       11.4100    6.3300   12.7850 P.3   341  HDX341      0.5326
@<TRIPOS>BOND
     1     7    20    2
     2     3    20    1
     3    20     8    1
     4    20    14    1
     5    14    11    1
     6    11    12    1
     7    12    16    1
     8     9    16   ar
     9     9    10   ar
    10     2    19    2
    11    16    17   ar
    12    10    18   ar
    13     5    19    1
    14    17     4    1
    15    17    15   ar
    16    19    13    1
    17    19     6    1
    18    18    15   ar
    19    18    13    1
    20    15     1    2
