@<TRIPOS>MOLECULE
3ohl_OHL_A_1.pdb
 24 25 0 0 0
SMALL
GASTEIGER

@<TRIPOS>ATOM
      1  C        -10.8100    9.6680    7.6180 C.2     6  OHL6        0.1047
      2  N         -9.6270   10.0060    9.7990 N.3     6  OHL6       -0.1446
      3  O         -9.7890    9.5820    6.9360 O.2     6  OHL6       -0.5381
      4  CA       -10.7900    9.3670    9.1310 C.3     6  OHL6        0.1470
      5  CAA       -8.4630   16.9490    7.0830 C.3     6  OHL6        0.2525
      6  OAC      -11.5120   11.5640   10.6290 O.2     6  OHL6       -0.1528
      7  OAD       -9.2990   11.8240   11.6260 O.2     6  OHL6       -0.1528
      8  OAE      -12.0740   10.3010    5.7830 O.3     6  OHL6       -0.4026
      9  CAF       -7.6140    5.7410   11.2940 C.ar    6  OHL6        0.0986
     10  CAG       -7.7650    6.1930    9.0290 C.ar    6  OHL6        0.0986
     11  CAH       -8.1650    6.9790   11.6170 C.ar    6  OHL6        0.0178
     12  CAI       -8.3210    7.4480    9.2770 C.ar    6  OHL6        0.0178
     13  CAJ       -7.9650   14.1060    8.1010 C.ar    6  OHL6        0.0383
     14  CAK      -10.2890   14.3400    7.5090 C.ar    6  OHL6        0.0383
     15  CAL       -8.2970   13.1220    9.0270 C.ar    6  OHL6        0.0230
     16  CAM      -10.6250   13.3530    8.4340 C.ar    6  OHL6        0.0230
     17  CAO       -9.1360    9.2180   10.9560 C.3     6  OHL6        0.1226
     18  NAP       -7.4320    5.3880   10.0280 N.ar    6  OHL6       -0.2423
     19  NAQ      -11.9910   10.0220    7.1130 N.am    6  OHL6       -0.2015
     20  OAR       -8.6280   15.6830    6.4370 O.3     6  OHL6       -0.4714
     21  CAT       -8.5270    7.8510   10.5940 C.ar    6  OHL6       -0.0014
     22  CAU       -8.9580   14.7200    7.3420 C.ar    6  OHL6        0.1388
     23  CAV       -9.6260   12.7410    9.1890 C.ar    6  OHL6        0.1224
     24  SAX      -10.0370   11.5130   10.3570 S.O2    6  OHL6        0.0639
@<TRIPOS>BOND
     1     8    19    1
     2    20     5    1
     3    20    22    1
     4     3     1    2
     5    19     1   am
     6    22    14   ar
     7    22    13   ar
     8    14    16   ar
     9     1     4    1
    10    13    15   ar
    11    16    23   ar
    12    15    23   ar
    13    10    12   ar
    14    10    18   ar
    15     4     2    1
    16    23    24    1
    17    12    21   ar
    18     2    24    1
    19     2    17    1
    20    18     9   ar
    21    24     6    2
    22    24     7    2
    23    21    17    1
    24    21    11   ar
    25     9    11   ar
