@<TRIPOS>MOLECULE
3ohm_GDP_A_1.pdb
 28 30 0 0 0
SMALL
GASTEIGER

@<TRIPOS>ATOM
      1  PB        14.5650   -1.9380   45.4570 P.3   400  GDP400      0.5373
      2  O1B       15.1090   -2.4060   46.7970 O.3   400  GDP400     -0.1143
      3  O2B       14.7630   -0.4530   45.1410 O.3   400  GDP400     -0.1143
      4  O3B       15.2770   -2.6780   44.3390 O.2   400  GDP400     -0.2221
      5  O3A       13.0110   -2.4160   45.6680 O.3   400  GDP400     -0.2261
      6  PA        11.8000   -1.4070   45.3090 P.3   400  GDP400      0.2231
      7  O1A       11.9760   -0.0770   46.0160 O.3   400  GDP400     -0.4370
      8  O2A       11.8710   -1.0610   43.8660 O.2   400  GDP400     -0.5169
      9  O5'       10.4270   -2.1310   45.6980 O.3   400  GDP400     -0.3111
     10  C5'       10.1650   -3.4110   45.1720 C.3   400  GDP400      0.1813
     11  C4'        8.6840   -3.6380   45.1060 C.3   400  GDP400      0.1799
     12  O4'        8.2380   -4.0720   46.3950 O.3   400  GDP400     -0.3326
     13  C3'        7.9230   -2.3560   44.7970 C.3   400  GDP400      0.2158
     14  O3'        6.8490   -2.6550   43.9130 O.3   400  GDP400     -0.2175
     15  C2'        7.3290   -1.9210   46.1140 C.3   400  GDP400      0.2310
     16  O2'        6.0540   -1.3290   45.9030 O.3   400  GDP400     -0.2158
     17  C1'        7.2290   -3.2030   46.9200 C.3   400  GDP400      0.2293
     18  N9         7.5180   -3.0220   48.3450 N.pl3 400  GDP400     -0.2354
     19  C8         8.5840   -2.4010   48.9150 C.3   400  GDP400      0.2246
     20  N7         8.5420   -2.4580   50.2840 N.2   400  GDP400     -0.2322
     21  C5         7.4350   -3.1250   50.5500 C.2   400  GDP400      0.2182
     22  C6         6.7810   -3.5380   51.7670 C.1   400  GDP400      0.2372
     23  O6         7.3370   -3.2210   52.8290 O.2   400  GDP400     -0.2069
     24  N1         5.6350   -4.2240   51.6940 N.2   400  GDP400     -0.2485
     25  C2         5.1100   -4.5360   50.5110 C.1   400  GDP400      0.2531
     26  N2         3.9580   -5.2290   50.4830 N.pl3 400  GDP400     -0.0226
     27  N3         5.6460   -4.1710   49.3370 N.2   400  GDP400     -0.3074
     28  C4         6.7740   -3.4910   49.3020 C.2   400  GDP400      0.2300
@<TRIPOS>BOND
     1     8     6    2
     2    14    13    1
     3     4     1    2
     4    13    11    1
     5    13    15    1
     6    11    10    1
     7    11    12    1
     8     3     1    1
     9    10     9    1
    10     6     5    1
    11     6     9    1
    12     6     7    1
    13     1     5    1
    14     1     2    1
    15    16    15    1
    16    15    17    1
    17    12    17    1
    18    17    18    1
    19    18    19    1
    20    18    28    1
    21    19    20    1
    22    28    27    2
    23    28    21    1
    24    27    25    2
    25    20    21    2
    26    26    25    1
    27    25    24    2
    28    21    22    1
    29    24    22    2
    30    22    23    2
