@<TRIPOS>MOLECULE
3oho_Z79_A_1.pdb
 17 17 0 0 0
SMALL
GASTEIGER

@<TRIPOS>ATOM
      1  O4        18.4420   -9.2640   -6.8290 O.2   252  Z79252     -0.5380
      2  C8        17.5070   -9.6560   -7.5240 C.2   252  Z79252      0.1064
      3  N2        16.4680  -10.3070   -7.0170 N.am  252  Z79252     -0.2014
      4  O5        16.4690  -10.5250   -5.6760 O.3   252  Z79252     -0.4026
      5  C7        17.4700   -9.4110   -9.0410 C.3   252  Z79252      0.1662
      6  N1        18.6860   -9.9360   -9.6970 N.3   252  Z79252     -0.0709
      7  S1        18.4160  -11.4280  -10.3290 S.O2  252  Z79252      0.0772
      8  O1        19.2690  -11.6340  -11.5410 O.2   252  Z79252     -0.1516
      9  O2        16.9730  -11.5590  -10.7250 O.2   252  Z79252     -0.1516
     10  C3        18.8010  -12.6530   -9.1450 C.ar  252  Z79252      0.1238
     11  C6        17.7810  -13.3010   -8.4450 C.ar  252  Z79252      0.0231
     12  C5        18.0970  -14.2820   -7.5040 C.ar  252  Z79252      0.0383
     13  C4        19.4300  -14.6180   -7.2650 C.ar  252  Z79252      0.1388
     14  O3        19.7410  -15.5730   -6.3440 O.3   252  Z79252     -0.4714
     15  C9        19.9290  -16.8500   -6.9560 C.3   252  Z79252      0.2525
     16  C2        20.4450  -13.9680   -7.9670 C.ar  252  Z79252      0.0383
     17  C1        20.1320  -12.9890   -8.9080 C.ar  252  Z79252      0.0231
@<TRIPOS>BOND
     1     8     7    2
     2     9     7    2
     3     7     6    1
     4     7    10    1
     5     6     5    1
     6    10    17   ar
     7    10    11   ar
     8     5     2    1
     9    17    16   ar
    10    11    12   ar
    11    16    13   ar
    12     2     3   am
    13     2     1    2
    14    12    13   ar
    15    13    14    1
    16     3     4    1
    17    15    14    1
