@<TRIPOS>MOLECULE
3ohr_ADP_A_1.pdb
 27 29 0 0 0
SMALL
GASTEIGER

@<TRIPOS>ATOM
      1  PB        45.2970  -33.6400  -19.1570 P.3   300  ADP300      0.5373
      2  O1B       46.2000  -34.8350  -19.1800 O.3   300  ADP300     -0.1143
      3  O2B       45.7880  -32.4750  -20.0590 O.2   300  ADP300     -0.2221
      4  O3B       43.7690  -33.9200  -19.3840 O.3   300  ADP300     -0.1143
      5  PA        44.4140  -32.9810  -16.4480 P.3   300  ADP300      0.2231
      6  O1A       45.3050  -32.4080  -15.3820 O.3   300  ADP300     -0.4370
      7  O2A       43.8040  -34.3590  -16.1650 O.2   300  ADP300     -0.5169
      8  O3A       45.4180  -33.0960  -17.6680 O.3   300  ADP300     -0.2261
      9  O5'       43.3990  -32.0200  -16.8830 O.3   300  ADP300     -0.3111
     10  C5'       43.5410  -30.5880  -17.0720 C.3   300  ADP300      0.1813
     11  C4'       42.2750  -29.8390  -16.9050 C.3   300  ADP300      0.1821
     12  O4'       41.7450  -30.0470  -15.6060 O.3   300  ADP300     -0.3135
     13  C3'       42.4440  -28.3040  -17.0350 C.3   300  ADP300      0.2184
     14  O3'       41.2710  -27.6990  -17.5430 O.3   300  ADP300     -0.2174
     15  C2'       42.7470  -27.9300  -15.6100 C.3   300  ADP300      0.2570
     16  O2'       42.4260  -26.5190  -15.3410 O.3   300  ADP300     -0.2130
     17  C1'       41.8140  -28.7870  -14.8030 C.3   300  ADP300      0.3186
     18  N9        42.3870  -29.0970  -13.4800 N.pl3 300  ADP300     -0.1439
     19  C8        43.6340  -29.5000  -13.2150 C.3   300  ADP300      0.3377
     20  N7        43.7990  -29.6760  -11.9230 N.2   300  ADP300     -0.2095
     21  C5        42.6230  -29.3880  -11.3430 C.2   300  ADP300      0.2526
     22  C6        42.1550  -29.4230  -10.0300 C.2   300  ADP300      0.4393
     23  N6        42.9950  -29.7700   -9.0380 N.pl3 300  ADP300      0.2180
     24  N1        40.8630  -29.1010   -9.8030 N.2   300  ADP300      0.0021
     25  C2        40.0340  -28.7910  -10.8140 C.3   300  ADP300      0.5254
     26  N3        40.4370  -28.7410  -12.0920 N.2   300  ADP300     -0.0055
     27  C4        41.7220  -29.0840  -12.3490 C.2   300  ADP300      0.3518
@<TRIPOS>BOND
     1     3     1    2
     2     4     1    1
     3     2     1    1
     4     1     8    1
     5     8     5    1
     6    14    13    1
     7    10    11    1
     8    10     9    1
     9    13    11    1
    10    13    15    1
    11    11    12    1
    12     9     5    1
    13     5     7    2
    14     5     6    1
    15    15    16    1
    16    15    17    1
    17    12    17    1
    18    17    18    1
    19    18    19    1
    20    18    27    1
    21    19    20    1
    22    27    26    2
    23    27    21    1
    24    26    25    1
    25    20    21    2
    26    21    22    1
    27    25    24    1
    28    22    24    2
    29    22    23    1
