@<TRIPOS>MOLECULE
3oht_1N1_A_1.pdb
 33 36 0 0 0
SMALL
GASTEIGER

@<TRIPOS>ATOM
      1  C1         9.5690   -2.9110   33.9940 C.ar  1000  1N11000     0.1120
      2  C2         9.9720   -1.6350   34.1310 C.ar  1000  1N11000     0.1065
      3  C3         9.1140   -0.3920   34.3470 C.2   1000  1N11000     0.2766
      4  N6        19.5660   -6.2030   32.4700 N.3   1000  1N11000    -0.2675
      5  C7         5.3090    2.6180   35.1680 C.ar  1000  1N11000     0.0006
      6  C8         5.8740    1.9980   36.2760 C.ar  1000  1N11000    -0.0029
      7  C9         6.7280    0.9030   36.1160 C.ar  1000  1N11000    -0.0057
      8  C10        7.3290    0.2460   37.3740 C.3   1000  1N11000     0.0324
      9  C11       14.1640   -3.3300   33.6010 C.2   1000  1N11000     0.2025
     10  C12       15.3110   -4.1130   33.4380 C.3   1000  1N11000     0.1532
     11  C13       16.5630   -3.4890   33.4470 C.2   1000  1N11000     0.1809
     12  C14       15.5030   -1.4230   33.7610 C.1   1000  1N11000     0.1168
     13  C15       15.5760    0.0920   33.9400 C.3   1000  1N11000     0.1429
     14  C16       18.5900   -3.9810   32.0680 C.3   1000  1N11000     0.1102
     15  C19       18.1720   -5.2630   34.2790 C.3   1000  1N11000     0.1102
     16  C20       20.3530   -7.3360   31.9220 C.3   1000  1N11000     0.1082
     17  C21       19.4740   -8.4530   31.3140 C.3   1000  1N11000     0.1993
     18  N         12.9480   -3.8960   33.6020 N.pl3 1000  1N11000    -0.1613
     19  C         11.8000   -3.2250   33.7770 C.ar  1000  1N11000     0.1855
     20  N1        10.5820   -3.7860   33.8030 N.ar  1000  1N11000    -0.2208
     21  S         11.6210   -1.5670   34.0110 S.2   1000  1N11000    -0.0450
     22  N2         7.8250   -0.6100   34.6290 N.am  1000  1N11000    -0.1744
     23  C4         7.0080    0.4260   34.8240 C.ar  1000  1N11000     0.0802
     24  C5         6.4410    1.0600   33.7100 C.ar  1000  1N11000     0.0726
     25  C6         5.5960    2.1530   33.8810 C.ar  1000  1N11000     0.0127
     26 CL          6.7780    0.4900   32.1100 Cl    1000  1N11000    -0.0809
     27  O          9.6320    0.7220   34.2410 O.2   1000  1N11000    -0.2674
     28  N3        16.6260   -2.1530   33.6070 N.2   1000  1N11000    -0.3326
     29  N4        14.3000   -2.0070   33.7580 N.2   1000  1N11000    -0.3308
     30  N5        17.7540   -4.2280   33.2770 N.pl3 1000  1N11000    -0.2831
     31  C17       18.9690   -5.3280   31.4340 C.3   1000  1N11000     0.0939
     32  C18       18.6280   -6.5550   33.5630 C.3   1000  1N11000     0.0939
     33  O1        20.1650   -9.7050   31.3710 O.3   1000  1N11000    -0.2189
@<TRIPOS>BOND
     1    17    33    1
     2    17    16    1
     3    31    14    1
     4    31     4    1
     5    16     4    1
     6    14    30    1
     7    26    24    1
     8     4    32    1
     9    30    11    1
    10    30    15    1
    11    10    11    1
    12    10     9    1
    13    11    28    2
    14    32    15    1
    15     9    18    1
    16     9    29    2
    17    18    19    1
    18    28    12    2
    19    24    25   ar
    20    24    23   ar
    21    29    12    2
    22    12    13    1
    23    19    20   ar
    24    19    21   ar
    25    20     1   ar
    26    25     5   ar
    27     1     2   ar
    28    21     2   ar
    29     2     3    1
    30    27     3    2
    31     3    22   am
    32    22    23    1
    33    23     7   ar
    34     5     6   ar
    35     7     6   ar
    36     7     8    1
