@<TRIPOS>MOLECULE
3oi7_OI7_A_1.pdb
 22 22 0 0 0
SMALL
GASTEIGER

@<TRIPOS>ATOM
      1  C4       -28.4830   39.4530  -12.7910 C.3   301  OI7301      0.2168
      2  C5       -28.0920   38.4250  -11.7820 C.3   301  OI7301      0.1835
      3  C6       -29.3950   38.1300  -11.0670 C.3   301  OI7301      0.2116
      4  C7       -29.4340   38.6210   -9.6620 C.3   301  OI7301      0.1891
      5  O7       -30.7750   38.7400   -9.3050 O.3   301  OI7301     -0.2674
      6  O6       -30.4140   38.7880  -11.7410 O.3   301  OI7301     -0.2177
      7  O5       -27.5180   37.2520  -12.4100 O.3   301  OI7301     -0.3254
      8  O4       -27.9900   40.7160  -12.6300 O.3   301  OI7301     -0.2175
      9  C3       -28.1190   38.7450  -14.1120 C.3   301  OI7301      0.2408
     10  O3       -29.2780   38.2990  -14.9140 O.3   301  OI7301     -0.2149
     11  C2       -27.1120   37.6220  -13.7460 C.3   301  OI7301      0.2780
     12  O2       -27.2300   36.6200  -14.6840 O.3   301  OI7301     -0.1897
     13  C1       -25.6740   38.0370  -13.8160 C.3   301  OI7301      0.2152
     14  O1       -25.0890   37.5060  -14.9700 O.3   301  OI7301     -0.2648
     15  P1       -23.5540   37.6460  -15.2730 P.3   301  OI7301      0.5328
     16  O1P      -23.0940   39.1180  -15.3160 O.3   301  OI7301     -0.1145
     17  O3P      -23.3560   36.9510  -16.6410 O.2   301  OI7301     -0.2224
     18  O2P      -22.7530   36.9540  -14.1530 O.3   301  OI7301     -0.1145
     19  P2       -31.2780   38.3030   -7.8830 P.3   301  OI7301      0.5327
     20  O5P      -32.7310   38.8300   -7.6450 O.3   301  OI7301     -0.1145
     21  O4P      -30.2450   38.8440   -6.8360 O.3   301  OI7301     -0.1145
     22  O6P      -31.3780   36.7510   -7.7820 O.2   301  OI7301     -0.2224
@<TRIPOS>BOND
     1    17    15    2
     2    16    15    1
     3    15    14    1
     4    15    18    1
     5    14    13    1
     6    10     9    1
     7    12    11    1
     8     9    11    1
     9     9     1    1
    10    13    11    1
    11    11     7    1
    12     1     8    1
    13     1     2    1
    14     7     2    1
    15     2     3    1
    16     6     3    1
    17     3     4    1
    18     4     5    1
    19     5    19    1
    20    19    22    2
    21    19    20    1
    22    19    21    1
