@<TRIPOS>MOLECULE
3oi8_ADN_A_1.pdb
 19 21 0 0 0
SMALL
GASTEIGER

@<TRIPOS>ATOM
      1  O5'      -13.6230   32.2190   47.3000 O.3     2  ADN2       -0.2176
      2  C5'      -13.8200   33.1880   46.3020 C.3     2  ADN2        0.2143
      3  C4'      -12.7230   33.0540   45.2030 C.3     2  ADN2        0.1851
      4  O4'      -11.4060   32.9300   45.8180 O.3     2  ADN2       -0.3134
      5  C3'      -12.9560   31.8010   44.3320 C.3     2  ADN2        0.2186
      6  O3'      -13.5190   32.1750   43.1040 O.3     2  ADN2       -0.2174
      7  C2'      -11.5830   31.2090   44.1260 C.3     2  ADN2        0.2570
      8  O2'      -11.0090   31.7080   42.9390 O.3     2  ADN2       -0.2130
      9  C1'      -10.7530   31.7260   45.3010 C.3     2  ADN2        0.3186
     10  N9       -10.6280   30.7270   46.3610 N.pl3   2  ADN2       -0.1439
     11  C8       -11.7160   29.8150   46.9090 C.3     2  ADN2        0.3377
     12  N7       -11.1080   29.0060   48.0230 N.2     2  ADN2       -0.2095
     13  C5        -9.6370   29.4320   48.1670 C.2     2  ADN2        0.2526
     14  C6        -8.5050   28.9710   49.1350 C.2     2  ADN2        0.4393
     15  N6        -8.7970   27.9760   50.1670 N.pl3   2  ADN2        0.2180
     16  N1        -7.1790   29.5680   49.0330 N.2     2  ADN2        0.0021
     17  C2        -6.8880   30.6400   47.9930 C.3     2  ADN2        0.5254
     18  N3        -7.9990   31.0960   47.0450 N.2     2  ADN2       -0.0055
     19  C4        -9.3500   30.4890   47.1470 C.2     2  ADN2        0.3518
@<TRIPOS>BOND
     1     8     7    1
     2     6     5    1
     3     7     5    1
     4     7     9    1
     5     5     3    1
     6     3     4    1
     7     3     2    1
     8     9     4    1
     9     9    10    1
    10     2     1    1
    11    10    11    1
    12    10    19    1
    13    11    12    1
    14    18    19    2
    15    18    17    1
    16    19    13    1
    17    17    16    1
    18    12    13    2
    19    13    14    1
    20    16    14    2
    21    14    15    1
