@<TRIPOS>MOLECULE
3oia_A31_A_1.pdb
 30 32 0 0 0
SMALL
GASTEIGER

@<TRIPOS>ATOM
      1  C1         1.3050   26.4760   23.5130 C.3   440  A31440      0.0705
      2  C2         2.7330   26.8250   23.0430 C.3   440  A31440      0.0087
      3  C3         3.2280   25.7880   22.0180 C.3   440  A31440      0.0005
      4  C4         2.2400   25.7480   20.8440 C.3   440  A31440      0.0000
      5  C5         0.8120   25.4110   21.2850 C.3   440  A31440      0.0005
      6  C6         0.3620   26.4800   22.3030 C.3   440  A31440      0.0087
      7  C7         1.3060   25.0710   24.1450 C.3   440  A31440      0.0087
      8  C8         3.2370   24.3700   22.6510 C.3   440  A31440      0.0000
      9  C9         0.8250   24.0280   21.9370 C.3   440  A31440      0.0000
     10  C10        1.7980   24.0310   23.1150 C.3   440  A31440      0.0005
     11  C11        0.7630   27.4930   24.5020 C.2   440  A31440      0.2404
     12  N12        0.8720   28.7890   24.1740 N.am  440  A31440     -0.2054
     13  O13        0.2110   27.1110   25.5270 O.2   440  A31440     -0.2734
     14  C14        0.4370   29.8510   25.0800 C.3   440  A31440      0.1151
     15  C15        1.5120   30.2460   26.0720 C.3   440  A31440      0.0234
     16  C16        2.4710   31.2230   25.3910 C.3   440  A31440      0.0018
     17  C17        3.5140   31.7070   26.3820 C.3   440  A31440      0.0001
     18  C18        4.5070   32.6450   25.7180 C.3   440  A31440      0.0001
     19  C19        5.4540   33.1910   26.7830 C.3   440  A31440      0.0018
     20  C20        6.6230   33.9150   26.1300 C.3   440  A31440      0.0234
     21  C21        7.6850   34.2470   27.1720 C.3   440  A31440      0.1151
     22  N22        8.5240   35.3640   26.7680 N.am  440  A31440     -0.2054
     23  C23        9.6490   35.6390   27.4210 C.2   440  A31440      0.2414
     24  O24        9.8240   35.3130   28.5830 O.2   440  A31440     -0.2733
     25  C25       10.7320   36.3620   26.6540 C.3   440  A31440      0.0873
     26  C26       10.6860   37.8740   26.8680 C.3   440  A31440      0.0193
     27  C27        9.7960   38.5720   25.8370 C.3   440  A31440      0.0890
     28  C28       10.4940   38.7960   24.5040 C.2   440  A31440      0.2607
     29  O29       11.3820   38.0540   24.1030 O.2   440  A31440     -0.2717
     30  N30       10.0790   39.8450   23.7930 N.am  440  A31440     -0.0878
@<TRIPOS>BOND
     1     4     5    1
     2     4     3    1
     3     5     9    1
     4     5     6    1
     5     9    10    1
     6     3     8    1
     7     3     2    1
     8     6     1    1
     9     8    10    1
    10     2     1    1
    11    10     7    1
    12     1     7    1
    13     1    11    1
    14    30    28   am
    15    29    28    2
    16    12    11   am
    17    12    14    1
    18    11    13    2
    19    28    27    1
    20    14    15    1
    21    16    15    1
    22    16    17    1
    23    18    17    1
    24    18    19    1
    25    27    26    1
    26    20    19    1
    27    20    21    1
    28    25    26    1
    29    25    23    1
    30    22    21    1
    31    22    23   am
    32    23    24    2
