@<TRIPOS>MOLECULE
3oia_HEM_A_1.pdb
 43 50 0 0 0
SMALL
GASTEIGER

@<TRIPOS>ATOM
      1  CHA       -0.1000   20.2360   21.2460 C.2   420  HEM420      0.0000
      2  CHB        2.2290   22.2300   17.5100 C.2   420  HEM420      0.0000
      3  CHC       -1.9720   23.7390   15.6110 C.2   420  HEM420      0.0000
      4  CHD       -4.3120   22.1480   19.5760 C.2   420  HEM420      0.0000
      5  C1A        0.9110   20.6290   20.4070 C.ar  420  HEM420      0.0000
      6  C2A        2.3210   20.3460   20.5700 C.ar  420  HEM420      0.0000
      7  C3A        2.9490   20.8990   19.5190 C.ar  420  HEM420      0.0000
      8  C4A        1.9650   21.5540   18.6870 C.ar  420  HEM420      0.0000
      9  CMA        4.4500   20.9100   19.2140 C.3   420  HEM420      0.0000
     10  CAA        2.9680   19.5260   21.7260 C.3   420  HEM420      0.0000
     11  CBA        3.4420   20.4220   22.8800 C.3   420  HEM420      0.0000
     12  CGA        4.0930   19.6090   23.9800 C.2   420  HEM420      0.0000
     13  O1A        4.3600   20.1780   25.0660 O.co2 420  HEM420      0.0000
     14  O2A        4.3800   18.4130   23.7830 O.co2 420  HEM420      0.0000
     15  C1B        1.2880   22.7660   16.6580 C.2   420  HEM420      0.0000
     16  C2B        1.5780   23.3610   15.3610 C.2   420  HEM420      0.0000
     17  C3B        0.4100   23.7730   14.8370 C.2   420  HEM420      0.0000
     18  C4B       -0.6340   23.4820   15.8000 C.2   420  HEM420      0.0000
     19  CMB        2.9880   23.4450   14.7330 C.3   420  HEM420      0.0000
     20  CAB        0.0830   24.4910   13.5080 C.2   420  HEM420      0.0000
     21  CBB        0.9300   24.5980   12.4660 C.2   420  HEM420      0.0000
     22  C1C       -2.9640   23.4230   16.5250 C.ar  420  HEM420      0.0000
     23  C2C       -4.3650   23.7060   16.3780 C.ar  420  HEM420      0.0000
     24  C3C       -5.0150   23.3150   17.4700 C.ar  420  HEM420      0.0000
     25  C4C       -4.0270   22.7310   18.3550 C.ar  420  HEM420      0.0000
     26  CMC       -4.9730   24.3910   15.1380 C.3   420  HEM420      0.0000
     27  CAC       -6.5270   23.4170   17.7380 C.2   420  HEM420      0.0000
     28  CBC       -6.9710   23.9140   18.8950 C.2   420  HEM420      0.0000
     29  C1D       -3.3800   21.5070   20.3700 C.2   420  HEM420      0.0000
     30  C2D       -3.7010   20.8570   21.6310 C.2   420  HEM420      0.0000
     31  C3D       -2.4040   20.2750   22.1420 C.2   420  HEM420      0.0000
     32  C4D       -1.4210   20.5910   21.1360 C.2   420  HEM420      0.0000
     33  CMD       -5.0850   20.8230   22.3120 C.3   420  HEM420      0.0000
     34  CAD       -2.1710   19.5090   23.4590 C.3   420  HEM420      0.0000
     35  CBD       -2.3040   18.0130   23.3420 C.3   420  HEM420      0.0000
     36  CGD       -1.9240   17.3770   24.6670 C.2   420  HEM420      0.0000
     37  O1D       -2.2710   16.1940   24.8460 O.co2 420  HEM420      0.0000
     38  O2D       -1.3290   18.0550   25.5410 O.co2 420  HEM420      0.0000
     39  NA         0.7110   21.3350   19.2330 N.ar  420  HEM420      0.0000
     40  NB        -0.0730   22.8360   16.8840 N.2   420  HEM420      0.0000
     41  NC        -2.7910   22.7680   17.7340 N.ar  420  HEM420      0.0000
     42  ND        -2.0500   21.2760   20.0920 N.2   420  HEM420      0.0000
     43 FE         -1.0610   21.9770   18.4270 Fe    420  HEM420      0.0000
@<TRIPOS>BOND
     1    21    20    2
     2    20    17    1
     3    19    16    1
     4    17    16    2
     5    17    18    1
     6    26    23    1
     7    16    15    1
     8     3    18    2
     9     3    22    1
    10    18    40    1
    11    23    22   ar
    12    23    24   ar
    13    22    41   ar
    14    15    40    2
    15    15     2    1
    16    40    43    1
    17    24    27    1
    18    24    25   ar
    19     2     8    2
    20    41    25   ar
    21    41    43    1
    22    27    28    2
    23    25     4    1
    24    43    39    1
    25    43    42    1
    26     8    39   ar
    27     8     7   ar
    28     9     7    1
    29    39     5   ar
    30     7     6   ar
    31     4    29    2
    32    42    29    1
    33    42    32    2
    34    29    30    1
    35     5     6   ar
    36     5     1    2
    37     6    10    1
    38    32     1    1
    39    32    31    1
    40    30    31    2
    41    30    33    1
    42    10    11    1
    43    31    34    1
    44    11    12    1
    45    35    34    1
    46    35    36    1
    47    14    12   ar
    48    12    13   ar
    49    36    37   ar
    50    36    38   ar
