@<TRIPOS>MOLECULE
3oid_NDP_A_1.pdb
 48 52 0 0 0
SMALL
GASTEIGER

@<TRIPOS>ATOM
      1  PA         6.4750   99.7180   91.3690 P.3   501  NDP501      0.2189
      2  O1A        6.3110  101.1530   91.8080 O.3   501  NDP501     -0.4371
      3  O2A        7.7390   99.0310   91.8060 O.2   501  NDP501     -0.5170
      4  O5B        5.1720   98.9410   91.8360 O.3   501  NDP501     -0.3112
      5  C5B        5.1090   97.5340   91.6170 C.3   501  NDP501      0.1813
      6  C4B        3.8750   97.0030   92.4000 C.3   501  NDP501      0.1820
      7  O4B        3.7640   95.6160   92.0610 O.3   501  NDP501     -0.3136
      8  C3B        4.1110   97.0530   93.9300 C.3   501  NDP501      0.2157
      9  O3B        2.8700   97.2980   94.6180 O.3   501  NDP501     -0.2175
     10  C2B        4.5460   95.6230   94.2650 C.3   501  NDP501      0.2314
     11  O2B        4.2180   95.2620   95.5970 O.3   501  NDP501     -0.2630
     12  C1B        3.6330   94.8630   93.2840 C.3   501  NDP501      0.3158
     13  N9A        4.0370   93.5010   93.0290 N.pl3 501  NDP501     -0.1439
     14  C8A        5.3060   93.0630   92.5680 C.3   501  NDP501      0.3377
     15  N7A        5.2990   91.7110   92.5290 N.2   501  NDP501     -0.2095
     16  C5A        4.0700   91.3040   92.9760 C.2   501  NDP501      0.2526
     17  C6A        3.5340   90.0330   93.1470 C.2   501  NDP501      0.4393
     18  N6A        4.1520   88.8330   92.9270 N.pl3 501  NDP501      0.2180
     19  N1A        2.2580   89.9740   93.5430 N.2   501  NDP501      0.0021
     20  C2A        1.5060   91.0410   93.9300 C.3   501  NDP501      0.5254
     21  N3A        2.0350   92.3090   93.7730 N.2   501  NDP501     -0.0055
     22  C4A        3.3030   92.4120   93.3060 C.2   501  NDP501      0.3518
     23  O3         6.4420   99.5510   89.7760 O.3   501  NDP501     -0.2703
     24  PN         5.6640  100.4420   88.6680 P.3   501  NDP501      0.2189
     25  O1N        4.4860  101.0840   89.2520 O.3   501  NDP501     -0.4371
     26  O2N        6.7080  101.2130   87.9110 O.2   501  NDP501     -0.5170
     27  O5D        5.1980   99.1920   87.7320 O.3   501  NDP501     -0.3112
     28  C5D        3.7570   98.9110   87.6050 C.3   501  NDP501      0.1813
     29  C4D        3.5810   98.3200   86.1750 C.3   501  NDP501      0.1799
     30  O4D        4.0090   99.2500   85.1650 O.3   501  NDP501     -0.3327
     31  C3D        4.3470   97.0190   85.9060 C.3   501  NDP501      0.2158
     32  O3D        3.5380   96.0850   85.1580 O.3   501  NDP501     -0.2175
     33  C2D        5.5210   97.4860   85.0230 C.3   501  NDP501      0.2309
     34  O2D        6.0820   96.4400   84.1830 O.3   501  NDP501     -0.2158
     35  C1D        4.7850   98.5620   84.2410 C.3   501  NDP501      0.2263
     36  N1N        5.7510   99.4610   83.6150 N.pl3 501  NDP501     -0.2787
     37  C2N        6.5410  100.3020   84.3700 C.3   501  NDP501      0.1244
     38  C3N        7.3440  101.2400   83.7180 C.2   501  NDP501      0.0544
     39  C7N        8.2900  102.1090   84.5100 C.2   501  NDP501      0.2818
     40  O7N        9.2290  102.7460   83.7740 O.2   501  NDP501     -0.2670
     41  N7N        8.2130  102.1810   85.8550 N.am  501  NDP501     -0.0839
     42  C4N        7.3110  101.3960   82.2250 C.2   501  NDP501      0.0033
     43  C5N        6.3240  100.5140   81.5690 C.2   501  NDP501      0.0157
     44  C6N        5.6020   99.5720   82.2380 C.2   501  NDP501      0.0633
     45  P2B        5.3040   94.5200   96.5180 P.3   501  NDP501      0.5328
     46  O1X        4.4520   94.0040   97.6750 O.3   501  NDP501     -0.1145
     47  O2X        6.0050   93.4700   95.7340 O.2   501  NDP501     -0.2224
     48  O3X        6.3870   95.5180   96.8950 O.3   501  NDP501     -0.1145
@<TRIPOS>BOND
     1    43    42    1
     2    43    44    2
     3    42    38    2
     4    44    36    1
     5    36    35    1
     6    36    37    1
     7    38    37    1
     8    38    39    1
     9    40    39    2
    10    34    33    1
    11    35    33    1
    12    35    30    1
    13    39    41   am
    14    33    31    1
    15    32    31    1
    16    30    29    1
    17    31    29    1
    18    29    28    1
    19    28    27    1
    20    27    24    1
    21    26    24    2
    22    24    25    1
    23    24    23    1
    24    23     1    1
    25     1     3    2
    26     1     2    1
    27     1     4    1
    28     5     4    1
    29     5     6    1
    30     7     6    1
    31     7    12    1
    32     6     8    1
    33    15    14    1
    34    15    16    2
    35    14    13    1
    36    18    17    1
    37    16    17    1
    38    16    22    1
    39    13    12    1
    40    13    22    1
    41    17    19    2
    42    12    10    1
    43    22    21    2
    44    19    20    1
    45    21    20    1
    46     8    10    1
    47     8     9    1
    48    10    11    1
    49    11    45    1
    50    47    45    2
    51    45    48    1
    52    45    46    1
