@<TRIPOS>MOLECULE
3oid_TCL_A_1.pdb
 17 18 0 0 0
SMALL
GASTEIGER

@<TRIPOS>ATOM
      1  C1         9.6870   98.5670   82.0760 C.ar  601  TCL601      0.0566
      2  C2        10.4630   99.6730   82.4010 C.ar  601  TCL601      0.0611
      3  C6         9.1090   97.8800   83.1520 C.ar  601  TCL601      0.2307
      4  C5         9.3740   98.3350   84.5240 C.ar  601  TCL601      0.1840
      5  C4        10.1930   99.4490   84.7890 C.ar  601  TCL601      0.0417
      6  C3        10.7070  100.1260   83.7000 C.ar  601  TCL601      0.0147
      7  C11       10.9520   94.7900   87.5540 C.ar  601  TCL601      0.0587
      8  C10        9.7840   95.1950   88.1710 C.ar  601  TCL601      0.0259
      9  C9         9.1110   96.1250   87.4240 C.ar  601  TCL601      0.0929
     10  C8         9.5840   96.6510   86.1490 C.ar  601  TCL601      0.1559
     11  C12       11.4800   95.2750   86.3550 C.ar  601  TCL601      0.0146
     12  C13       10.8010   96.2330   85.6070 C.ar  601  TCL601      0.0392
     13  O7         8.8350   97.6160   85.5300 O.3   601  TCL601     -0.4494
     14 CL14       11.1010  100.5750   81.0020 Cl    601  TCL601     -0.0821
     15 CL15       11.9210   93.6170   88.4930 Cl    601  TCL601     -0.0822
     16 CL16        7.6240   96.7740   88.0350 Cl    601  TCL601     -0.0790
     17  O17        8.4050   96.7480   82.9520 O.3   601  TCL601     -0.2833
@<TRIPOS>BOND
     1    14     2    1
     2     1     2   ar
     3     1     3   ar
     4     2     6   ar
     5    17     3    1
     6     3     4   ar
     7     6     5   ar
     8     4     5   ar
     9     4    13    1
    10    13    10    1
    11    12    10   ar
    12    12    11   ar
    13    10     9   ar
    14    11     7   ar
    15     9    16    1
    16     9     8   ar
    17     7     8   ar
    18     7    15    1
