@<TRIPOS>MOLECULE
3oif_NAD_A_1.pdb
 44 48 0 0 0
SMALL
GASTEIGER

@<TRIPOS>ATOM
      1  PA        38.2460   42.5590  101.5740 P.3   501  NAD501      0.2189
      2  O1A       38.2450   41.2170  102.2010 O.2   501  NAD501     -0.5170
      3  O2A       38.7790   43.6150  102.4730 O.3   501  NAD501     -0.4371
      4  O5B       36.7360   42.8320  101.0400 O.3   501  NAD501     -0.3112
      5  C5B       35.9530   41.8470  100.3900 C.3   501  NAD501      0.1813
      6  C4B       34.5500   42.0800  100.9350 C.3   501  NAD501      0.1821
      7  O4B       33.4690   41.3500  100.3260 O.3   501  NAD501     -0.3135
      8  C3B       34.5470   41.7640  102.4210 C.3   501  NAD501      0.2184
      9  O3B       34.2010   42.9340  103.0980 O.3   501  NAD501     -0.2174
     10  C2B       33.4370   40.7640  102.5870 C.3   501  NAD501      0.2570
     11  O2B       32.7980   40.9190  103.8410 O.3   501  NAD501     -0.2130
     12  C1B       32.5530   41.0840  101.3730 C.3   501  NAD501      0.3186
     13  N9A       31.6590   39.9520  101.0910 N.pl3 501  NAD501     -0.1439
     14  C8A       32.0340   38.6330  100.9080 C.3   501  NAD501      0.3377
     15  N7A       30.9310   37.8760  100.6960 N.2   501  NAD501     -0.2095
     16  C5A       29.8550   38.7010  100.7390 C.2   501  NAD501      0.2526
     17  C6A       28.4990   38.4340  100.6080 C.2   501  NAD501      0.4393
     18  N6A       28.1190   37.2760  101.1450 N.pl3 501  NAD501      0.2180
     19  N1A       27.6100   39.5020  100.6930 N.2   501  NAD501      0.0021
     20  C2A       28.0470   40.7880  100.9470 C.3   501  NAD501      0.5254
     21  N3A       29.4040   41.0370  101.0980 N.2   501  NAD501     -0.0055
     22  C4A       30.2940   40.0050  101.0030 C.2   501  NAD501      0.3518
     23  O3        39.2580   42.4450  100.3180 O.3   501  NAD501     -0.2703
     24  PN        39.4190   43.4350   99.0540 P.3   501  NAD501      0.2189
     25  O1N       40.6880   43.0310   98.3980 O.2   501  NAD501     -0.5170
     26  O2N       39.2430   44.8560   99.4420 O.3   501  NAD501     -0.4371
     27  O5D       38.2130   42.9330   98.1050 O.3   501  NAD501     -0.3112
     28  C5D       37.2520   43.8460   97.6150 C.3   501  NAD501      0.1813
     29  C4D       37.2820   43.8550   96.0950 C.3   501  NAD501      0.1799
     30  O4D       38.5350   44.3010   95.5920 O.3   501  NAD501     -0.3327
     31  C3D       37.0770   42.4370   95.5720 C.3   501  NAD501      0.2158
     32  O3D       36.1560   42.4390   94.4850 O.3   501  NAD501     -0.2175
     33  C2D       38.4640   42.0340   95.1190 C.3   501  NAD501      0.2309
     34  O2D       38.3770   41.0640   94.1110 O.3   501  NAD501     -0.2158
     35  C1D       38.9810   43.3700   94.6180 C.3   501  NAD501      0.2263
     36  N1N       40.4340   43.4320   94.3940 N.pl3 501  NAD501     -0.2787
     37  C2N       41.3490   43.3680   95.4240 C.3   501  NAD501      0.1244
     38  C3N       42.7250   43.4510   95.1590 C.2   501  NAD501      0.0544
     39  C7N       43.7690   43.3380   96.2500 C.2   501  NAD501      0.2818
     40  O7N       45.0660   42.9630   95.8790 O.2   501  NAD501     -0.2670
     41  N7N       43.4990   43.5750   97.5260 N.am  501  NAD501     -0.0839
     42  C4N       43.1560   43.5970   93.8400 C.2   501  NAD501      0.0033
     43  C5N       42.2170   43.6580   92.8220 C.2   501  NAD501      0.0157
     44  C6N       40.8560   43.5790   93.1080 C.2   501  NAD501      0.0633
@<TRIPOS>BOND
     1    43    44    2
     2    43    42    1
     3    44    36    1
     4    42    38    2
     5    34    33    1
     6    36    35    1
     7    36    37    1
     8    32    31    1
     9    35    33    1
    10    35    30    1
    11    33    31    1
    12    38    37    1
    13    38    39    1
    14    31    29    1
    15    30    29    1
    16    40    39    2
    17    29    28    1
    18    39    41   am
    19    28    27    1
    20    27    24    1
    21    25    24    2
    22    24    26    1
    23    24    23    1
    24    23     1    1
    25     7     6    1
    26     7    12    1
    27     5     6    1
    28     5     4    1
    29    17    19    2
    30    17    16    1
    31    17    18    1
    32    19    20    1
    33    15    16    2
    34    15    14    1
    35    16    22    1
    36    14    13    1
    37     6     8    1
    38    20    21    1
    39    22    13    1
    40    22    21    2
    41     4     1    1
    42    13    12    1
    43    12    10    1
    44     1     2    2
    45     1     3    1
    46     8    10    1
    47     8     9    1
    48    10    11    1
