@<TRIPOS>MOLECULE
3oif_TCL_A_1.pdb
 17 18 0 0 0
SMALL
GASTEIGER

@<TRIPOS>ATOM
      1  C1        42.7200   40.0710   93.5870 C.ar  502  TCL502      0.0566
      2  C2        43.8660   40.1930   94.3870 C.ar  502  TCL502      0.0611
      3  C6        41.5040   39.8310   94.2170 C.ar  502  TCL502      0.2307
      4  C5        41.4720   39.7240   95.6980 C.ar  502  TCL502      0.1840
      5  C4        42.6490   39.8630   96.4270 C.ar  502  TCL502      0.0417
      6  C3        43.8530   40.0920   95.7780 C.ar  502  TCL502      0.0147
      7  C11       38.9200   35.7960   97.5610 C.ar  502  TCL502      0.0587
      8  C10       38.1040   36.8810   97.7620 C.ar  502  TCL502      0.0259
      9  C9        38.5360   38.1230   97.3500 C.ar  502  TCL502      0.0929
     10  C8        39.8640   38.2760   96.7020 C.ar  502  TCL502      0.1559
     11  C12       40.1680   35.9030   96.9540 C.ar  502  TCL502      0.0146
     12  C13       40.6490   37.1420   96.5180 C.ar  502  TCL502      0.0392
     13  O7        40.2780   39.5080   96.3110 O.3   502  TCL502     -0.4494
     14 CL14       45.4400   40.4860   93.6000 Cl    502  TCL502     -0.0821
     15 CL15       38.2930   34.2360   98.1200 Cl    502  TCL502     -0.0822
     16 CL16       37.4450   39.5090   97.6540 Cl    502  TCL502     -0.0790
     17  O17       40.3500   39.6730   93.5230 O.3   502  TCL502     -0.2833
@<TRIPOS>BOND
     1    17     3    1
     2     1     3   ar
     3     1     2   ar
     4    14     2    1
     5     3     4   ar
     6     2     6   ar
     7     4    13    1
     8     4     5   ar
     9     6     5   ar
    10    13    10    1
    11    12    10   ar
    12    12    11   ar
    13    10     9   ar
    14    11     7   ar
    15     9    16    1
    16     9     8   ar
    17     7     8   ar
    18     7    15    1
