@<TRIPOS>MOLECULE
3oig_NAD_A_1.pdb
 44 48 0 0 0
SMALL
GASTEIGER

@<TRIPOS>ATOM
      1  PA        15.4680  -52.5310  104.3030 P.3   1501  NAD1501     0.2189
      2  O1A       14.4770  -53.2190  103.4940 O.2   1501  NAD1501    -0.5170
      3  O2A       15.7130  -52.9140  105.6990 O.3   1501  NAD1501    -0.4371
      4  O5B       15.1710  -50.9580  104.3090 O.3   1501  NAD1501    -0.3112
      5  C5B       14.4980  -50.2770  103.2320 C.3   1501  NAD1501     0.1813
      6  C4B       13.5000  -49.3700  103.9230 C.3   1501  NAD1501     0.1821
      7  O4B       12.7730  -48.6370  102.9320 O.3   1501  NAD1501    -0.3135
      8  C3B       12.4440  -50.1690  104.7140 C.3   1501  NAD1501     0.2184
      9  O3B       12.3600  -49.7490  106.0730 O.3   1501  NAD1501    -0.2174
     10  C2B       11.1470  -49.8300  103.9860 C.3   1501  NAD1501     0.2570
     11  O2B        9.9990  -49.7810  104.8840 O.3   1501  NAD1501    -0.2130
     12  C1B       11.4730  -48.4230  103.4440 C.3   1501  NAD1501     0.3186
     13  N9A       10.5670  -47.9430  102.4380 N.pl3 1501  NAD1501    -0.1439
     14  C8A       10.2310  -48.5880  101.2610 C.3   1501  NAD1501     0.3377
     15  N7A        9.2240  -47.9000  100.6960 N.2   1501  NAD1501    -0.2095
     16  C5A        8.9200  -46.8740  101.5570 C.2   1501  NAD1501     0.2526
     17  C6A        7.8890  -45.8620  101.5050 C.2   1501  NAD1501     0.4393
     18  N6A        6.9580  -45.7870  100.5450 N.pl3 1501  NAD1501     0.2180
     19  N1A        7.8620  -44.9560  102.5250 N.2   1501  NAD1501     0.0021
     20  C2A        8.7600  -45.0110  103.5280 C.3   1501  NAD1501     0.5254
     21  N3A        9.7010  -45.9970  103.6460 N.2   1501  NAD1501    -0.0055
     22  C4A        9.7270  -46.8370  102.6360 C.2   1501  NAD1501     0.3518
     23  O3        16.8490  -52.6660  103.4620 O.3   1501  NAD1501    -0.2703
     24  PN        18.2180  -51.8570  103.5280 P.3   1501  NAD1501     0.2189
     25  O1N       19.1780  -52.6650  102.6960 O.2   1501  NAD1501    -0.5170
     26  O2N       18.5360  -51.5420  104.9000 O.3   1501  NAD1501    -0.4371
     27  O5D       17.8610  -50.5570  102.7290 O.3   1501  NAD1501    -0.3112
     28  C5D       18.1620  -49.2100  103.2500 C.3   1501  NAD1501     0.1813
     29  C4D       18.8250  -48.3490  102.1850 C.3   1501  NAD1501     0.1799
     30  O4D       20.1300  -48.8810  101.9510 O.3   1501  NAD1501    -0.3327
     31  C3D       18.1600  -48.3280  100.8340 C.3   1501  NAD1501     0.2158
     32  O3D       18.2630  -47.0020  100.2360 O.3   1501  NAD1501    -0.2175
     33  C2D       19.0160  -49.2530   99.9920 C.3   1501  NAD1501     0.2309
     34  O2D       18.9590  -48.8940   98.6150 O.3   1501  NAD1501    -0.2158
     35  C1D       20.3380  -48.9670  100.5710 C.3   1501  NAD1501     0.2263
     36  N1N       21.4220  -49.8770  100.2760 N.pl3 1501  NAD1501    -0.2787
     37  C2N       21.3050  -51.2350  100.5440 C.3   1501  NAD1501     0.1244
     38  C3N       22.3470  -52.0780  100.3330 C.2   1501  NAD1501     0.0544
     39  C7N       22.1940  -53.5000  100.5670 C.2   1501  NAD1501     0.2818
     40  O7N       23.0090  -54.3230  100.0300 O.2   1501  NAD1501    -0.2670
     41  N7N       21.2750  -54.0260  101.4090 N.am  1501  NAD1501    -0.0839
     42  C4N       23.6640  -51.6580   99.8360 C.2   1501  NAD1501     0.0033
     43  C5N       23.7250  -50.1920   99.6350 C.2   1501  NAD1501     0.0157
     44  C6N       22.6600  -49.3730   99.8760 C.2   1501  NAD1501     0.0633
@<TRIPOS>BOND
     1    34    33    1
     2    43    42    1
     3    43    44    2
     4    42    38    2
     5    44    36    1
     6    33    35    1
     7    33    31    1
     8    40    39    2
     9    32    31    1
    10    36    37    1
    11    36    35    1
    12    38    37    1
    13    38    39    1
    14    18    17    1
    15    39    41   am
    16    35    30    1
    17    15    14    1
    18    15    16    2
    19    31    29    1
    20    14    13    1
    21    17    16    1
    22    17    19    2
    23    16    22    1
    24    30    29    1
    25    29    28    1
    26    13    22    1
    27    13    12    1
    28    19    20    1
    29    22    21    2
    30    25    24    2
    31    27    28    1
    32    27    24    1
    33     7    12    1
    34     7     6    1
    35     5     6    1
    36     5     4    1
    37    12    10    1
    38    23    24    1
    39    23     1    1
    40     2     1    2
    41    24    26    1
    42    20    21    1
    43     6     8    1
    44    10     8    1
    45    10    11    1
    46     1     4    1
    47     1     3    1
    48     8     9    1
