@<TRIPOS>MOLECULE
3oig_IMJ_A_1.pdb
 29 32 0 0 0
SMALL
GASTEIGER

@<TRIPOS>ATOM
      1  C20       18.8040  -55.1640   94.5130 C.ar  301  IMJ301      0.0012
      2  C21       18.3920  -55.6190   93.2540 C.ar  301  IMJ301      0.0001
      3  C22       19.3390  -56.1870   92.4050 C.ar  301  IMJ301      0.0015
      4  C23       20.6510  -56.3200   92.6920 C.ar  301  IMJ301      0.0172
      5  C24       21.0520  -55.8630   93.9490 C.ar  301  IMJ301      0.0594
      6  C25       20.1280  -55.2960   94.8500 C.ar  301  IMJ301      0.0145
      7  N26       22.2790  -55.8750   94.5710 N.ar  301  IMJ301     -0.3289
      8  C27       22.1840  -55.3300   95.8140 C.ar  301  IMJ301      0.0351
      9  C28       20.8930  -54.9670   96.0390 C.ar  301  IMJ301      0.0108
     10  C29       23.5180  -56.4570   93.8980 C.3   301  IMJ301      0.1301
     11  C30       23.3360  -55.1780   96.7520 C.3   301  IMJ301      0.0497
     12  C31       20.3260  -54.3250   97.2820 C.3   301  IMJ301      0.1216
     13  N32       20.2610  -52.8400   97.1820 N.am  301  IMJ301     -0.2702
     14  C33       21.5230  -52.1660   97.0590 C.3   301  IMJ301      0.1155
     15  C34       19.1390  -52.1250   97.0200 C.2   301  IMJ301      0.2495
     16  O35       19.1870  -50.8510   96.8290 O.2   301  IMJ301     -0.2699
     17  C36       17.8060  -52.8200   97.0570 C.2   301  IMJ301      0.0580
     18  C37       16.7090  -52.1520   96.6450 C.2   301  IMJ301      0.0062
     19  C38       15.3420  -52.7550   96.5740 C.2   301  IMJ301      0.0205
     20  C39       15.1190  -54.0920   96.9360 C.2   301  IMJ301      0.0083
     21  C40       13.7460  -54.5290   96.8130 C.2   301  IMJ301      0.0539
     22  C41       13.3770  -55.9180   97.1600 C.3   301  IMJ301      0.0564
     23  C42       11.9200  -55.8930   97.6540 C.3   301  IMJ301      0.1409
     24  C43       11.0190  -55.1520   96.6940 C.1   301  IMJ301      0.1897
     25  N44       11.4710  -54.0810   96.0000 N.2   301  IMJ301     -0.2822
     26  C45       12.8020  -53.6670   96.1950 C.1   301  IMJ301      0.0958
     27  N46       13.0820  -52.4050   95.8600 N.2   301  IMJ301     -0.1819
     28  C47       14.3480  -51.9570   96.0370 C.2   301  IMJ301      0.1105
     29  O48        9.7900  -55.4520   96.5450 O.2   301  IMJ301     -0.2134
@<TRIPOS>BOND
     1     3     4   ar
     2     3     2   ar
     3     4     5   ar
     4     2     1   ar
     5    10     7    1
     6     5     7   ar
     7     5     6   ar
     8     1     6   ar
     9     7     8   ar
    10     6     9   ar
    11     8     9   ar
    12     8    11    1
    13    27    28    1
    14    27    26    2
    15    25    26    2
    16    25    24    2
    17    28    19    2
    18     9    12    1
    19    26    21    1
    20    29    24    2
    21    19    18    1
    22    19    20    1
    23    18    17    2
    24    24    23    1
    25    21    20    2
    26    21    22    1
    27    16    15    2
    28    15    17    1
    29    15    13   am
    30    14    13    1
    31    22    23    1
    32    13    12    1
