@<TRIPOS>MOLECULE
3oih_TRE_A_1.pdb
 23 24 0 0 0
SMALL
GASTEIGER

@<TRIPOS>ATOM
      1  C1        -0.2800   11.8600   32.2150 C.3   7347  TRE7347     0.2713
      2  C2        -0.2020   10.3860   32.7630 C.3   7347  TRE7347     0.2406
      3  C3        -0.1910    9.4370   31.5420 C.3   7347  TRE7347     0.2198
      4  C4        -1.4780    9.6720   30.7360 C.3   7347  TRE7347     0.2144
      5  C5        -1.5290   11.1500   30.2930 C.3   7347  TRE7347     0.1835
      6  C6        -2.8230   11.3940   29.5040 C.3   7347  TRE7347     0.2142
      7  O1         0.8380   12.1970   31.3080 O.3   7347  TRE7347    -0.3016
      8  O2         0.9980   10.1730   33.5170 O.3   7347  TRE7347    -0.2149
      9  O3        -0.1420    8.0630   31.9760 O.3   7347  TRE7347    -0.2174
     10  O4        -1.4700    8.8130   29.5840 O.3   7347  TRE7347    -0.2176
     11  O5        -1.5250   12.0320   31.4620 O.3   7347  TRE7347    -0.3256
     12  O6        -2.8650   12.7680   29.1050 O.3   7347  TRE7347    -0.2176
     13  C1P        0.6840   13.5810   30.7970 C.3   7347  TRE7347     0.2713
     14  C2P        1.7930   13.9260   29.7670 C.3   7347  TRE7347     0.2406
     15  C3P        3.1660   14.0110   30.4510 C.3   7347  TRE7347     0.2198
     16  C4P        3.0970   15.1120   31.5140 C.3   7347  TRE7347     0.2144
     17  C5P        2.0030   14.7250   32.5170 C.3   7347  TRE7347     0.1835
     18  C6P        1.9210   15.8200   33.5820 C.3   7347  TRE7347     0.2142
     19  O2P        1.7970   12.9170   28.7510 O.3   7347  TRE7347    -0.2149
     20  O3P        4.1670   14.3270   29.4990 O.3   7347  TRE7347    -0.2174
     21  O4P        4.3600   15.2170   32.1920 O.3   7347  TRE7347    -0.2176
     22  O5P        0.7010   14.6060   31.8500 O.3   7347  TRE7347    -0.3256
     23  O6P        0.9160   15.4880   34.5210 O.3   7347  TRE7347    -0.2176
@<TRIPOS>BOND
     1    19    14    1
     2    12     6    1
     3    20    15    1
     4     6     5    1
     5    10     4    1
     6    14    15    1
     7    14    13    1
     8     5     4    1
     9     5    11    1
    10    15    16    1
    11     4     3    1
    12    13     7    1
    13    13    22    1
    14     7     1    1
    15    11     1    1
    16    16    21    1
    17    16    17    1
    18     3     9    1
    19     3     2    1
    20    22    17    1
    21     1     2    1
    22    17    18    1
    23     2     8    1
    24    18    23    1
