@<TRIPOS>MOLECULE
3oii_SAH_A_1.pdb
 26 28 0 0 0
SMALL
GASTEIGER

@<TRIPOS>ATOM
      1  N        -21.8200    2.2890   -2.5330 N.3   253  SAH253     -0.1208
      2  CA       -21.4660    1.3530   -3.6520 C.3   253  SAH253      0.1952
      3  CB       -20.1640    0.6150   -3.2970 C.3   253  SAH253      0.0422
      4  CG       -19.5540   -0.2370   -4.4190 C.3   253  SAH253      0.0597
      5  SD       -19.1770    0.7360   -5.8480 S.3   253  SAH253     -0.1375
      6  C        -22.6530    0.4430   -3.9520 C.2   253  SAH253      0.3819
      7  O        -22.9090    0.0180   -5.0910 O.co2 253  SAH253     -0.2441
      8  OXT      -23.4440    0.1220   -3.0680 O.co2 253  SAH253     -0.2441
      9  C5'      -17.5610    1.3390   -5.3450 C.3   253  SAH253      0.0899
     10  C4'      -17.3160    2.8590   -5.4200 C.3   253  SAH253      0.1630
     11  O4'      -17.4860    3.4430   -6.7390 O.3   253  SAH253     -0.3153
     12  C3'      -18.3460    3.5960   -4.5640 C.3   253  SAH253      0.2168
     13  O3'      -17.9860    3.5860   -3.1780 O.3   253  SAH253     -0.2175
     14  C2'      -18.2660    5.0020   -5.0920 C.3   253  SAH253      0.2569
     15  O2'      -17.1450    5.6710   -4.4470 O.3   253  SAH253     -0.2130
     16  C1'      -18.0770    4.7510   -6.5700 C.3   253  SAH253      0.3185
     17  N9       -19.3290    4.7680   -7.4290 N.pl3 253  SAH253     -0.1439
     18  C8       -20.1830    3.7430   -7.7950 C.3   253  SAH253      0.3377
     19  N7       -21.1760    4.1880   -8.6700 N.2   253  SAH253     -0.2095
     20  C5       -20.9300    5.4690   -8.8850 C.2   253  SAH253      0.2526
     21  C6       -21.5260    6.5330   -9.7110 C.2   253  SAH253      0.4393
     22  N6       -22.5720    6.2660  -10.5170 N.pl3 253  SAH253      0.2180
     23  N1       -20.9640    7.7680   -9.6680 N.2   253  SAH253      0.0021
     24  C2       -19.8860    8.0030   -8.9220 C.3   253  SAH253      0.5254
     25  N3       -19.2700    7.0780   -8.1460 N.2   253  SAH253     -0.0055
     26  C4       -19.7250    5.8370   -8.0790 C.2   253  SAH253      0.3518
@<TRIPOS>BOND
     1    22    21    1
     2    21    23    2
     3    21    20    1
     4    23    24    1
     5    24    25    1
     6    20    19    2
     7    20    26    1
     8    19    18    1
     9    25    26    2
    10    26    17    1
    11    18    17    1
    12    17    16    1
    13    11    16    1
    14    11    10    1
    15    16    14    1
    16     5     9    1
    17     5     4    1
    18    10     9    1
    19    10    12    1
    20    14    12    1
    21    14    15    1
    22     7     6   ar
    23    12    13    1
    24     4     3    1
    25     6     2    1
    26     6     8   ar
    27     2     3    1
    28     2     1    1
