@<TRIPOS>MOLECULE
3oij_SAH_A_1.pdb
 25 27 0 0 0
SMALL
GASTEIGER

@<TRIPOS>ATOM
      1  N         34.0890   10.5950    2.0840 N.3   253  SAH253     -0.1245
      2  CA        33.4350    9.6400    1.1900 C.3   253  SAH253      0.1570
      3  CB        33.0390    8.3560    1.9260 C.3   253  SAH253      0.0387
      4  CG        31.8840    8.4890    2.9200 C.3   253  SAH253      0.0596
      5  SD        30.3560    7.6280    2.4340 S.3   253  SAH253     -0.1375
      6  C         32.2180   10.2650    0.5060 C.2   253  SAH253      0.2261
      7  O         31.5970    9.6570   -0.3670 O.2   253  SAH253     -0.2867
      8  C5'       29.9480    7.3160    4.1760 C.3   253  SAH253      0.0899
      9  C4'       28.7040    8.0530    4.6770 C.3   253  SAH253      0.1630
     10  O4'       28.9410    8.6170    5.9630 O.3   253  SAH253     -0.3153
     11  C3'       28.3000    9.1850    3.7420 C.3   253  SAH253      0.2168
     12  O3'       27.0980    8.8690    3.0810 O.3   253  SAH253     -0.2175
     13  C2'       28.1330   10.4130    4.6200 C.3   253  SAH253      0.2569
     14  O2'       26.7680   10.7720    4.6900 O.3   253  SAH253     -0.2130
     15  C1'       28.6430   10.0080    5.9980 C.3   253  SAH253      0.3185
     16  N9        29.8530   10.7760    6.4080 N.pl3 253  SAH253     -0.1439
     17  C8        31.1520   10.4980    6.0490 C.3   253  SAH253      0.3377
     18  N7        31.9790   11.4070    6.6130 N.2   253  SAH253     -0.2095
     19  C5        31.2340   12.2770    7.3340 C.2   253  SAH253      0.2526
     20  C6        31.5720   13.3920    8.1040 C.2   253  SAH253      0.4393
     21  N6        32.8410   13.7810    8.2360 N.pl3 253  SAH253      0.2180
     22  N1        30.5720   14.1040    8.7360 N.2   253  SAH253      0.0021
     23  C2        29.2530   13.7090    8.6030 C.3   253  SAH253      0.5254
     24  N3        28.9260   12.6060    7.8390 N.2   253  SAH253     -0.0055
     25  C4        29.8970   11.8930    7.2140 C.2   253  SAH253      0.3518
@<TRIPOS>BOND
     1     7     6    2
     2     6     2    1
     3     2     3    1
     4     2     1    1
     5     3     4    1
     6     5     4    1
     7     5     8    1
     8    12    11    1
     9    11    13    1
    10    11     9    1
    11     8     9    1
    12    13    14    1
    13    13    15    1
    14     9    10    1
    15    10    15    1
    16    15    16    1
    17    17    16    1
    18    17    18    1
    19    16    25    1
    20    18    19    2
    21    25    19    1
    22    25    24    2
    23    19    20    1
    24    24    23    1
    25    20    21    1
    26    20    22    2
    27    23    22    1
