@<TRIPOS>MOLECULE
3oik_WZB_A_1.pdb
 30 33 0 0 0
SMALL
GASTEIGER

@<TRIPOS>ATOM
      1  OAH       -7.3890    0.7140   16.9970 O.3   300  WZB300     -0.0529
      2  SBD       -5.9750    0.6370   16.7130 S.3   300  WZB300      0.0827
      3  OAG       -5.0740    1.1280   17.7710 O.3   300  WZB300     -0.0529
      4  NAD       -5.5220   -0.8530   16.3190 N.3   300  WZB300      0.0391
      5  OAS       -5.9240    1.5580   15.4790 O.3   300  WZB300     -0.2300
      6  CAX       -4.6220    1.7440   14.8050 C.3   300  WZB300      0.1445
      7  CAM       -4.2300    0.7350   13.6970 C.3   300  WZB300      0.0320
      8  CAO       -3.5730    1.6930   12.6230 C.3   300  WZB300      0.0027
      9  CBB       -4.2710    3.1230   14.3280 C.3   300  WZB300      0.0274
     10  CBA       -3.1730    2.9160   13.4730 C.3   300  WZB300      0.0027
     11  CAB       -5.5130    3.5050   13.4330 C.3   300  WZB300      0.0025
     12  CAQ       -4.1510    4.2500   15.2970 C.3   300  WZB300      0.0027
     13  CAP       -3.7500    5.5020   14.5780 C.3   300  WZB300      0.0044
     14  CAY       -2.3720    5.2210   13.8810 C.3   300  WZB300      0.0220
     15  CAZ       -2.5200    4.1360   12.7910 C.3   300  WZB300      0.0044
     16  CAN       -1.2080    3.8620   12.0890 C.3   300  WZB300      0.0050
     17  CAL       -0.9260    5.1310   11.2240 C.3   300  WZB300      0.0261
     18  CAU       -0.8420    6.3550   12.1630 C.ar  300  WZB300     -0.0231
     19  CAI       -0.0790    7.4630   11.7640 C.ar  300  WZB300      0.0349
     20  CAW       -1.5170    6.4140   13.3860 C.ar  300  WZB300     -0.0266
     21  CAJ       -1.4210    7.5270   14.2010 C.ar  300  WZB300     -0.0058
     22  CAT       -0.6420    8.6190   13.8000 C.ar  300  WZB300      0.0143
     23  CAK       -0.5800    9.8230   14.7480 C.3   300  WZB300      0.0295
     24  CAA       -1.6580   10.8040   14.2930 C.3   300  WZB300      0.0051
     25  CAV        0.0300    8.5900   12.5720 C.ar  300  WZB300      0.1685
     26  OAR        0.7840    9.7020   12.2040 O.3   300  WZB300     -0.3472
     27  SBC        2.2670    9.5960   12.2900 S.3   300  WZB300      0.1232
     28  OAF        2.7570    8.7160   11.1710 O.3   300  WZB300     -0.0428
     29  OAE        2.7670    9.0780   13.6100 O.3   300  WZB300     -0.0428
     30  NAC        2.8990   11.0900   12.0620 N.3   300  WZB300      0.0501
@<TRIPOS>BOND
     1    28    27    1
     2    17    16    1
     3    17    18    1
     4    19    18   ar
     5    19    25   ar
     6    30    27    1
     7    16    15    1
     8    18    20   ar
     9    26    27    1
    10    26    25    1
    11    27    29    1
    12    25    22   ar
    13     8    10    1
    14     8     7    1
    15    15    10    1
    16    15    14    1
    17    20    14    1
    18    20    21   ar
    19    11     9    1
    20    10     9    1
    21     7     6    1
    22    22    21   ar
    23    22    23    1
    24    14    13    1
    25    24    23    1
    26     9     6    1
    27     9    12    1
    28    13    12    1
    29     6     5    1
    30     5     2    1
    31     4     2    1
    32     2     1    1
    33     2     3    1
