@<TRIPOS>MOLECULE
3oil_VZ5_A_1.pdb
 26 29 0 0 0
SMALL
GASTEIGER

@<TRIPOS>ATOM
      1  C1        -3.5860    1.2630   13.8100 C.ar  263  VZ5263      0.0349
      2  N1        -5.1030   -0.8310   15.9800 N.3   263  VZ5263      0.0501
      3  O1        -5.2400    0.6650   17.9910 O.3   263  VZ5263     -0.0428
      4  S1        -5.4820    0.6300   16.5590 S.3   263  VZ5263      0.1232
      5  C2        -4.4280    1.9930   14.6510 C.ar  263  VZ5263      0.1685
      6  O2        -6.8600    1.0740   16.2980 O.3   263  VZ5263     -0.0428
      7  C3        -5.1300    3.1210   14.1520 C.ar  263  VZ5263      0.0143
      8  O3        -4.5310    1.6200   15.9960 O.3   263  VZ5263     -0.3472
      9  C4        -4.9990    3.4470   12.7880 C.ar  263  VZ5263     -0.0058
     10  C5        -4.1180    2.7290   11.9370 C.ar  263  VZ5263     -0.0266
     11  C6        -3.4270    1.6270   12.4360 C.ar  263  VZ5263     -0.0231
     12  C7        -2.4460    0.8470   11.5860 C.3   263  VZ5263      0.0261
     13  C8        -2.2280    1.3260   10.1770 C.3   263  VZ5263      0.0050
     14  C9        -2.4980    2.7930   10.0750 C.3   263  VZ5263      0.0044
     15  C10       -3.9200    3.1390   10.5040 C.3   263  VZ5263      0.0220
     16  C11       -4.3650    4.5450   10.1120 C.3   263  VZ5263      0.0044
     17  C12       -3.3120    5.4570    9.6020 C.3   263  VZ5263      0.0028
     18  C13       -2.3030    4.8260    8.6000 C.3   263  VZ5263      0.0282
     19  C14       -2.2560    3.3520    8.6650 C.3   263  VZ5263      0.0028
     20  C15       -0.9540    3.0600    7.9920 C.3   263  VZ5263      0.0027
     21  C16       -0.9480    4.0730    6.8700 C.3   263  VZ5263      0.0329
     22  C17       -2.1380    5.0120    7.1580 C.3   263  VZ5263      0.1519
     23  O17       -1.8300    6.2900    6.7770 O.3   263  VZ5263     -0.2232
     24  C18       -1.1170    5.4390    9.2000 C.3   263  VZ5263      0.0025
     25  C19       -6.0520    3.9110   15.0080 C.3   263  VZ5263      0.0295
     26  C20       -5.7630    5.3810   15.0740 C.3   263  VZ5263      0.0051
@<TRIPOS>BOND
     1    23    22    1
     2    21    22    1
     3    21    20    1
     4    22    18    1
     5    20    19    1
     6    18    19    1
     7    18    24    1
     8    18    17    1
     9    19    14    1
    10    17    16    1
    11    14    13    1
    12    14    15    1
    13    16    15    1
    14    13    12    1
    15    15    10    1
    16    12    11    1
    17    10    11   ar
    18    10     9   ar
    19    11     1   ar
    20     9     7   ar
    21     1     5   ar
    22     7     5   ar
    23     7    25    1
    24     5     8    1
    25    25    26    1
    26     2     4    1
    27     8     4    1
    28     6     4    1
    29     4     3    1
