@<TRIPOS>MOLECULE
3oim_VZ5_A_1.pdb
 26 29 0 0 0
SMALL
GASTEIGER

@<TRIPOS>ATOM
      1  C1        -3.0620    2.7340   14.1670 C.ar  263  VZ5263      0.0349
      2  N1        -5.1170   -0.7390   15.9480 N.3   263  VZ5263      0.0501
      3  O1        -4.4020    1.2790   17.1310 O.3   263  VZ5263     -0.0428
      4  S1        -5.2740    0.7810   16.1110 S.3   263  VZ5263      0.1232
      5  C2        -4.4670    2.5980   14.3770 C.ar  263  VZ5263      0.1685
      6  O2        -6.6830    1.1870   16.1950 O.3   263  VZ5263     -0.0428
      7  C3        -5.0080    3.8360   14.5630 C.ar  263  VZ5263      0.0143
      8  O3        -4.6540    1.3080   14.8050 O.3   263  VZ5263     -0.3472
      9  C4        -4.3750    5.0280   14.1670 C.ar  263  VZ5263     -0.0058
     10  C5        -3.0060    5.1270   13.8860 C.ar  263  VZ5263     -0.0266
     11  C6        -2.3470    3.9150   13.8370 C.ar  263  VZ5263     -0.0231
     12  C7        -0.8530    3.8840   13.5160 C.3   263  VZ5263      0.0261
     13  C8        -0.4460    5.0250   12.5850 C.3   263  VZ5263      0.0050
     14  C9        -0.8010    6.3280   13.2820 C.3   263  VZ5263      0.0044
     15  C10       -2.3530    6.3670   13.5500 C.3   263  VZ5263      0.0220
     16  C11       -2.7200    7.6610   14.2930 C.3   263  VZ5263      0.0044
     17  C12       -2.2710    8.9680   13.5560 C.3   263  VZ5263      0.0028
     18  C13       -0.7460    8.8660   13.4180 C.3   263  VZ5263      0.0282
     19  C14       -0.3170    7.6450   12.6140 C.3   263  VZ5263      0.0028
     20  C15        1.2060    7.8570   12.5910 C.3   263  VZ5263      0.0027
     21  C16        1.3530    9.4210   12.7070 C.3   263  VZ5263      0.0329
     22  C17       -0.0670    9.9350   12.5770 C.3   263  VZ5263      0.1519
     23  O17       -0.0540   11.2270   13.2360 O.3   263  VZ5263     -0.2232
     24  C18       -0.1600    8.8810   14.8380 C.3   263  VZ5263      0.0025
     25  C19       -6.4730    3.8660   14.8490 C.3   263  VZ5263      0.0295
     26  C20       -6.6690    4.2120   16.3070 C.3   263  VZ5263      0.0051
@<TRIPOS>BOND
     1    22    21    1
     2    22    23    1
     3    22    18    1
     4    13    14    1
     5    13    12    1
     6    20    19    1
     7    20    21    1
     8    19    14    1
     9    19    18    1
    10    14    15    1
    11    18    17    1
    12    18    24    1
    13    12    11    1
    14    15    10    1
    15    15    16    1
    16    17    16    1
    17    11    10   ar
    18    11     1   ar
    19    10     9   ar
    20     9     7   ar
    21     1     5   ar
    22     5     7   ar
    23     5     8    1
    24     7    25    1
    25     8     4    1
    26    25    26    1
    27     2     4    1
    28     4     6    1
    29     4     3    1
