@<TRIPOS>MOLECULE
3oin_SAH_B_1.pdb
 25 27 0 0 0
SMALL
GASTEIGER

@<TRIPOS>ATOM
      1  N         -1.8950    1.4710   30.2320 N.3   253  SAH253     -0.1245
      2  CA        -1.6490    1.3230   28.8040 C.3   253  SAH253      0.1570
      3  CB        -0.7590    0.1110   28.5440 C.3   253  SAH253      0.0387
      4  CG        -0.3780   -0.0920   27.0820 C.3   253  SAH253      0.0596
      5  SD         0.5940    1.3040   26.4570 S.3   253  SAH253     -0.1375
      6  C         -2.9750    1.1850   28.0570 C.2   253  SAH253      0.2261
      7  O         -3.9860    0.7930   28.6480 O.2   253  SAH253     -0.2867
      8  C5'        2.1240    0.5080   27.0270 C.3   253  SAH253      0.0899
      9  C4'        2.9320    1.3340   28.0310 C.3   253  SAH253      0.1630
     10  O4'        3.4100    2.5380   27.4400 O.3   253  SAH253     -0.3153
     11  C3'        2.1590    1.7630   29.2750 C.3   253  SAH253      0.2168
     12  O3'        2.1560    0.7740   30.2900 O.3   253  SAH253     -0.2175
     13  C2'        2.9130    3.0020   29.7220 C.3   253  SAH253      0.2569
     14  O2'        3.9690    2.6350   30.5920 O.3   253  SAH253     -0.2130
     15  C1'        3.4990    3.5560   28.4290 C.3   253  SAH253      0.3185
     16  N9         2.7300    4.7580   28.0200 N.pl3 253  SAH253     -0.1439
     17  C8         1.6300    4.8010   27.1960 C.3   253  SAH253      0.3377
     18  N7         1.2130    6.0930   27.0870 N.2   253  SAH253     -0.2095
     19  C5         2.0270    6.8750   27.8340 C.2   253  SAH253      0.2526
     20  C6         2.0590    8.2520   28.0780 C.2   253  SAH253      0.4393
     21  N6         1.1670    9.0750   27.5260 N.pl3 253  SAH253      0.2180
     22  N1         3.0280    8.7700   28.9070 N.2   253  SAH253      0.0021
     23  C2         3.9570    7.9290   29.4850 C.3   253  SAH253      0.5254
     24  N3         3.9210    6.5700   29.2380 N.2   253  SAH253     -0.0055
     25  C4         2.9780    6.0480   28.4250 C.2   253  SAH253      0.3518
@<TRIPOS>BOND
     1     5     8    1
     2     5     4    1
     3     8     9    1
     4     4     3    1
     5    18    17    1
     6    18    19    2
     7    17    16    1
     8    10     9    1
     9    10    15    1
    10    21    20    1
    11    19    20    1
    12    19    25    1
    13    16    25    1
    14    16    15    1
    15     9    11    1
    16     6     7    2
    17     6     2    1
    18    20    22    2
    19    25    24    2
    20    15    13    1
    21     3     2    1
    22     2     1    1
    23    22    23    1
    24    24    23    1
    25    11    13    1
    26    11    12    1
    27    13    14    1
