@<TRIPOS>MOLECULE
3ois_UDP_A_1.pdb
 25 26 0 0 0
SMALL
GASTEIGER

@<TRIPOS>ATOM
      1  N1        58.0790   23.2450    0.5380 N.am  292  UDP292     -0.1766
      2  C2        57.0170   23.6270   -0.2340 C.1   292  UDP292      0.2845
      3  N3        56.8150   24.9860   -0.4430 N.2   292  UDP292     -0.2452
      4  C4        57.6470   25.9150    0.0930 C.1   292  UDP292      0.2182
      5  C5        58.7180   25.5380    0.9240 C.2   292  UDP292      0.1242
      6  C6        58.9690   24.1630    1.0320 C.2   292  UDP292      0.0929
      7  O2        56.2700   22.8520   -0.7430 O.2   292  UDP292     -0.1918
      8  O4        57.3220   27.1340   -0.0820 O.2   292  UDP292     -0.2085
      9  C1'       58.1730   21.7730    0.8330 C.3   292  UDP292      0.2401
     10  C2'       58.6490   20.9350   -0.3340 C.3   292  UDP292      0.2319
     11  O2'       58.0640   19.6510   -0.1270 O.3   292  UDP292     -0.2157
     12  C3'       60.0910   20.8920   -0.0140 C.3   292  UDP292      0.2158
     13  C4'       60.0840   20.6970    1.5190 C.3   292  UDP292      0.1799
     14  O4'       59.0070   21.5420    1.9770 O.3   292  UDP292     -0.3320
     15  O3'       60.6200   19.7240   -0.6370 O.3   292  UDP292     -0.2175
     16  C5'       61.4430   21.0550    2.1130 C.3   292  UDP292      0.1813
     17  O5'       61.6590   22.4390    1.8450 O.3   292  UDP292     -0.3111
     18  PA        62.6950   23.3080    2.5610 P.3   292  UDP292      0.2231
     19  O1A       63.0130   24.5650    1.8480 O.2   292  UDP292     -0.5169
     20  O2A       62.3640   23.4570    4.0060 O.3   292  UDP292     -0.4370
     21  O3A       63.9620   22.2920    2.4330 O.3   292  UDP292     -0.2261
     22  PB        65.5590   22.4320    2.6430 P.3   292  UDP292      0.5373
     23  O1B       65.9580   21.3600    3.5480 O.3   292  UDP292     -0.1143
     24  O2B       66.0840   22.3450    1.3050 O.2   292  UDP292     -0.2221
     25  O3B       65.9640   23.7520    3.2250 O.3   292  UDP292     -0.1143
@<TRIPOS>BOND
     1     7     2    2
     2    15    12    1
     3     3     2    2
     4     3     4    2
     5    10    11    1
     6    10    12    1
     7    10     9    1
     8     2     1   am
     9     8     4    2
    10    12    13    1
    11     4     5    1
    12     1     9    1
    13     1     6    1
    14     9    14    1
    15     5     6    2
    16    24    22    2
    17    13    14    1
    18    13    16    1
    19    17    16    1
    20    17    18    1
    21    19    18    2
    22    21    18    1
    23    21    22    1
    24    18    20    1
    25    22    25    1
    26    22    23    1
