@<TRIPOS>MOLECULE
3oiu_GNP_A_1.pdb
 32 34 0 0 0
SMALL
GASTEIGER

@<TRIPOS>ATOM
      1  PG        16.2600   -1.7040   22.6740 P.3   201  GNP201      0.4884
      2  O1G       15.4200   -1.0800   21.5620 O.2   201  GNP201     -0.2331
      3  O2G       17.6530   -1.9500   22.2290 O.3   201  GNP201     -0.1240
      4  O3G       15.5730   -2.9470   23.1740 O.3   201  GNP201     -0.1240
      5  N3B       16.3190   -0.6700   23.9340 N.3   201  GNP201     -0.0163
      6  PB        17.1770   -0.7500   25.3230 P.3   201  GNP201      0.4669
      7  O1B       16.4810   -1.5920   26.3520 O.3   201  GNP201     -0.1253
      8  O2B       18.5540   -1.1540   25.0170 O.2   201  GNP201     -0.2351
      9  O3A       17.2270    0.7010   25.8690 O.3   201  GNP201     -0.2360
     10  PA        18.4270    1.7450   25.8810 P.3   201  GNP201      0.2220
     11  O1A       19.5170    1.3050   26.7720 O.3   201  GNP201     -0.4370
     12  O2A       18.6940    2.1370   24.4530 O.2   201  GNP201     -0.5170
     13  O5'       17.7830    2.9820   26.6220 O.3   201  GNP201     -0.3111
     14  C5'       16.5840    3.5880   26.1030 C.3   201  GNP201      0.1813
     15  C4'       16.4900    5.0200   26.5920 C.3   201  GNP201      0.1799
     16  O4'       16.3120    5.0280   28.0360 O.3   201  GNP201     -0.3326
     17  C3'       17.7290    5.8830   26.3520 C.3   201  GNP201      0.2158
     18  O3'       17.3420    7.2220   26.0820 O.3   201  GNP201     -0.2175
     19  C2'       18.4870    5.8350   27.6740 C.3   201  GNP201      0.2310
     20  O2'       19.2940    6.9690   27.9030 O.3   201  GNP201     -0.2158
     21  C1'       17.3290    5.7810   28.6800 C.3   201  GNP201      0.2293
     22  N9        17.7260    5.0850   29.9030 N.pl3 201  GNP201     -0.2354
     23  C8        18.2870    3.8280   29.9820 C.3   201  GNP201      0.2246
     24  N7        18.5590    3.4960   31.2200 N.2   201  GNP201     -0.2322
     25  C5        18.1560    4.5850   31.9830 C.2   201  GNP201      0.2182
     26  C6        18.1890    4.7910   33.3890 C.1   201  GNP201      0.2372
     27  O6        18.6250    4.0050   34.2450 O.2   201  GNP201     -0.2069
     28  N1        17.6720    6.0300   33.7710 N.2   201  GNP201     -0.2485
     29  C2        17.1750    6.9580   32.8900 C.1   201  GNP201      0.2531
     30  N2        16.7180    8.1050   33.4070 N.pl3 201  GNP201     -0.0226
     31  N3        17.1370    6.7770   31.5740 N.2   201  GNP201     -0.3074
     32  C4        17.6310    5.5730   31.1860 C.2   201  GNP201      0.2300
@<TRIPOS>BOND
     1     2     1    2
     2     3     1    1
     3     1     4    1
     4     1     5    1
     5     5     6    1
     6    12    10    2
     7     8     6    2
     8     6     9    1
     9     6     7    1
    10     9    10    1
    11    10    13    1
    12    10    11    1
    13    18    17    1
    14    14    15    1
    15    14    13    1
    16    17    15    1
    17    17    19    1
    18    15    16    1
    19    19    20    1
    20    19    21    1
    21    16    21    1
    22    21    22    1
    23    22    23    1
    24    22    32    1
    25    23    24    1
    26    32    31    2
    27    32    25    1
    28    24    25    2
    29    31    29    2
    30    25    26    1
    31    29    30    1
    32    29    28    2
    33    26    28    2
    34    26    27    2
