@<TRIPOS>MOLECULE
3oiv_GNP_A_1.pdb
 32 34 0 0 0
SMALL
GASTEIGER

@<TRIPOS>ATOM
      1  PG        -9.7220   63.9070  -66.3900 P.3   201  GNP201      0.4884
      2  O1G       -8.7940   63.6460  -65.2320 O.3   201  GNP201     -0.1240
      3  O2G      -10.7610   64.8870  -65.9930 O.3   201  GNP201     -0.1240
      4  O3G      -10.3060   62.5690  -66.8080 O.2   201  GNP201     -0.2331
      5  N3B       -8.8400   64.4950  -67.6220 N.3   201  GNP201     -0.0163
      6  PB        -9.3170   65.1160  -69.0330 P.3   201  GNP201      0.4669
      7  O1B       -9.6760   64.0370  -69.9840 O.2   201  GNP201     -0.2351
      8  O2B      -10.3660   66.1110  -68.8050 O.3   201  GNP201     -0.1253
      9  O3A       -8.1130   65.8630  -69.6510 O.3   201  GNP201     -0.2360
     10  PA        -7.8110   67.3940  -69.6340 P.3   201  GNP201      0.2220
     11  O1A       -8.7190   68.1600  -70.4950 O.2   201  GNP201     -0.5170
     12  O2A       -7.5700   67.8990  -68.2600 O.3   201  GNP201     -0.4370
     13  O5'       -6.4520   67.4380  -70.4270 O.3   201  GNP201     -0.3111
     14  C5'       -5.2880   66.7950  -69.8800 C.3   201  GNP201      0.1813
     15  C4'       -4.0120   67.4510  -70.3960 C.3   201  GNP201      0.1799
     16  O4'       -3.9080   67.2730  -71.8290 O.3   201  GNP201     -0.3326
     17  C3'       -3.8820   68.9530  -70.1600 C.3   201  GNP201      0.2158
     18  O3'       -2.5110   69.2600  -69.8680 O.3   201  GNP201     -0.2175
     19  C2'       -4.3220   69.5650  -71.4940 C.3   201  GNP201      0.2310
     20  O2'       -3.7230   70.8220  -71.7930 O.3   201  GNP201     -0.2158
     21  C1'       -3.8020   68.5170  -72.4760 C.3   201  GNP201      0.2293
     22  N9        -4.6250   68.4800  -73.6740 N.pl3 201  GNP201     -0.2354
     23  C8        -5.9860   68.2750  -73.7450 C.3   201  GNP201      0.2246
     24  N7        -6.4440   68.3200  -74.9670 N.2   201  GNP201     -0.2322
     25  C5        -5.3130   68.5860  -75.7500 C.2   201  GNP201      0.2182
     26  C6        -5.1800   68.7280  -77.1570 C.1   201  GNP201      0.2372
     27  O6        -6.0680   68.6730  -78.0370 O.2   201  GNP201     -0.2069
     28  N1        -3.8450   68.9860  -77.5120 N.2   201  GNP201     -0.2485
     29  C2        -2.7860   69.0810  -76.6210 C.1   201  GNP201      0.2531
     30  N2        -1.5770   69.3530  -77.1340 N.pl3 201  GNP201     -0.0226
     31  N3        -2.8970   68.9350  -75.3040 N.2   201  GNP201     -0.3074
     32  C4        -4.1890   68.6870  -74.9570 C.2   201  GNP201      0.2300
@<TRIPOS>BOND
     1    27    26    2
     2    28    26    2
     3    28    29    2
     4    26    25    1
     5    30    29    1
     6    29    31    2
     7    25    24    2
     8    25    32    1
     9    31    32    2
    10    24    23    1
    11    32    22    1
    12    23    22    1
    13    22    21    1
    14    21    16    1
    15    21    19    1
    16    16    15    1
    17    20    19    1
    18    19    17    1
    19    11    10    2
    20    13    14    1
    21    13    10    1
    22    15    17    1
    23    15    14    1
    24    17    18    1
    25     7     6    2
    26     9    10    1
    27     9     6    1
    28    10    12    1
    29     6     8    1
    30     6     5    1
    31     5     1    1
    32     4     1    2
    33     1     3    1
    34     1     2    1
