@<TRIPOS>MOLECULE
3oiw_GNP_A_1.pdb
 32 34 0 0 0
SMALL
GASTEIGER

@<TRIPOS>ATOM
      1  PG       -27.9680  -23.8380  -67.1600 P.3   528  GNP528      0.4884
      2  O1G      -28.6850  -24.5040  -66.0000 O.3   528  GNP528     -0.1240
      3  O2G      -26.5650  -23.4720  -66.7930 O.3   528  GNP528     -0.1240
      4  O3G      -28.8020  -22.6680  -67.6420 O.2   528  GNP528     -0.2331
      5  N3B      -27.8920  -24.8650  -68.4230 N.3   528  GNP528     -0.0163
      6  PB       -27.0560  -24.7680  -69.8240 P.3   528  GNP528      0.4669
      7  O1B      -27.8060  -23.9330  -70.8210 O.2   528  GNP528     -0.2351
      8  O2B      -25.6580  -24.3560  -69.5510 O.3   528  GNP528     -0.1253
      9  O3A      -27.0060  -26.1980  -70.3810 O.3   528  GNP528     -0.2360
     10  PA       -25.8130  -27.2390  -70.4110 P.3   528  GNP528      0.2220
     11  O1A      -24.7290  -26.7790  -71.3040 O.2   528  GNP528     -0.5170
     12  O2A      -25.5340  -27.6580  -69.0020 O.3   528  GNP528     -0.4370
     13  O5'      -26.4390  -28.4680  -71.1440 O.3   528  GNP528     -0.3111
     14  C5'      -27.6100  -29.1160  -70.6310 C.3   528  GNP528      0.1813
     15  C4'      -27.6830  -30.5360  -71.1440 C.3   528  GNP528      0.1799
     16  O4'      -27.8810  -30.5170  -72.5810 O.3   528  GNP528     -0.3326
     17  C3'      -26.4270  -31.3730  -70.8960 C.3   528  GNP528      0.2158
     18  O3'      -26.8100  -32.6930  -70.5880 O.3   528  GNP528     -0.2175
     19  C2'      -25.6980  -31.3510  -72.2340 C.3   528  GNP528      0.2310
     20  O2'      -24.9270  -32.5160  -72.4730 O.3   528  GNP528     -0.2158
     21  C1'      -26.8580  -31.2590  -73.2230 C.3   528  GNP528      0.2293
     22  N9       -26.4650  -30.5620  -74.4380 N.pl3 528  GNP528     -0.2354
     23  C8       -25.9440  -29.2940  -74.5190 C.3   528  GNP528      0.2246
     24  N7       -25.6790  -28.9370  -75.7460 N.2   528  GNP528     -0.2322
     25  C5       -26.0420  -30.0290  -76.5130 C.2   528  GNP528      0.2182
     26  C6       -26.0060  -30.2130  -77.9140 C.1   528  GNP528      0.2372
     27  O6       -25.5980  -29.4240  -78.7780 O.2   528  GNP528     -0.2069
     28  N1       -26.4820  -31.4680  -78.2970 N.2   528  GNP528     -0.2485
     29  C2       -26.9600  -32.4220  -77.4250 C.1   528  GNP528      0.2531
     30  N2       -27.3780  -33.5710  -77.9710 N.pl3 528  GNP528     -0.0226
     31  N3       -27.0110  -32.2570  -76.1100 N.2   528  GNP528     -0.3074
     32  C4       -26.5490  -31.0450  -75.7210 C.2   528  GNP528      0.2300
@<TRIPOS>BOND
     1    27    26    2
     2    28    26    2
     3    28    29    2
     4    30    29    1
     5    26    25    1
     6    29    31    2
     7    25    24    2
     8    25    32    1
     9    31    32    2
    10    24    23    1
    11    32    22    1
    12    23    22    1
    13    22    21    1
    14    21    16    1
    15    21    19    1
    16    16    15    1
    17    20    19    1
    18    19    17    1
    19    11    10    2
    20    13    14    1
    21    13    10    1
    22    15    17    1
    23    15    14    1
    24    17    18    1
    25     7     6    2
    26    10     9    1
    27    10    12    1
    28     9     6    1
    29     6     8    1
    30     6     5    1
    31     5     1    1
    32     4     1    2
    33     1     3    1
    34     1     2    1
