@<TRIPOS>MOLECULE
3oix_FMN_A_1.pdb
 31 33 0 0 0
SMALL
GASTEIGER

@<TRIPOS>ATOM
      1  N1        14.0750  -25.6590   27.9070 N.2   400  FMN400     -0.2887
      2  C2        12.7630  -26.0210   27.6920 C.1   400  FMN400      0.3669
      3  O2        11.9420  -26.0100   28.6060 O.2   400  FMN400     -0.1744
      4  N3        12.3630  -26.4070   26.4370 N.2   400  FMN400     -0.2300
      5  C4        13.2540  -26.4320   25.3800 C.1   400  FMN400      0.2513
      6  O4        12.8430  -26.7750   24.2790 O.2   400  FMN400     -0.2057
      7  C4A       14.5830  -26.0800   25.5720 C.2   400  FMN400      0.2706
      8  N5        15.5340  -26.1070   24.5560 N.2   400  FMN400     -0.3841
      9  C5A       16.8560  -25.7670   24.8270 C.2   400  FMN400      0.1452
     10  C6        17.8290  -25.7900   23.8450 C.2   400  FMN400      0.0252
     11  C7        19.1440  -25.4380   24.1330 C.2   400  FMN400     -0.0375
     12  C7M       20.1590  -25.4720   23.0310 C.3   400  FMN400      0.0268
     13  C8        19.5120  -25.0530   25.4130 C.3   400  FMN400      0.0417
     14  C8M       20.9300  -24.6670   25.7420 C.3   400  FMN400      0.0091
     15  C9        18.5380  -25.0230   26.4020 C.2   400  FMN400     -0.0049
     16  C9A       17.2200  -25.3810   26.1110 C.2   400  FMN400      0.0795
     17  N10       16.2490  -25.3530   27.0860 N.pl3 400  FMN400     -0.2545
     18  C10       14.9620  -25.7070   26.8490 C.2   400  FMN400      0.2449
     19  C1'       16.5280  -24.9370   28.4680 C.3   400  FMN400      0.1336
     20  C2'       17.4450  -25.8970   29.1300 C.3   400  FMN400      0.2048
     21  O2'       16.5500  -26.6640   29.8770 O.3   400  FMN400     -0.2185
     22  C3'       18.2550  -24.8720   29.8850 C.3   400  FMN400      0.2165
     23  O3'       19.6210  -24.7580   29.5340 O.3   400  FMN400     -0.2175
     24  C4'       18.1690  -25.2180   31.3110 C.3   400  FMN400      0.2147
     25  O4'       16.8120  -24.9370   31.6450 O.3   400  FMN400     -0.2176
     26  C5'       19.3060  -24.3820   31.9020 C.3   400  FMN400      0.1892
     27  O5'       20.2580  -25.3250   32.3480 O.3   400  FMN400     -0.2674
     28  P         21.8380  -25.3590   31.9860 P.3   400  FMN400      0.5327
     29  O1P       22.4880  -24.2140   32.6810 O.3   400  FMN400     -0.1145
     30  O2P       22.0490  -25.2760   30.4970 O.2   400  FMN400     -0.2224
     31  O3P       22.3670  -26.6720   32.4920 O.3   400  FMN400     -0.1145
@<TRIPOS>BOND
     1    12    11    1
     2    10    11    2
     3    10     9    1
     4    11    13    1
     5     6     5    2
     6     8     9    2
     7     8     7    2
     8     9    16    1
     9     5     7    1
    10     5     4    2
    11    13    14    1
    12    13    15    1
    13     7    18    1
    14    16    15    2
    15    16    17    1
    16     4     2    2
    17    18    17    1
    18    18     1    2
    19    17    19    1
    20     2     1    2
    21     2     3    2
    22    19    20    1
    23    20    21    1
    24    20    22    1
    25    23    22    1
    26    22    24    1
    27    30    28    2
    28    24    25    1
    29    24    26    1
    30    26    27    1
    31    28    27    1
    32    28    31    1
    33    28    29    1
