@<TRIPOS>MOLECULE
3oj1_HEM_A_1.pdb
 43 50 0 0 0
SMALL
GASTEIGER

@<TRIPOS>ATOM
      1  CHA        5.0130  -27.9820   22.3840 C.2   139  HEM139      0.0000
      2  CHB        4.1900  -26.3620   17.8890 C.2   139  HEM139      0.0000
      3  CHC        8.2460  -28.5370   16.3310 C.2   139  HEM139      0.0000
      4  CHD        9.4000  -29.6140   20.9010 C.2   139  HEM139      0.0000
      5  C1A        4.3930  -27.4000   21.2970 C.ar  139  HEM139      0.0000
      6  C2A        3.0770  -26.7850   21.2770 C.ar  139  HEM139      0.0000
      7  C3A        2.8470  -26.3380   20.0360 C.ar  139  HEM139      0.0000
      8  C4A        4.0120  -26.6470   19.2270 C.ar  139  HEM139      0.0000
      9  CMA        1.5660  -25.6170   19.5420 C.3   139  HEM139      0.0000
     10  CAA        2.1060  -26.6780   22.4790 C.3   139  HEM139      0.0000
     11  CBA        2.4460  -25.4630   23.3350 C.3   139  HEM139      0.0000
     12  CGA        1.4020  -25.2920   24.4070 C.2   139  HEM139      0.0000
     13  O1A        1.3000  -26.1680   25.3070 O.co2 139  HEM139      0.0000
     14  O2A        0.6680  -24.2720   24.3570 O.co2 139  HEM139      0.0000
     15  C1B        5.1590  -26.8990   17.0610 C.2   139  HEM139      0.0000
     16  C2B        5.1330  -26.9300   15.6130 C.2   139  HEM139      0.0000
     17  C3B        6.2570  -27.5250   15.1840 C.2   139  HEM139      0.0000
     18  C4B        7.0280  -27.8970   16.3480 C.2   139  HEM139      0.0000
     19  CMB        3.9950  -26.3560   14.7420 C.3   139  HEM139      0.0000
     20  CAB        6.6960  -27.8010   13.7280 C.2   139  HEM139      0.0000
     21  CBB        6.8160  -26.8070   12.8420 C.2   139  HEM139      0.0000
     22  C1C        8.9060  -29.0520   17.4240 C.ar  139  HEM139      0.0000
     23  C2C       10.1110  -29.8570   17.3930 C.ar  139  HEM139      0.0000
     24  C3C       10.4340  -30.1640   18.6590 C.ar  139  HEM139      0.0000
     25  C4C        9.4370  -29.5570   19.5260 C.ar  139  HEM139      0.0000
     26  CMC       10.8730  -30.2670   16.1090 C.3   139  HEM139      0.0000
     27  CAC       11.6450  -30.9990   19.1440 C.2   139  HEM139      0.0000
     28  CBC       12.0210  -32.1320   18.5420 C.2   139  HEM139      0.0000
     29  C1D        8.3290  -29.3100   21.7120 C.2   139  HEM139      0.0000
     30  C2D        8.2690  -29.5970   23.1260 C.2   139  HEM139      0.0000
     31  C3D        6.9050  -29.0950   23.6010 C.2   139  HEM139      0.0000
     32  C4D        6.2690  -28.5550   22.4170 C.2   139  HEM139      0.0000
     33  CMD        9.3640  -30.2680   23.9790 C.3   139  HEM139      0.0000
     34  CAD        6.3420  -29.1680   25.0400 C.3   139  HEM139      0.0000
     35  CBD        5.6880  -30.5120   25.3600 C.3   139  HEM139      0.0000
     36  CGD        5.4450  -30.5740   26.8460 C.2   139  HEM139      0.0000
     37  O1D        6.2420  -31.2390   27.5550 O.co2 139  HEM139      0.0000
     38  O2D        4.4600  -29.9540   27.3240 O.co2 139  HEM139      0.0000
     39  NA         4.9380  -27.2830   20.0340 N.ar  139  HEM139      0.0000
     40  NB         6.3360  -27.4920   17.4760 N.2   139  HEM139      0.0000
     41  NC         8.5310  -28.8770   18.7440 N.ar  139  HEM139      0.0000
     42  ND         7.1430  -28.6830   21.3330 N.2   139  HEM139      0.0000
     43 FE          6.7610  -28.0350   19.3990 Fe    139  HEM139      0.0000
@<TRIPOS>BOND
     1    21    20    2
     2    20    17    1
     3    19    16    1
     4    17    16    2
     5    17    18    1
     6    16    15    1
     7    26    23    1
     8     3    18    2
     9     3    22    1
    10    18    40    1
    11    15    40    2
    12    15     2    1
    13    23    22   ar
    14    23    24   ar
    15    22    41   ar
    16    40    43    1
    17     2     8    2
    18    28    27    2
    19    24    27    1
    20    24    25   ar
    21    41    43    1
    22    41    25   ar
    23     8    39   ar
    24     8     7   ar
    25    43    39    1
    26    43    42    1
    27    25     4    1
    28     9     7    1
    29    39     5   ar
    30     7     6   ar
    31     4    29    2
    32     6     5   ar
    33     6    10    1
    34     5     1    2
    35    42    29    1
    36    42    32    2
    37    29    30    1
    38     1    32    1
    39    32    31    1
    40    10    11    1
    41    30    31    2
    42    30    33    1
    43    11    12    1
    44    31    34    1
    45    14    12   ar
    46    12    13   ar
    47    34    35    1
    48    35    36    1
    49    36    38   ar
    50    36    37   ar
