@<TRIPOS>MOLECULE
3oj8_OJ8_A_1.pdb
 30 34 0 0 0
SMALL
GASTEIGER

@<TRIPOS>ATOM
      1  C12       39.8600  -39.6760    6.2200 C.3     1  OJ81        0.0443
      2  C13       38.8620  -38.5690    6.5670 C.3     1  OJ81        0.2276
      3  O14       39.2370  -37.9220    7.7770 O.3     1  OJ81       -0.2131
      4  C15       37.3650  -39.0080    6.7810 C.ar    1  OJ81        0.2363
      5  CAB       45.3940  -47.1990    9.5190 C.ar    1  OJ81        0.0002
      6  CAC       33.4400  -42.6120   10.1630 C.ar    1  OJ81        0.0207
      7  CAD       45.2090  -45.8180    9.8370 C.ar    1  OJ81        0.0031
      8  CAE       45.1410  -47.7480    8.2350 C.ar    1  OJ81        0.0031
      9  CAF       34.8310  -42.8420   10.0220 C.ar    1  OJ81        0.0032
     10  CAG       32.8350  -41.5410    9.4540 C.ar    1  OJ81        0.0989
     11  CAH       44.7160  -44.9850    8.7840 C.ar    1  OJ81        0.0375
     12  CAI       44.6610  -46.8980    7.2240 C.ar    1  OJ81        0.0375
     13  CAJ       35.6220  -42.0080    9.1610 C.ar    1  OJ81        0.0223
     14  CAK       41.8560  -44.0010    7.4960 C.ar    1  OJ81        0.0371
     15  CAL       40.8020  -43.0470    7.7010 C.ar    1  OJ81       -0.0014
     16  CAM       35.1990  -39.2060    6.7100 C.ar    1  OJ81        0.1408
     17  CAN       43.1540  -42.4130    6.1140 C.ar    1  OJ81        0.0329
     18  CAO       42.3000  -40.1100    5.6350 C.3     1  OJ81        0.0262
     19  CAP       41.3070  -39.0850    6.2000 C.3     1  OJ81        0.0080
     20  CAQ       39.8510  -40.7490    7.2830 C.3     1  OJ81        0.0291
     21  NAR       33.6120  -40.7500    8.6440 N.ar    1  OJ81       -0.2407
     22  NAS       36.2950  -38.5830    6.1880 N.ar    1  OJ81       -0.2083
     23  OAT       44.0110  -44.6530    6.5270 O.3     1  OJ81       -0.4535
     24  OAU       36.9930  -39.8930    7.7190 O.2     1  OJ81       -0.4342
     25  CAV       44.4640  -45.5060    7.4870 C.ar    1  OJ81        0.1453
     26  CAW       42.9960  -43.6970    6.6890 C.ar    1  OJ81        0.1450
     27  CAX       40.9510  -41.7680    7.0970 C.ar    1  OJ81       -0.0258
     28  CAY       42.1200  -41.4600    6.2940 C.ar    1  OJ81       -0.0231
     29  CAZ       34.9670  -40.9230    8.4870 C.ar    1  OJ81        0.1173
     30  CBA       35.6460  -40.0450    7.6700 C.ar    1  OJ81        0.1835
@<TRIPOS>BOND
     1    18    19    1
     2    18    28    1
     3    17    28   ar
     4    17    26   ar
     5    22    16   ar
     6    22     4   ar
     7    19     1    1
     8     1     2    1
     9     1    20    1
    10    28    27   ar
    11    23    26    1
    12    23    25    1
    13     2     4    1
    14     2     3    1
    15    26    14   ar
    16    16    30   ar
    17     4    24   ar
    18    27    20    1
    19    27    15   ar
    20    12    25   ar
    21    12     8   ar
    22    25    11   ar
    23    14    15   ar
    24    30    24   ar
    25    30    29    1
    26     8     5   ar
    27    29    21   ar
    28    29    13   ar
    29    21    10   ar
    30    11     7   ar
    31    13     9   ar
    32    10     6   ar
    33     5     7   ar
    34     9     6   ar
