@<TRIPOS>MOLECULE
3oja_MAN_B_1.pdb
 11 11 0 0 0
SMALL
GASTEIGER

@<TRIPOS>ATOM
      1  C1        27.8550   16.8940  140.6570 C.3   1014  MAN1014     0.1777
      2  C2        29.3910   16.8380  140.5130 C.3   1014  MAN1014     0.2141
      3  C3        29.8610   15.4170  140.9000 C.3   1014  MAN1014     0.2173
      4  C4        28.9520   14.6950  141.9440 C.3   1014  MAN1014     0.2142
      5  C5        27.5680   15.3150  142.2450 C.3   1014  MAN1014     0.1810
      6  C6        27.1280   15.1780  143.6950 C.3   1014  MAN1014     0.2141
      7  O2        30.0840   17.9520  141.1600 O.3   1014  MAN1014    -0.2176
      8  O3        31.2060   15.5610  141.3710 O.3   1014  MAN1014    -0.2175
      9  O4        28.7460   13.3270  141.6250 O.3   1014  MAN1014    -0.2176
     10  O5        27.5050   16.6850  142.0060 O.3   1014  MAN1014    -0.3481
     11  O6        26.7440   13.8230  143.8120 O.3   1014  MAN1014    -0.2176
@<TRIPOS>BOND
     1     2     1    1
     2     2     3    1
     3     2     7    1
     4     1    10    1
     5     3     8    1
     6     3     4    1
     7     9     4    1
     8     4     5    1
     9    10     5    1
    10     5     6    1
    11     6    11    1
