@<TRIPOS>MOLECULE
3ojf_IMJ_A_1.pdb
 29 32 0 0 0
SMALL
GASTEIGER

@<TRIPOS>ATOM
      1  C20       53.0720   21.2880  124.6330 C.ar  801  IMJ801      0.0012
      2  C21       52.8960   22.1630  123.3310 C.ar  801  IMJ801      0.0001
      3  C22       51.9860   21.8320  122.4230 C.ar  801  IMJ801      0.0015
      4  C23       51.0900   20.5870  122.7120 C.ar  801  IMJ801      0.0172
      5  C24       51.2900   19.8930  123.8360 C.ar  801  IMJ801      0.0594
      6  C25       52.2850   20.2560  124.8350 C.ar  801  IMJ801      0.0145
      7  N26       50.6150   18.8100  124.2750 N.ar  801  IMJ801     -0.3289
      8  C27       51.0570   18.4000  125.4850 C.ar  801  IMJ801      0.0351
      9  C28       52.1590   19.2660  125.9330 C.ar  801  IMJ801      0.0108
     10  C29       49.4830   18.1000  123.6530 C.3   801  IMJ801      0.1301
     11  C30       50.4920   17.2050  126.2270 C.3   801  IMJ801      0.0497
     12  C31       52.9570   19.1020  127.1850 C.3   801  IMJ801      0.1216
     13  N32       54.1890   18.2810  126.8540 N.am  801  IMJ801     -0.2702
     14  C33       54.1090   16.9740  126.5460 C.3   801  IMJ801      0.1155
     15  C34       55.4170   18.8300  126.8380 C.2   801  IMJ801      0.2494
     16  O35       56.3730   18.1630  126.4770 O.2   801  IMJ801     -0.2699
     17  C36       55.6270   20.2690  127.2370 C.2   801  IMJ801      0.0577
     18  C37       56.7870   20.8150  126.8250 C.2   801  IMJ801      0.0023
     19  C38       57.2200   22.2220  127.0100 C.2   801  IMJ801      0.0030
     20  C39       56.2700   23.2120  127.6460 C.3   801  IMJ801      0.0652
     21  C40       56.7500   24.5840  127.7050 C.2   801  IMJ801      0.0540
     22  C41       55.9180   25.5710  128.3230 C.2   801  IMJ801     -0.0004
     23  C42       56.4330   26.9410  128.4760 C.3   801  IMJ801      0.1619
     24  C43       57.8110   27.2350  127.8490 C.1   801  IMJ801      0.1939
     25  N44       58.5520   26.2330  127.2280 N.2   801  IMJ801     -0.2819
     26  C45       58.1010   24.9410  127.1550 C.1   801  IMJ801      0.0958
     27  N46       58.8400   23.9670  126.5830 N.2   801  IMJ801     -0.1822
     28  C47       58.4360   22.6780  126.4800 C.2   801  IMJ801      0.1066
     29  O48       58.2230   28.4430  127.9200 O.2   801  IMJ801     -0.2131
@<TRIPOS>BOND
     1     3     4   ar
     2     3     2   ar
     3     4     5   ar
     4     2     1   ar
     5    10     7    1
     6     5     7   ar
     7     5     6   ar
     8     7     8   ar
     9     1     6   ar
    10     6     9   ar
    11     8     9   ar
    12     8    11    1
    13     9    12    1
    14    16    15    2
    15    28    27    1
    16    28    19    2
    17    14    13    1
    18    27    26    2
    19    18    19    1
    20    18    17    2
    21    15    13   am
    22    15    17    1
    23    13    12    1
    24    19    20    1
    25    26    25    2
    26    26    21    1
    27    25    24    2
    28    20    21    1
    29    21    22    2
    30    24    29    2
    31    24    23    1
    32    22    23    1
