@<TRIPOS>MOLECULE
3ojf_NDP_A_1.pdb
 48 52 0 0 0
SMALL
GASTEIGER

@<TRIPOS>ATOM
      1  PA        57.3260   21.0990  134.5920 P.3   501  NDP501      0.2189
      2  O1A       56.7170   20.9480  135.9240 O.3   501  NDP501     -0.4371
      3  O2A       57.4510   22.4500  134.0350 O.2   501  NDP501     -0.5170
      4  O5B       58.7170   20.3480  134.5760 O.3   501  NDP501     -0.3112
      5  C5B       59.6970   20.6240  133.5830 C.3   501  NDP501      0.1813
      6  C4B       61.0460   20.9080  134.2750 C.3   501  NDP501      0.1820
      7  O4B       62.1190   21.0470  133.3210 O.3   501  NDP501     -0.3136
      8  C3B       61.0030   22.1860  135.1470 C.3   501  NDP501      0.2157
      9  O3B       61.4240   21.9900  136.4700 O.3   501  NDP501     -0.2175
     10  C2B       62.0180   23.0590  134.4610 C.3   501  NDP501      0.2314
     11  O2B       62.6750   23.9350  135.3300 O.3   501  NDP501     -0.2630
     12  C1B       62.9720   22.0320  133.8570 C.3   501  NDP501      0.3158
     13  N9A       63.9780   22.6700  132.9880 N.pl3 501  NDP501     -0.1439
     14  C8A       63.7740   23.4090  131.8690 C.3   501  NDP501      0.3377
     15  N7A       64.9690   23.8240  131.3970 N.2   501  NDP501     -0.2095
     16  C5A       65.9560   23.3490  132.2020 C.2   501  NDP501      0.2526
     17  C6A       67.3440   23.4840  132.2130 C.2   501  NDP501      0.4393
     18  N6A       67.9490   24.4090  131.4760 N.pl3 501  NDP501      0.2180
     19  N1A       68.1030   22.8110  133.2010 N.2   501  NDP501      0.0021
     20  C2A       67.4510   22.0980  134.1950 C.3   501  NDP501      0.5254
     21  N3A       66.0890   22.0360  134.1930 N.2   501  NDP501     -0.0055
     22  C4A       65.3490   22.6320  133.2230 C.2   501  NDP501      0.3518
     23  O3        56.4580   20.2470  133.5300 O.3   501  NDP501     -0.2703
     24  PN        56.2760   18.6610  133.4550 P.3   501  NDP501      0.2189
     25  O1N       56.3550   18.0760  134.7590 O.3   501  NDP501     -0.4371
     26  O2N       55.1570   18.4040  132.5680 O.2   501  NDP501     -0.5170
     27  O5D       57.5640   18.1370  132.5950 O.3   501  NDP501     -0.3112
     28  C5D       58.4220   17.0750  132.9990 C.3   501  NDP501      0.1813
     29  C4D       58.7880   16.1460  131.8340 C.3   501  NDP501      0.1799
     30  O4D       57.6010   15.4160  131.4720 O.3   501  NDP501     -0.3327
     31  C3D       59.1910   16.9120  130.5840 C.3   501  NDP501      0.2158
     32  O3D       60.1340   16.1110  129.9480 O.3   501  NDP501     -0.2175
     33  C2D       57.9500   16.8880  129.7150 C.3   501  NDP501      0.2309
     34  O2D       58.2570   17.1230  128.3450 O.3   501  NDP501     -0.2158
     35  C1D       57.3720   15.5280  130.0660 C.3   501  NDP501      0.2263
     36  N1N       55.9790   15.2820  129.6820 N.pl3 501  NDP501     -0.2787
     37  C2N       54.9430   16.1300  130.0380 C.3   501  NDP501      0.1244
     38  C3N       53.5940   15.8240  129.7370 C.2   501  NDP501      0.0544
     39  C7N       52.5040   16.7920  130.1320 C.2   501  NDP501      0.2818
     40  O7N       52.7730   17.7670  131.0730 O.2   501  NDP501     -0.2670
     41  N7N       51.3150   16.7490  129.6080 N.am  501  NDP501     -0.0839
     42  C4N       53.1980   14.5470  129.0180 C.2   501  NDP501      0.0033
     43  C5N       54.4100   13.7290  128.7110 C.2   501  NDP501      0.0157
     44  C6N       55.7110   14.1130  129.0290 C.2   501  NDP501      0.0633
     45  P2B       62.2640   25.5260  135.4030 P.3   501  NDP501      0.5328
     46  O1X       63.0280   25.9370  136.6420 O.3   501  NDP501     -0.1145
     47  O2X       62.6540   26.1910  134.1160 O.2   501  NDP501     -0.2224
     48  O3X       60.7760   25.6830  135.6960 O.3   501  NDP501     -0.1145
@<TRIPOS>BOND
     1    34    33    1
     2    43    42    1
     3    43    44    2
     4    42    38    2
     5    44    36    1
     6    41    39   am
     7    36    37    1
     8    36    35    1
     9    33    35    1
    10    33    31    1
    11    38    37    1
    12    38    39    1
    13    32    31    1
    14    35    30    1
    15    39    40    2
    16    31    29    1
    17    15    14    1
    18    15    16    2
    19    30    29    1
    20    18    17    1
    21    29    28    1
    22    14    13    1
    23    16    17    1
    24    16    22    1
    25    17    19    2
    26    26    24    2
    27    27    28    1
    28    27    24    1
    29    13    22    1
    30    13    12    1
    31    19    20    1
    32    22    21    2
    33     7    12    1
    34     7     6    1
    35    24    23    1
    36    24    25    1
    37    23     1    1
    38     5     6    1
    39     5     4    1
    40    12    10    1
    41     3     1    2
    42    47    45    2
    43    21    20    1
    44     6     8    1
    45    10     8    1
    46    10    11    1
    47     4     1    1
    48     1     2    1
    49     8     9    1
    50    11    45    1
    51    45    48    1
    52    45    46    1
