@<TRIPOS>MOLECULE
3ojg_HL4_A_1.pdb
 12 12 0 0 0
SMALL
GASTEIGER

@<TRIPOS>ATOM
      1  C1         5.8890   -8.7410  -19.0960 C.3   327  HL4327      0.1971
      2  C2         7.2840   -8.8590  -19.5990 C.2   327  HL4327      0.3371
      3  C4         6.5390   -6.8250  -20.5110 C.3   327  HL4327      0.2109
      4  C5         5.5820   -7.2770  -19.3980 C.3   327  HL4327      0.0805
      5  O6         8.0530   -9.7620  -19.3170 O.2   327  HL4327     -0.2482
      6  N7         5.7110   -9.0600  -17.6960 N.am  327  HL4327     -0.1956
      7  C8         4.4980   -9.3980  -17.2630 C.2   327  HL4327      0.2418
      8  O9         3.5500   -9.5510  -18.0180 O.2   327  HL4327     -0.2733
      9  C10        4.3190   -9.5960  -15.7800 C.3   327  HL4327      0.0868
     10  C11        2.8280   -9.6590  -15.4840 C.3   327  HL4327      0.0096
     11  C13        2.1400   -8.3120  -15.6740 C.3   327  HL4327      0.0005
     12  OAP        7.6250   -7.7490  -20.4600 O.3   327  HL4327     -0.4473
@<TRIPOS>BOND
     1     3    12    1
     2     3     4    1
     3    12     2    1
     4     2     5    2
     5     2     1    1
     6     4     1    1
     7     1     6    1
     8     8     7    2
     9     6     7   am
    10     7     9    1
    11     9    10    1
    12    11    10    1
