@<TRIPOS>MOLECULE
3ojk_4NC_A_1.pdb
 11 11 0 0 0
SMALL
GASTEIGER

@<TRIPOS>ATOM
      1  C1         5.7650   48.7390    8.7320 C.ar  601  4NC601      0.2344
      2  C2         5.5880   49.8590    9.6670 C.ar  601  4NC601      0.2358
      3  C3         4.3280   50.1110   10.1930 C.ar  601  4NC601      0.0673
      4  C4         3.2460   49.3160    9.8160 C.ar  601  4NC601      0.1210
      5  C5         3.4150   48.2650    8.9180 C.ar  601  4NC601      0.0255
      6  C6         4.6670   47.9730    8.3740 C.ar  601  4NC601      0.0470
      7  O7         7.0120   48.4870    8.2610 O.3   601  4NC601     -0.2831
      8  O8         6.6810   50.5600   10.0210 O.3   601  4NC601     -0.2831
      9  N9         2.0370   49.5960   10.3560 N.pl3 601  4NC601     -0.0563
     10  O10        2.0750   50.1320   11.8270 O.3   601  4NC601     -0.0542
     11  O11        1.2280   48.5100   10.2860 O.3   601  4NC601     -0.0542
@<TRIPOS>BOND
     1     7     1    1
     2     6     1   ar
     3     6     5   ar
     4     1     2   ar
     5     5     4   ar
     6     2     8    1
     7     2     3   ar
     8     4     3   ar
     9     4     9    1
    10    11     9    1
    11     9    10    1
