@<TRIPOS>MOLECULE
3ojl_NAD_A_1.pdb
 44 48 0 0 0
SMALL
GASTEIGER

@<TRIPOS>ATOM
      1  PA       -19.6490   24.4690  -62.3200 P.3   500  NAD500      0.2189
      2  O1A      -21.1070   24.7500  -62.3350 O.2   500  NAD500     -0.5170
      3  O2A      -18.8620   25.7190  -62.1590 O.3   500  NAD500     -0.4371
      4  O5B      -19.2620   23.7320  -63.6970 O.3   500  NAD500     -0.3112
      5  C5B      -19.8410   22.5310  -64.1460 C.3   500  NAD500      0.1813
      6  C4B      -19.7130   22.5380  -65.6620 C.3   500  NAD500      0.1821
      7  O4B      -20.0480   21.2720  -66.1720 O.3   500  NAD500     -0.3135
      8  C3B      -20.6760   23.5410  -66.2960 C.3   500  NAD500      0.2184
      9  O3B      -19.9580   24.3490  -67.2110 O.3   500  NAD500     -0.2174
     10  C2B      -21.6960   22.6720  -67.0180 C.3   500  NAD500      0.2570
     11  O2B      -22.2150   23.3170  -68.1610 O.3   500  NAD500     -0.2130
     12  C1B      -20.8660   21.4290  -67.3140 C.3   500  NAD500      0.3186
     13  N9A      -21.6580   20.1990  -67.4560 N.pl3 500  NAD500     -0.1439
     14  C8A      -22.6390   19.7570  -66.6260 C.3   500  NAD500      0.3377
     15  N7A      -23.0540   18.5510  -67.0710 N.2   500  NAD500     -0.2095
     16  C5A      -22.3330   18.1890  -68.1440 C.2   500  NAD500      0.2526
     17  C6A      -22.3410   17.0470  -68.9530 C.2   500  NAD500      0.4393
     18  N6A      -23.1150   15.9990  -68.6680 N.pl3 500  NAD500      0.2180
     19  N1A      -21.4580   16.9770  -70.0200 N.2   500  NAD500      0.0021
     20  C2A      -20.5650   18.0230  -70.2360 C.3   500  NAD500      0.5254
     21  N3A      -20.5580   19.1440  -69.4210 N.2   500  NAD500     -0.0055
     22  C4A      -21.4320   19.2200  -68.3860 C.2   500  NAD500      0.3518
     23  O3       -19.2860   23.3770  -61.2020 O.3   500  NAD500     -0.2703
     24  PN       -17.8260   23.2760  -60.5200 P.3   500  NAD500      0.2189
     25  O1N      -17.6560   24.4510  -59.6200 O.3   500  NAD500     -0.4371
     26  O2N      -16.8150   22.9850  -61.5650 O.2   500  NAD500     -0.5170
     27  O5D      -17.9450   21.9920  -59.5480 O.3   500  NAD500     -0.3112
     28  C5D      -18.1870   20.6960  -60.0360 C.3   500  NAD500      0.1813
     29  C4D      -18.1920   19.6870  -58.8960 C.3   500  NAD500      0.1799
     30  O4D      -16.9030   19.5130  -58.3470 O.3   500  NAD500     -0.3327
     31  C3D      -19.0650   20.0490  -57.6990 C.3   500  NAD500      0.2158
     32  O3D      -20.4520   19.8210  -57.8820 O.3   500  NAD500     -0.2175
     33  C2D      -18.4780   19.1420  -56.6390 C.3   500  NAD500      0.2309
     34  O2D      -18.8390   17.8090  -56.9170 O.3   500  NAD500     -0.2158
     35  C1D      -16.9990   19.2570  -56.9490 C.3   500  NAD500      0.2263
     36  N1N      -16.4180   20.3450  -56.1220 N.pl3 500  NAD500     -0.2787
     37  C2N      -16.2570   21.6090  -56.6350 C.3   500  NAD500      0.1244
     38  C3N      -15.7110   22.6360  -55.8620 C.2   500  NAD500      0.0544
     39  C7N      -15.7200   24.0340  -56.4080 C.2   500  NAD500      0.2818
     40  O7N      -14.4840   24.6490  -56.6970 O.2   500  NAD500     -0.2670
     41  N7N      -16.8900   24.6500  -56.6220 N.am  500  NAD500     -0.0839
     42  C4N      -15.3190   22.3790  -54.5460 C.2   500  NAD500      0.0033
     43  C5N      -15.4850   21.0910  -54.0250 C.2   500  NAD500      0.0157
     44  C6N      -16.0480   20.0860  -54.8190 C.2   500  NAD500      0.0633
@<TRIPOS>BOND
     1    20    19    1
     2    20    21    1
     3    19    17    2
     4    21    22    2
     5    17    18    1
     6    17    16    1
     7    22    16    1
     8    22    13    1
     9    11    10    1
    10    16    15    2
    11    13    12    1
    12    13    14    1
    13    12    10    1
    14    12     7    1
    15     9     8    1
    16    15    14    1
    17    10     8    1
    18     8     6    1
    19     7     6    1
    20     6     5    1
    21     5     4    1
    22     4     1    1
    23     2     1    2
    24     1     3    1
    25     1    23    1
    26    26    24    2
    27    23    24    1
    28    24    25    1
    29    24    27    1
    30    28    27    1
    31    28    29    1
    32    29    30    1
    33    29    31    1
    34    30    35    1
    35    32    31    1
    36    31    33    1
    37    35    33    1
    38    35    36    1
    39    34    33    1
    40    40    39    2
    41    37    36    1
    42    37    38    1
    43    41    39   am
    44    39    38    1
    45    36    44    1
    46    38    42    2
    47    44    43    2
    48    42    43    1
