@<TRIPOS>MOLECULE
3ojo_PDC_A_1.pdb
 12 12 0 0 0
SMALL
GASTEIGER

@<TRIPOS>ATOM
      1  N1         3.5080   57.5090   92.4590 N.2   502  PDC502     -0.3925
      2  C2         4.0750   57.5410   91.2460 C.2   502  PDC502      0.1927
      3  C3         3.4360   58.2160   90.1630 C.3   502  PDC502      0.0920
      4  C4         2.1620   58.8090   90.3660 C.2   502  PDC502     -0.0156
      5  C5         1.5730   58.7370   91.6400 C.2   502  PDC502      0.0347
      6  C6         2.2890   58.0890   92.6760 C.2   502  PDC502      0.2102
      7  C7         5.3910   56.9000   91.0830 C.2   502  PDC502      0.4130
      8  O1         5.9340   56.3960   92.0620 O.co2 502  PDC502     -0.2380
      9  O2         6.0030   56.8980   89.8900 O.co2 502  PDC502     -0.2380
     10  C8         1.7720   57.9690   94.0360 C.2   502  PDC502      0.4168
     11  O3         0.6750   58.4510   94.3820 O.co2 502  PDC502     -0.2377
     12  O4         2.6580   57.2640   94.8220 O.co2 502  PDC502     -0.2377
@<TRIPOS>BOND
     1     9     7   ar
     2     3     4    1
     3     3     2    1
     4     4     5    2
     5     7     2    1
     6     7     8   ar
     7     2     1    2
     8     5     6    1
     9     1     6    2
    10     6    10    1
    11    10    11   ar
    12    10    12   ar
