@<TRIPOS>MOLECULE
3ojo_NAD_A_1.pdb
 44 48 0 0 0
SMALL
GASTEIGER

@<TRIPOS>ATOM
      1  PA        -4.2630   41.1710   95.8060 P.3   500  NAD500      0.2189
      2  O1A       -5.7300   41.2430   96.0260 O.3   500  NAD500     -0.4371
      3  O2A       -3.9100   41.3320   94.3780 O.2   500  NAD500     -0.5170
      4  O5B       -3.7090   39.7510   96.3520 O.3   500  NAD500     -0.3112
      5  C5B       -4.1320   39.2060   97.5790 C.3   500  NAD500      0.1813
      6  C4B       -4.2080   37.6960   97.4250 C.3   500  NAD500      0.1821
      7  O4B       -4.1610   37.0840   98.7020 O.3   500  NAD500     -0.3135
      8  C3B       -5.4910   37.2240   96.7310 C.3   500  NAD500      0.2184
      9  O3B       -5.1420   36.2940   95.7240 O.3   500  NAD500     -0.2174
     10  C2B       -6.2400   36.4950   97.8380 C.3   500  NAD500      0.2570
     11  O2B       -7.0290   35.4050   97.4020 O.3   500  NAD500     -0.2130
     12  C1B       -5.1100   36.0250   98.7440 C.3   500  NAD500      0.3186
     13  N9A       -5.5790   35.8160  100.1300 N.pl3 500  NAD500     -0.1439
     14  C8A       -6.4930   36.5890  100.8000 C.3   500  NAD500      0.3377
     15  N7A       -6.6000   36.1420  102.0700 N.2   500  NAD500     -0.2095
     16  C5A       -5.7660   35.0890  102.2250 C.2   500  NAD500      0.2526
     17  C6A       -5.5030   34.2680  103.3210 C.2   500  NAD500      0.4393
     18  N6A       -6.1260   34.4860  104.4820 N.pl3 500  NAD500      0.2180
     19  N1A       -4.5740   33.2460  103.1740 N.2   500  NAD500      0.0021
     20  C2A       -3.9290   33.0590  101.9540 C.3   500  NAD500      0.5254
     21  N3A       -4.1970   33.8800  100.8740 N.2   500  NAD500     -0.0055
     22  C4A       -5.1020   34.8790  101.0090 C.2   500  NAD500      0.3518
     23  O3        -3.5620   42.2870   96.7390 O.3   500  NAD500     -0.2703
     24  PN        -2.0880   42.8910   96.4650 P.3   500  NAD500      0.2189
     25  O1N       -2.2170   43.9840   95.4790 O.2   500  NAD500     -0.5170
     26  O2N       -1.1280   41.7870   96.2310 O.3   500  NAD500     -0.4371
     27  O5D       -1.7480   43.5780   97.8640 O.3   500  NAD500     -0.3112
     28  C5D       -2.0220   42.9580   99.0960 C.3   500  NAD500      0.1813
     29  C4D       -1.8270   44.0000  100.1870 C.3   500  NAD500      0.1799
     30  O4D       -0.4980   44.4890  100.1800 O.3   500  NAD500     -0.3327
     31  C3D       -2.6620   45.2590   99.9870 C.3   500  NAD500      0.2158
     32  O3D       -4.0430   45.1330  100.2800 O.3   500  NAD500     -0.2175
     33  C2D       -1.9320   46.2000  100.9240 C.3   500  NAD500      0.2309
     34  O2D       -2.1510   45.7770  102.2500 O.3   500  NAD500     -0.2158
     35  C1D       -0.4910   45.8490  100.6020 C.3   500  NAD500      0.2263
     36  N1N       -0.0140   46.7860   99.5670 N.pl3 500  NAD500     -0.2787
     37  C2N       -0.0440   46.4820   98.2230 C.3   500  NAD500      0.1244
     38  C3N        0.4000   47.4230   97.2810 C.2   500  NAD500      0.0544
     39  C7N        0.7930   46.9780   95.8980 C.2   500  NAD500      0.2818
     40  O7N        2.0620   47.3750   95.4050 O.2   500  NAD500     -0.2670
     41  N7N       -0.0570   46.2160   95.1880 N.am  500  NAD500     -0.0839
     42  C4N        0.8430   48.6760   97.7160 C.2   500  NAD500      0.0033
     43  C5N        0.8500   48.9900   99.0770 C.2   500  NAD500      0.0157
     44  C6N        0.4060   48.0270   99.9840 C.2   500  NAD500      0.0633
@<TRIPOS>BOND
     1     3     1    2
     2    41    39   am
     3    40    39    2
     4    25    24    2
     5     9     8    1
     6     1     2    1
     7     1     4    1
     8     1    23    1
     9    39    38    1
    10    26    24    1
    11     4     5    1
    12    24    23    1
    13    24    27    1
    14     8     6    1
    15     8    10    1
    16    38    42    2
    17    38    37    1
    18    11    10    1
    19     6     5    1
    20     6     7    1
    21    42    43    1
    22    10    12    1
    23    27    28    1
    24    37    36    1
    25     7    12    1
    26    12    13    1
    27    43    44    2
    28    28    29    1
    29    36    44    1
    30    36    35    1
    31    31    29    1
    32    31    32    1
    33    31    33    1
    34    13    14    1
    35    13    22    1
    36    30    29    1
    37    30    35    1
    38    35    33    1
    39    14    15    1
    40    21    22    2
    41    21    20    1
    42    33    34    1
    43    22    16    1
    44    20    19    1
    45    15    16    2
    46    16    17    1
    47    19    17    2
    48    17    18    1
