@<TRIPOS>MOLECULE
3oju_SSJ_A_1.pdb
 40 42 0 0 0
SMALL
GASTEIGER

@<TRIPOS>ATOM
      1  N1        19.0190  -19.8290   -7.1210 N.am    1  SSJ1       -0.1784
      2  C2        18.5330  -20.1690   -5.8450 C.1     1  SSJ1        0.2845
      3  O2        17.8990  -21.2390   -5.6820 O.2     1  SSJ1       -0.1918
      4  N3        18.7440  -19.3500   -4.8150 N.2     1  SSJ1       -0.2446
      5  C4        19.4180  -18.2070   -4.9830 C.1     1  SSJ1        0.2252
      6  O4        19.6000  -17.4610   -3.9950 O.2     1  SSJ1       -0.2079
      7  C5        19.9100  -17.8420   -6.2270 C.2     1  SSJ1        0.1526
      8  C6        19.7040  -18.6890   -7.3130 C.2     1  SSJ1        0.1004
      9  PA        19.4590  -16.4090  -10.8410 P.3     1  SSJ1        0.2189
     10  PB        16.7830  -16.2920  -11.8580 P.3     1  SSJ1        0.2277
     11  PG        16.9200  -13.8670  -13.3930 P.3     1  SSJ1        0.5373
     12  C1'       18.7420  -20.7820   -8.2000 C.3     1  SSJ1        0.2090
     13  O1A       20.2610  -15.5680   -9.8730 O.3     1  SSJ1       -0.4371
     14  O1B       17.3370  -17.0150  -13.0570 O.2     1  SSJ1       -0.5168
     15  O1G       18.1000  -14.6160  -13.9430 O.3     1  SSJ1       -0.1143
     16  C2'       17.3340  -20.4890   -8.7010 C.3     1  SSJ1        0.0874
     17  O2A       19.8560  -16.4520  -12.2910 O.2     1  SSJ1       -0.5170
     18  O2B       15.6390  -16.9740  -11.1560 O.3     1  SSJ1       -0.4368
     19  O2G       15.7990  -13.6400  -14.3780 O.2     1  SSJ1       -0.2221
     20  C3'       17.5760  -19.6230   -9.9210 C.3     1  SSJ1        0.1857
     21  O3'       16.5320  -19.7560  -10.8920 O.3     1  SSJ1       -0.2203
     22  C30       20.5440  -16.7230   -6.3080 C.1     1  SSJ1       -0.0459
     23  C31       21.0950  -15.6780   -6.2470 C.1     1  SSJ1       -0.0622
     24  C32       21.6820  -14.5690   -6.1810 C.2     1  SSJ1        0.0320
     25  C33       22.7270  -14.2090   -6.9400 C.2     1  SSJ1       -0.0045
     26  C34       23.3670  -12.9620   -6.3690 C.3     1  SSJ1        0.0918
     27  N35       22.4250  -12.5760   -5.3350 N.4     1  SSJ1       -0.1302
     28  C36       21.3640  -13.5330   -5.1390 C.3     1  SSJ1        0.0985
     29  C37       24.7400  -13.3090   -5.8170 C.3     1  SSJ1        0.0230
     30  C38       23.4640  -11.8660   -7.4230 C.3     1  SSJ1        0.0230
     31  C39       20.0070  -12.9040   -5.3830 C.3     1  SSJ1        0.0236
     32  O3A       17.8950  -16.0250  -10.7120 O.3     1  SSJ1       -0.2700
     33  O3B       16.2750  -14.8030  -12.2390 O.3     1  SSJ1       -0.2258
     34  O3G       17.3340  -12.6010  -12.6900 O.3     1  SSJ1       -0.1143
     35  C4'       18.9080  -20.1370  -10.4470 C.3     1  SSJ1        0.1773
     36  O4'       19.6260  -20.6430   -9.3160 O.3     1  SSJ1       -0.3339
     37  C40       21.4900  -14.1290   -3.7440 C.3     1  SSJ1        0.0236
     38  O41       22.4950  -11.3970   -4.5850 O.3     1  SSJ1       -0.1175
     39  C5'       19.6940  -19.0160  -11.0940 C.3     1  SSJ1        0.1812
     40  O5'       19.4790  -17.8960  -10.2470 O.3     1  SSJ1       -0.3112
@<TRIPOS>BOND
     1    19    11    2
     2    15    11    1
     3    11    34    1
     4    11    33    1
     5    14    10    2
     6    17     9    2
     7    33    10    1
     8    10    18    1
     9    10    32    1
    10    39    35    1
    11    39    40    1
    12    21    20    1
    13     9    32    1
    14     9    40    1
    15     9    13    1
    16    35    20    1
    17    35    36    1
    18    20    16    1
    19    36    12    1
    20    16    12    1
    21    12     1    1
    22    30    26    1
    23     8     1    1
    24     8     7    2
    25     1     2   am
    26    25    26    1
    27    25    24    2
    28    26    29    1
    29    26    27    1
    30    22    23    3
    31    22     7    1
    32    23    24    1
    33     7     5    1
    34    24    28    1
    35     2     3    2
    36     2     4    2
    37    31    28    1
    38    27    28    1
    39    27    38    1
    40    28    37    1
    41     5     4    2
    42     5     6    2
