@<TRIPOS>MOLECULE
3ojv_IDS_A_1.pdb
 16 16 0 0 0
SMALL
GASTEIGER

@<TRIPOS>ATOM
      1  C1        17.2480   11.1370   10.4040 C.3   303  IDS303      0.1774
      2  C2        17.2090    9.9230    9.4630 C.3   303  IDS303      0.2054
      3  C3        17.9750    8.6950   10.2100 C.3   303  IDS303      0.2169
      4  C4        17.4900    8.4600   11.6870 C.3   303  IDS303      0.2227
      5  C5        17.5430    9.7770   12.4740 C.3   303  IDS303      0.2512
      6  C6        16.9910    9.4850   13.9110 C.2   303  IDS303      0.3940
      7  O2        15.7500    9.7930    9.1440 O.3   303  IDS303     -0.2384
      8  O3        19.3530    9.0890   10.3340 O.3   303  IDS303     -0.2175
      9  O4        16.1610    7.9510   11.8130 O.3   303  IDS303     -0.2171
     10  O5        16.7510   10.8140   11.7730 O.3   303  IDS303     -0.3403
     11  O61       16.0030   10.0700   14.3600 O.co2 303  IDS303     -0.2429
     12  O62       17.5850    8.5530   14.6620 O.co2 303  IDS303     -0.2429
     13  S         15.4360   10.3210    7.6370 S.3   303  IDS303     -0.0001
     14  O1S       14.0270   10.2470    7.4710 O.2   303  IDS303     -0.3452
     15  O2S       16.1670   11.5620    7.4790 O.3   303  IDS303     -0.2682
     16  O3S       16.0250    9.3520    6.6030 O.2   303  IDS303     -0.3452
@<TRIPOS>BOND
     1    16    13    2
     2    14    13    2
     3    15    13    1
     4    13     7    1
     5     7     2    1
     6     2     3    1
     7     2     1    1
     8     3     8    1
     9     3     4    1
    10     1    10    1
    11     4     9    1
    12     4     5    1
    13    10     5    1
    14     5     6    1
    15     6    11   ar
    16     6    12   ar
