@<TRIPOS>MOLECULE
3ojv_SGN_A_1.pdb
 19 19 0 0 0
SMALL
GASTEIGER

@<TRIPOS>ATOM
      1  C1        16.1290    6.5160   11.8830 C.3   302  SGN302      0.1640
      2  C2        14.7510    6.0090   11.4440 C.3   302  SGN302      0.1563
      3  C3        13.6860    6.2260   12.5440 C.3   302  SGN302      0.2047
      4  C4        14.1640    5.3980   13.7940 C.3   302  SGN302      0.2131
      5  C5        15.4940    5.9960   14.2600 C.3   302  SGN302      0.1800
      6  C6        15.9800    5.2250   15.5020 C.3   302  SGN302      0.2045
      7  N         14.4600    6.6720   10.1750 N.3   302  SGN302     -0.1156
      8  O3        12.4400    5.7360   12.0620 O.3   302  SGN302     -0.2187
      9  O4        13.2270    5.4290   14.9250 O.3   302  SGN302     -0.2176
     10  O5        16.5120    5.9080   13.1870 O.3   302  SGN302     -0.3493
     11  O6        17.1950    5.6930   16.0270 O.3   302  SGN302     -0.2384
     12  S1        15.2430    6.1730    8.7550 S.3   302  SGN302     -0.1289
     13  O1S       14.7100    7.0500    7.7480 O.3   302  SGN302     -0.2919
     14  O2S       16.6540    6.1040    9.0280 O.3   302  SGN302     -0.2919
     15  O3S       14.8940    4.7350    8.4060 O.3   302  SGN302     -0.2919
     16  S2        17.5320    4.7670   17.2490 S.3   302  SGN302     -0.0001
     17  O4S       18.8750    5.1050   17.6280 O.2   302  SGN302     -0.3452
     18  O5S       16.3890    4.9050   18.1690 O.3   302  SGN302     -0.2682
     19  O6S       17.5860    3.2970   16.8010 O.2   302  SGN302     -0.3452
@<TRIPOS>BOND
     1    13    12    1
     2    15    12    1
     3    12    14    1
     4    12     7    1
     5     7     2    1
     6     2     1    1
     7     2     3    1
     8     1    10    1
     9     8     3    1
    10     3     4    1
    11    10     5    1
    12     4     5    1
    13     4     9    1
    14     5     6    1
    15     6    11    1
    16    11    16    1
    17    19    16    2
    18    16    17    2
    19    16    18    1
