@<TRIPOS>MOLECULE
3ojw_FMN_A_1.pdb
 31 33 0 0 0
SMALL
GASTEIGER

@<TRIPOS>ATOM
      1  N1         1.8990   11.6570   17.2160 N.2   751  FMN751     -0.2890
      2  C2         0.5680   11.4410   17.3630 C.1   751  FMN751      0.3669
      3  O2        -0.1590   12.2540   17.9250 O.2   751  FMN751     -0.1744
      4  N3         0.0720   10.2600   16.8480 N.2   751  FMN751     -0.2300
      5  C4         0.7970    9.2590   16.1870 C.1   751  FMN751      0.2513
      6  O4         0.1360    8.3010   15.8210 O.2   751  FMN751     -0.2057
      7  C4A        2.1880    9.4760   16.0220 C.2   751  FMN751      0.2700
      8  N5         2.9280    8.4820   15.3530 N.2   751  FMN751     -0.3878
      9  C5A        4.2850    8.7670   15.2200 C.2   751  FMN751      0.1320
     10  C6         5.0720    7.7750   14.5300 C.2   751  FMN751      0.0250
     11  C7         6.4750    7.9500   14.3210 C.2   751  FMN751     -0.0238
     12  C7M        7.2050    6.8160   13.5680 C.3   751  FMN751      0.0308
     13  C8         7.1630    9.1740   14.8170 C.2   751  FMN751     -0.0280
     14  C8M        8.5030    9.4680   14.6820 C.3   751  FMN751      0.0304
     15  C9         6.4130   10.1190   15.4760 C.2   751  FMN751     -0.0041
     16  C9A        4.9710    9.9620   15.7020 C.3   751  FMN751      0.1497
     17  N10        4.1260   10.9440   16.3970 N.pl3 751  FMN751     -0.2691
     18  C10        2.6790   10.7000   16.5630 C.2   751  FMN751      0.2416
     19  C1'        4.7230   12.1450   16.9070 C.3   751  FMN751      0.1294
     20  C2'        5.4350   11.9650   18.2760 C.3   751  FMN751      0.2044
     21  O2'        4.4430   11.5120   19.2620 O.3   751  FMN751     -0.2185
     22  C3'        6.0400   13.2860   18.6890 C.3   751  FMN751      0.2164
     23  O3'        7.0290   13.6130   17.6670 O.3   751  FMN751     -0.2175
     24  C4'        6.7030   13.1080   20.0820 C.3   751  FMN751      0.2147
     25  O4'        7.0980   14.2600   20.2820 O.3   751  FMN751     -0.2176
     26  C5'        7.9320   12.2090   20.1190 C.3   751  FMN751      0.1892
     27  O5'        8.4250   12.0800   21.5070 O.3   751  FMN751     -0.2674
     28  P          9.6870   11.2810   22.0140 P.3   751  FMN751      0.5327
     29  O1P       10.9300   11.9530   21.5700 O.2   751  FMN751     -0.2224
     30  O2P        9.3950    9.8030   21.5810 O.3   751  FMN751     -0.1145
     31  O3P        9.5430   11.5450   23.5870 O.3   751  FMN751     -0.1145
@<TRIPOS>BOND
     1    12    11    1
     2    11    10    2
     3    11    13    1
     4    10     9    1
     5    14    13    1
     6    13    15    2
     7     9     8    2
     8     9    16    1
     9     8     7    2
    10    15    16    1
    11    16    17    1
    12     6     5    2
    13     7     5    1
    14     7    18    1
    15     5     4    2
    16    17    18    1
    17    17    19    1
    18    18     1    2
    19     4     2    2
    20    19    20    1
    21     1     2    2
    22     2     3    2
    23    23    22    1
    24    20    22    1
    25    20    21    1
    26    22    24    1
    27    24    26    1
    28    24    25    1
    29    26    27    1
    30    27    28    1
    31    29    28    2
    32    30    28    1
    33    28    31    1
