@<TRIPOS>MOLECULE
3ojx_FMN_A_1.pdb
 31 33 0 0 0
SMALL
GASTEIGER

@<TRIPOS>ATOM
      1  N1         2.1300   11.7860   16.8920 N.2   751  FMN751     -0.2890
      2  C2         0.7900   11.5510   16.9950 C.1   751  FMN751      0.3669
      3  O2         0.0390   12.3320   17.5690 O.2   751  FMN751     -0.1744
      4  N3         0.3130   10.3930   16.4230 N.2   751  FMN751     -0.2300
      5  C4         1.0480    9.4190   15.7430 C.1   751  FMN751      0.2513
      6  O4         0.3830    8.4740   15.3280 O.2   751  FMN751     -0.2057
      7  C4A        2.4490    9.6440   15.6210 C.2   751  FMN751      0.2700
      8  N5         3.2090    8.6780   14.9360 N.2   751  FMN751     -0.3878
      9  C5A        4.5700    8.9720   14.8490 C.2   751  FMN751      0.1320
     10  C6         5.3720    8.0020   14.1530 C.2   751  FMN751      0.0250
     11  C7         6.7740    8.1750   13.9880 C.2   751  FMN751     -0.0238
     12  C7M        7.5110    7.0590   13.2240 C.3   751  FMN751      0.0308
     13  C8         7.4550    9.3800   14.5350 C.2   751  FMN751     -0.0280
     14  C8M        8.8020    9.6630   14.4390 C.3   751  FMN751      0.0304
     15  C9         6.6930   10.3150   15.2050 C.2   751  FMN751     -0.0041
     16  C9A        5.2460   10.1540   15.3890 C.3   751  FMN751      0.1497
     17  N10        4.3800   11.1150   16.0970 N.pl3 751  FMN751     -0.2691
     18  C10        2.9300   10.8570   16.2210 C.2   751  FMN751      0.2416
     19  C1'        4.9630   12.3100   16.6600 C.3   751  FMN751      0.1294
     20  C2'        5.6490   12.1080   18.0220 C.3   751  FMN751      0.2044
     21  O2'        4.6310   11.6330   18.9670 O.3   751  FMN751     -0.2185
     22  C3'        6.2390   13.4230   18.4740 C.3   751  FMN751      0.2164
     23  O3'        7.2330   13.7740   17.4730 O.3   751  FMN751     -0.2175
     24  C4'        6.8950   13.2140   19.8760 C.3   751  FMN751      0.2147
     25  O4'        7.2770   14.3650   20.1140 O.3   751  FMN751     -0.2176
     26  C5'        8.1400   12.3380   19.9100 C.3   751  FMN751      0.1892
     27  O5'        8.6000   12.1890   21.3040 O.3   751  FMN751     -0.2674
     28  P          9.8590   11.4080   21.8600 P.3   751  FMN751      0.5327
     29  O1P       11.1090   12.1190   21.5020 O.3   751  FMN751     -0.1145
     30  O2P        9.6300    9.9430   21.3780 O.2   751  FMN751     -0.2224
     31  O3P        9.6390   11.6460   23.4270 O.3   751  FMN751     -0.1145
@<TRIPOS>BOND
     1    12    11    1
     2    11    10    2
     3    11    13    1
     4    10     9    1
     5    14    13    1
     6    13    15    2
     7     9     8    2
     8     9    16    1
     9     8     7    2
    10    15    16    1
    11     6     5    2
    12    16    17    1
    13     7     5    1
    14     7    18    1
    15     5     4    2
    16    17    18    1
    17    17    19    1
    18    18     1    2
    19     4     2    2
    20    19    20    1
    21     1     2    2
    22     2     3    2
    23    23    22    1
    24    20    22    1
    25    20    21    1
    26    22    24    1
    27    24    26    1
    28    24    25    1
    29    26    27    1
    30    27    28    1
    31    30    28    2
    32    29    28    1
    33    28    31    1
