@<TRIPOS>MOLECULE
3ojx_NAP_A_1.pdb
 48 52 0 0 0
SMALL
GASTEIGER

@<TRIPOS>ATOM
      1  PA        13.2500    4.6260   -1.7830 P.3   753  NAP753      0.2189
      2  O1A       14.5520    4.1260   -2.2380 O.2   753  NAP753     -0.5170
      3  O2A       12.9530    5.9670   -2.2310 O.3   753  NAP753     -0.4371
      4  O5B       12.1070    3.6540   -2.3240 O.3   753  NAP753     -0.3112
      5  C5B       10.7110    3.7520   -2.0270 C.3   753  NAP753      0.1813
      6  C4B        9.9260    3.6180   -3.3140 C.3   753  NAP753      0.1820
      7  O4B        8.6460    4.2310   -3.1610 O.3   753  NAP753     -0.3136
      8  C3B       10.5730    4.3230   -4.5100 C.3   753  NAP753      0.2157
      9  O3B       10.4130    3.5730   -5.7070 O.3   753  NAP753     -0.2175
     10  C2B        9.8640    5.6400   -4.5460 C.3   753  NAP753      0.2314
     11  O2B        9.9260    6.2690   -5.8130 O.3   753  NAP753     -0.2630
     12  C1B        8.4860    5.2200   -4.1720 C.3   753  NAP753      0.3158
     13  N9A        7.5770    6.2500   -3.5990 N.pl3 753  NAP753     -0.1439
     14  C8A        7.7400    7.5810   -3.3020 C.3   753  NAP753      0.3377
     15  N7A        6.7050    8.2920   -2.7760 N.2   753  NAP753     -0.2095
     16  C5A        5.7650    7.2640   -2.7450 C.2   753  NAP753      0.2526
     17  C6A        4.3960    7.2100   -2.3210 C.2   753  NAP753      0.4393
     18  N6A        3.7690    8.2750   -1.8440 N.pl3 753  NAP753      0.2180
     19  N1A        3.6840    5.9970   -2.4130 N.2   753  NAP753      0.0021
     20  C2A        4.2820    4.8490   -2.9070 C.3   753  NAP753      0.5254
     21  N3A        5.5770    4.7750   -3.3410 N.2   753  NAP753     -0.0055
     22  C4A        6.2820    6.0210   -3.2370 C.2   753  NAP753      0.3518
     23  O3        12.9690    4.4760   -0.2690 O.3   753  NAP753     -0.2703
     24  PN        14.0080    4.1000    0.8050 P.3   753  NAP753      0.2189
     25  O1N       15.3360    3.8010    0.3870 O.2   753  NAP753     -0.5170
     26  O2N       13.6200    2.9840    1.6430 O.3   753  NAP753     -0.4371
     27  O5D       14.0340    5.4380    1.6870 O.3   753  NAP753     -0.3112
     28  C5D       14.9170    6.5540    1.4430 C.3   753  NAP753      0.1813
     29  C4D       14.5750    7.6970    2.4280 C.3   753  NAP753      0.1799
     30  O4D       13.5730    8.4940    1.7760 O.3   753  NAP753     -0.3327
     31  C3D       13.9900    7.2200    3.7680 C.3   753  NAP753      0.2158
     32  O3D       14.8170    7.5990    4.8830 O.3   753  NAP753     -0.2175
     33  C2D       12.5580    7.7980    3.8480 C.3   753  NAP753      0.2309
     34  O2D       12.3340    8.5810    5.0240 O.3   753  NAP753     -0.2158
     35  C1D       12.3500    8.5980    2.5470 C.3   753  NAP753      0.2263
     36  N1N       11.1270    8.0730    1.7220 N.pl3 753  NAP753     -0.2787
     37  C2N        9.8920    8.6780    1.9140 C.3   753  NAP753      0.1244
     38  C3N        8.6790    8.2570    1.2000 C.2   753  NAP753      0.0544
     39  C7N        7.2820    8.8910    1.3720 C.2   753  NAP753      0.2818
     40  O7N        6.2820    8.5120    0.7590 O.2   753  NAP753     -0.2670
     41  N7N        7.1090    9.9910    2.2960 N.am  753  NAP753     -0.0839
     42  C4N        8.8460    7.1500    0.2660 C.2   753  NAP753      0.0033
     43  C5N       10.1110    6.5160    0.0530 C.2   753  NAP753      0.0157
     44  C6N       11.2380    6.9950    0.7930 C.2   753  NAP753      0.0633
     45  P2B       10.6870    7.6390   -6.1220 P.3   753  NAP753      0.5328
     46  O1X        9.6340    8.8320   -6.1020 O.3   753  NAP753     -0.1145
     47  O2X       11.3510    7.4610   -7.5600 O.2   753  NAP753     -0.2224
     48  O3X       11.8210    7.9120   -5.0190 O.3   753  NAP753     -0.1145
@<TRIPOS>BOND
     1    47    45    2
     2    45    46    1
     3    45    11    1
     4    45    48    1
     5    11    10    1
     6     9     8    1
     7    10     8    1
     8    10    12    1
     9     8     6    1
    10    12    13    1
    11    12     7    1
    12    13    14    1
    13    13    22    1
    14    21    22    2
    15    21    20    1
    16     6     7    1
    17     6     5    1
    18    14    15    1
    19    22    16    1
    20    20    19    1
    21    15    16    2
    22    16    17    1
    23    19    17    2
    24     4     5    1
    25     4     1    1
    26    17    18    1
    27     2     1    2
    28     3     1    1
    29     1    23    1
    30    23    24    1
    31    43    42    1
    32    43    44    2
    33    42    38    2
    34    25    24    2
    35    40    39    2
    36    44    36    1
    37    24    26    1
    38    24    27    1
    39    38    39    1
    40    38    37    1
    41    39    41   am
    42    28    27    1
    43    28    29    1
    44    36    37    1
    45    36    35    1
    46    30    29    1
    47    30    35    1
    48    29    31    1
    49    35    33    1
    50    31    33    1
    51    31    32    1
    52    33    34    1
