@<TRIPOS>MOLECULE
3ojy_BMA_A_1.pdb
 11 11 0 0 0
SMALL
GASTEIGER

@<TRIPOS>ATOM
      1  C1        23.8040  -43.3800  -20.2920 C.3   556  BMA556      0.1777
      2  C2        24.8950  -44.2440  -20.9760 C.3   556  BMA556      0.2141
      3  C3        24.4410  -45.6860  -21.0830 C.3   556  BMA556      0.2173
      4  C4        22.9300  -45.7070  -21.2490 C.3   556  BMA556      0.2142
      5  C5        22.1950  -45.0640  -20.0610 C.3   556  BMA556      0.1810
      6  C6        21.7210  -46.1560  -19.1060 C.3   556  BMA556      0.2141
      7  O2        26.1530  -44.2700  -20.2960 O.3   556  BMA556     -0.2176
      8  O3        24.8440  -46.3780  -19.8930 O.3   556  BMA556     -0.2175
      9  O4        22.6620  -44.9710  -22.4510 O.3   556  BMA556     -0.2176
     10  O5        23.0160  -44.0970  -19.3590 O.3   556  BMA556     -0.3481
     11  O6        22.7630  -46.4540  -18.1530 O.3   556  BMA556     -0.2176
@<TRIPOS>BOND
     1     9     4    1
     2     4     3    1
     3     4     5    1
     4     3     2    1
     5     3     8    1
     6     2     7    1
     7     2     1    1
     8     1    10    1
     9     5    10    1
    10     5     6    1
    11     6    11    1
