@<TRIPOS>MOLECULE
3ok5_HEM_A_1.pdb
 43 50 0 0 0
SMALL
GASTEIGER

@<TRIPOS>ATOM
      1  CHA        7.2590   -4.7620   11.4090 C.2   139  HEM139      0.0000
      2  CHB        8.4480   -0.2960    9.9600 C.2   139  HEM139      0.0000
      3  CHC        4.5290    1.5180   12.1760 C.2   139  HEM139      0.0000
      4  CHD        3.1690   -2.9440   13.4420 C.2   139  HEM139      0.0000
      5  C1A        7.9810   -3.7140   10.8830 C.ar  139  HEM139      0.0000
      6  C2A        9.3350   -3.7540   10.3440 C.ar  139  HEM139      0.0000
      7  C3A        9.6490   -2.5170    9.9450 C.ar  139  HEM139      0.0000
      8  C4A        8.5170   -1.6520   10.2250 C.ar  139  HEM139      0.0000
      9  CMA       10.9850   -2.0740    9.3030 C.3   139  HEM139      0.0000
     10  CAA       10.2390   -5.0070   10.2280 C.3   139  HEM139      0.0000
     11  CBA       11.1650   -5.0810   11.4410 C.3   139  HEM139      0.0000
     12  CGA       11.9280   -6.3810   11.4470 C.2   139  HEM139      0.0000
     13  O1A       13.1080   -6.3950   11.0060 O.co2 139  HEM139      0.0000
     14  O2A       11.3590   -7.4050   11.9050 O.co2 139  HEM139      0.0000
     15  C1B        7.5350    0.6030   10.4780 C.2   139  HEM139      0.0000
     16  C2B        7.5950    2.0550   10.4100 C.2   139  HEM139      0.0000
     17  C3B        6.5050    2.5430   11.0210 C.2   139  HEM139      0.0000
     18  C4B        5.7230    1.4240   11.4920 C.2   139  HEM139      0.0000
     19  CMB        8.7240    2.8840    9.7530 C.3   139  HEM139      0.0000
     20  CAB        6.0830    4.0130   11.2420 C.2   139  HEM139      0.0000
     21  CBB        6.4040    5.0190   10.4220 C.2   139  HEM139      0.0000
     22  C1C        3.8300    0.4850   12.7580 C.ar  139  HEM139      0.0000
     23  C2C        2.6630    0.6130   13.6090 C.ar  139  HEM139      0.0000
     24  C3C        2.2860   -0.6250   13.9660 C.ar  139  HEM139      0.0000
     25  C4C        3.1990   -1.5680   13.3490 C.ar  139  HEM139      0.0000
     26  CMC        1.9950    1.9520   14.0060 C.3   139  HEM139      0.0000
     27  CAC        1.0820   -1.0190   14.8570 C.2   139  HEM139      0.0000
     28  CBC        1.0340   -0.7280   16.1570 C.2   139  HEM139      0.0000
     29  C1D        4.1750   -3.8260   13.1010 C.2   139  HEM139      0.0000
     30  C2D        4.2610   -5.1940   13.5560 C.2   139  HEM139      0.0000
     31  C3D        5.5390   -5.7630   12.9200 C.2   139  HEM139      0.0000
     32  C4D        6.1010   -4.6780   12.1510 C.2   139  HEM139      0.0000
     33  CMD        3.2690   -5.9390   14.4830 C.3   139  HEM139      0.0000
     34  CAD        6.1270   -7.1860   13.0760 C.3   139  HEM139      0.0000
     35  CBD        7.2070   -7.1570   14.1540 C.3   139  HEM139      0.0000
     36  CGD        6.8070   -7.9990   15.3390 C.2   139  HEM139      0.0000
     37  O1D        5.6070   -7.9870   15.7270 O.co2 139  HEM139      0.0000
     38  O2D        7.6930   -8.6910   15.9080 O.co2 139  HEM139      0.0000
     39  NA         7.5100   -2.4250   10.7820 N.ar  139  HEM139      0.0000
     40  NB         6.3710    0.2620   11.1300 N.2   139  HEM139      0.0000
     41  NC         4.1230   -0.8610   12.6160 N.ar  139  HEM139      0.0000
     42  ND         5.2660   -3.5630   12.2680 N.2   139  HEM139      0.0000
     43 FE          5.7880   -1.6800   11.6690 Fe    139  HEM139      0.0000
@<TRIPOS>BOND
     1     9     7    1
     2    19    16    1
     3     7     8   ar
     4     7     6   ar
     5     2     8    2
     6     2    15    1
     7     8    39   ar
     8    10     6    1
     9    10    11    1
    10     6     5   ar
    11    16    15    1
    12    16    17    2
    13    21    20    2
    14    15    40    2
    15    39     5   ar
    16    39    43    1
    17     5     1    2
    18    13    12   ar
    19    17    20    1
    20    17    18    1
    21    40    18    1
    22    40    43    1
    23     1    32    1
    24    11    12    1
    25    12    14   ar
    26    18     3    2
    27    43    42    1
    28    43    41    1
    29    32    42    2
    30    32    31    1
    31     3    22    1
    32    42    29    1
    33    41    22   ar
    34    41    25   ar
    35    22    23   ar
    36    31    34    1
    37    31    30    2
    38    34    35    1
    39    29     4    2
    40    29    30    1
    41    25     4    1
    42    25    24   ar
    43    30    33    1
    44    23    24   ar
    45    23    26    1
    46    24    27    1
    47    35    36    1
    48    27    28    2
    49    36    37   ar
    50    36    38   ar
