@<TRIPOS>MOLECULE
3ok9_G52_A_1.pdb
 42 46 0 0 0
SMALL
GASTEIGER

@<TRIPOS>ATOM
      1  C2        21.0010   27.7160   14.7810 C.ar  401  G52401      0.1388
      2  C3        19.6640   27.6990   14.3900 C.ar  401  G52401      0.0383
      3  C4        18.8690   26.5780   14.5980 C.ar  401  G52401      0.0230
      4  C5        19.3900   25.4810   15.2810 C.ar  401  G52401      0.1224
      5  C6        20.7370   25.4790   15.5860 C.ar  401  G52401      0.0230
      6  C7        21.5740   26.5580   15.3090 C.ar  401  G52401      0.0383
      7  S8        18.4030   24.0840   15.6940 S.O2  401  G52401      0.0634
      8  O9        17.3220   24.0040   14.6670 O.2   401  G52401     -0.1528
      9  O10       19.3150   22.9220   15.8240 O.2   401  G52401     -0.1528
     10  N11       17.7090   24.2840   17.1750 N.3   401  G52401     -0.1529
     11  C12       18.6590   24.5440   18.2440 C.3   401  G52401      0.0958
     12  C13       18.3170   23.8950   19.5820 C.3   401  G52401      0.0178
     13  C14       18.2110   22.3730   19.5590 C.3   401  G52401      0.0015
     14  C15       19.3940   24.2920   20.6110 C.3   401  G52401      0.0015
     15  C16       16.4650   25.0450   17.2430 C.3   401  G52401      0.1304
     16  C17       15.3120   24.1680   17.7060 C.3   401  G52401      0.1898
     17  O18       14.1680   24.9750   17.9920 O.3   401  G52401     -0.2197
     18  C19       14.9500   23.0320   16.7540 C.3   401  G52401      0.1347
     19  N20       14.0210   22.0980   17.3780 N.am  401  G52401     -0.1675
     20  C21       14.2710   20.8360   17.7170 C.2   401  G52401      0.4211
     21  O22       15.3900   20.3290   17.5120 O.2   401  G52401     -0.2246
     22  O23       13.2150   20.2220   18.3140 O.3   401  G52401     -0.4345
     23  C24       13.4080   18.8380   18.5870 C.3   401  G52401      0.2049
     24  C25       12.8870   18.5800   19.9910 C.3   401  G52401      0.1884
     25  O26       11.4590   18.4980   19.8750 O.3   401  G52401     -0.3265
     26  C27       11.1310   18.1540   18.5520 C.3   401  G52401      0.2407
     27  O28       10.3990   19.2410   17.9550 O.3   401  G52401     -0.3056
     28  C29       10.9390   19.6190   16.7160 C.3   401  G52401      0.2371
     29  C30       12.0780   18.6490   16.4060 C.3   401  G52401      0.0675
     30  C31       12.4080   18.0150   17.7440 C.3   401  G52401      0.1041
     31  C32       14.2820   23.5310   15.4880 C.3   401  G52401      0.0508
     32  C33       12.6610   21.9310   14.3700 C.ar  401  G52401     -0.0042
     33  C34       12.3280   20.8610   13.5350 C.ar  401  G52401     -0.0003
     34  C35       13.3570   20.2640   12.8100 C.ar  401  G52401     -0.0000
     35  C36       14.6700   20.6690   13.0050 C.ar  401  G52401     -0.0003
     36  C37       14.9890   21.7310   13.8520 C.ar  401  G52401     -0.0042
     37  C38       13.9700   22.3600   14.5340 C.ar  401  G52401     -0.0204
     38  O39       21.7130   28.8620   14.5770 O.3   401  G52401     -0.4714
     39  C40       23.0460   28.7540   15.0250 C.3   401  G52401      0.2525
     40  O41        9.9220   19.3920   15.7030 O.3   401  G52401     -0.3305
     41  C42        9.9500   17.9520   15.5140 C.3   401  G52401      0.1450
     42  C43       11.4540   17.6810   15.4100 C.3   401  G52401      0.0375
@<TRIPOS>BOND
     1    34    35   ar
     2    34    33   ar
     3    35    36   ar
     4    33    32   ar
     5    36    37   ar
     6    32    37   ar
     7     2     3   ar
     8     2     1   ar
     9    37    31    1
    10    38     1    1
    11    38    39    1
    12     3     4   ar
    13     8     7    2
    14     1     6   ar
    15     4     5   ar
    16     4     7    1
    17     6     5   ar
    18    42    41    1
    19    42    29    1
    20    31    18    1
    21    41    40    1
    22     7     9    2
    23     7    10    1
    24    40    28    1
    25    29    28    1
    26    29    30    1
    27    28    27    1
    28    18    19    1
    29    18    16    1
    30    10    15    1
    31    10    11    1
    32    15    16    1
    33    19    20   am
    34    21    20    2
    35    16    17    1
    36    20    22    1
    37    30    26    1
    38    30    23    1
    39    27    26    1
    40    11    12    1
    41    22    23    1
    42    26    25    1
    43    23    24    1
    44    13    12    1
    45    12    14    1
    46    25    24    1
