@<TRIPOS>MOLECULE
3oka_GDD_A_1.pdb
 28 30 0 0 0
SMALL
GASTEIGER

@<TRIPOS>ATOM
      1  N2        23.7730    9.8250   83.3470 N.pl3 701  GDD701     -0.0226
      2  C2        22.4610    9.6460   83.6370 C.1   701  GDD701      0.2531
      3  N1        21.5320    9.7430   82.6500 N.2   701  GDD701     -0.2485
      4  N3        22.0870    9.3730   84.9120 N.2   701  GDD701     -0.3074
      5  C4        20.7740    9.1890   85.2210 C.2   701  GDD701      0.2300
      6  C5        19.8110    9.2840   84.2230 C.2   701  GDD701      0.2182
      7  C6        20.2150    9.5660   82.9200 C.1   701  GDD701      0.2372
      8  O6        19.3720    9.6570   82.0040 O.2   701  GDD701     -0.2069
      9  N7        18.6070    9.0610   84.7980 N.2   701  GDD701     -0.2322
     10  C8        18.8220    8.8340   86.1160 C.3   701  GDD701      0.2246
     11  N9        20.1420    8.9130   86.3680 N.pl3 701  GDD701     -0.2354
     12  C1'       20.8100    8.7350   87.6860 C.3   701  GDD701      0.2293
     13  C2'       20.4950    9.9020   88.6140 C.3   701  GDD701      0.2310
     14  O2'       21.4720   10.9420   88.5240 O.3   701  GDD701     -0.2158
     15  C3'       20.4720    9.2710   89.9900 C.3   701  GDD701      0.2158
     16  O3'       21.7760    9.3180   90.5780 O.3   701  GDD701     -0.2175
     17  C4'       20.0980    7.8180   89.7430 C.3   701  GDD701      0.1799
     18  O4'       20.3490    7.5540   88.3540 O.3   701  GDD701     -0.3326
     19  C5'       18.6400    7.5690   90.1270 C.3   701  GDD701      0.1813
     20  O5'       17.9170    6.9480   89.0570 O.3   701  GDD701     -0.3111
     21  PA        16.8540    6.0040   89.3220 P.3   701  GDD701      0.2231
     22  O1A       15.7970    6.4560   88.8280 O.3   701  GDD701     -0.4370
     23  O2A       17.1560    4.9290   88.7670 O.2   701  GDD701     -0.5169
     24  O3A       16.6970    5.8170   90.7640 O.3   701  GDD701     -0.2261
     25  PB        16.0970    4.6700   91.4310 P.3   701  GDD701      0.5373
     26  O2B       14.9930    4.3850   90.9200 O.2   701  GDD701     -0.2221
     27  O3B       16.8570    3.6820   91.3540 O.3   701  GDD701     -0.1143
     28  O1B       15.8970    4.9750   92.8260 O.3   701  GDD701     -0.1143
@<TRIPOS>BOND
     1     8     7    2
     2     3     7    2
     3     3     2    2
     4     7     6    1
     5     1     2    1
     6     2     4    2
     7     6     9    2
     8     6     5    1
     9     9    10    1
    10     4     5    2
    11     5    11    1
    12    10    11    1
    13    11    12    1
    14    12    18    1
    15    12    13    1
    16    18    17    1
    17    14    13    1
    18    13    15    1
    19    23    21    2
    20    22    21    1
    21    20    21    1
    22    20    19    1
    23    21    24    1
    24    17    15    1
    25    17    19    1
    26    15    16    1
    27    24    25    1
    28    26    25    2
    29    27    25    1
    30    25    28    1
