@<TRIPOS>MOLECULE
3okc_GDP_A_1.pdb
 28 30 0 0 0
SMALL
GASTEIGER

@<TRIPOS>ATOM
      1  PB         4.4720    6.0800   26.3160 P.3   601  GDP601      0.5373
      2  O1B        5.2130    5.3030   25.3300 O.2   601  GDP601     -0.2221
      3  O2B        4.9650    5.9140   27.4490 O.3   601  GDP601     -0.1143
      4  O3B        3.2960    5.6580   26.3400 O.3   601  GDP601     -0.1143
      5  O3A        4.4680    7.4900   25.9540 O.3   601  GDP601     -0.2261
      6  PA         5.5870    8.4250   26.0470 P.3   601  GDP601      0.2231
      7  O1A        5.8790    8.6360   27.2460 O.3   601  GDP601     -0.4370
      8  O2A        5.2380    9.5190   25.5310 O.2   601  GDP601     -0.5169
      9  O5'        6.7640    7.9160   25.3600 O.3   601  GDP601     -0.3111
     10  C5'        6.7950    7.7700   23.9380 C.3   601  GDP601      0.1813
     11  C4'        8.2280    7.8240   23.4180 C.3   601  GDP601      0.1799
     12  O4'        8.3330    7.0940   22.1820 O.3   601  GDP601     -0.3326
     13  C3'        8.6410    9.2640   23.1390 C.3   601  GDP601      0.2158
     14  O3'        9.9510    9.5080   23.6610 O.3   601  GDP601     -0.2175
     15  C2'        8.6560    9.3750   21.6280 C.3   601  GDP601      0.2310
     16  O2'        9.6910   10.2560   21.1840 O.3   601  GDP601     -0.2158
     17  C1'        8.8760    7.9400   21.1580 C.3   601  GDP601      0.2293
     18  N9         8.2580    7.7210   19.8200 N.pl3 601  GDP601     -0.2354
     19  C8         6.9470    7.6610   19.5200 C.3   601  GDP601      0.2246
     20  N7         6.8060    7.4550   18.1870 N.2   601  GDP601     -0.2322
     21  C5         8.0460    7.3880   17.6510 C.2   601  GDP601      0.2182
     22  C6         8.5300    7.1960   16.3580 C.1   601  GDP601      0.2372
     23  O6         7.7390    7.0430   15.4020 O.2   601  GDP601     -0.2069
     24  N1         9.8670    7.1770   16.1390 N.2   601  GDP601     -0.2485
     25  C2        10.7400    7.3410   17.1650 C.1   601  GDP601      0.2531
     26  N2        12.0740    7.3210   16.9320 N.pl3 601  GDP601     -0.0226
     27  N3        10.2900    7.5310   18.4280 N.2   601  GDP601     -0.3074
     28  C4         8.9550    7.5580   18.6880 C.2   601  GDP601      0.2300
@<TRIPOS>BOND
     1    23    22    2
     2    24    22    2
     3    24    25    2
     4    22    21    1
     5    26    25    1
     6    25    27    2
     7    21    20    2
     8    21    28    1
     9    20    19    1
    10    27    28    2
    11    28    18    1
    12    19    18    1
    13    18    17    1
    14    17    15    1
    15    17    12    1
    16    16    15    1
    17    15    13    1
    18    12    11    1
    19    13    11    1
    20    13    14    1
    21    11    10    1
    22    10     9    1
    23     2     1    2
    24     9     6    1
    25     8     6    2
    26     5     6    1
    27     5     1    1
    28     6     7    1
    29     1     4    1
    30     1     3    1
