@<TRIPOS>MOLECULE
3okd_KDO_B_1.pdb
 16 16 0 0 0
SMALL
GASTEIGER

@<TRIPOS>ATOM
      1  C1        32.4800   -0.7890    0.0370 C.2   214  KDO214      0.4179
      2  O1A       33.4580   -1.4280   -0.3930 O.co2 214  KDO214     -0.2401
      3  O1B       32.4380    0.4590    0.2470 O.co2 214  KDO214     -0.2401
      4  C2        31.2020   -1.6130    0.2730 C.3   214  KDO214      0.3156
      5  O2        30.4350   -1.0620    1.3520 O.3   214  KDO214     -0.1830
      6  C3        30.3870   -1.6660   -1.0480 C.3   214  KDO214      0.1064
      7  C4        29.1270   -2.5070   -0.8260 C.3   214  KDO214      0.1902
      8  O4        28.3940   -2.6240   -2.0580 O.3   214  KDO214     -0.2201
      9  C5        29.5780   -3.8940   -0.4200 C.3   214  KDO214      0.2118
     10  O5        30.3940   -4.4870   -1.4570 O.3   214  KDO214     -0.2177
     11  C6        30.4120   -3.7860    0.8600 C.3   214  KDO214      0.1838
     12  O6        31.5600   -2.9590    0.6460 O.3   214  KDO214     -0.3212
     13  C7        30.8540   -5.1920    1.2670 C.3   214  KDO214      0.2143
     14  O7        29.6650   -5.9280    1.5400 O.3   214  KDO214     -0.2176
     15  C8        31.6700   -5.1840    2.5450 C.3   214  KDO214      0.2174
     16  O8        30.8230   -4.6740    3.5880 O.3   214  KDO214     -0.2175
@<TRIPOS>BOND
     1     8     7    1
     2    10     9    1
     3     6     7    1
     4     6     4    1
     5     7     9    1
     6     9    11    1
     7     2     1   ar
     8     1     3   ar
     9     1     4    1
    10     4    12    1
    11     4     5    1
    12    12    11    1
    13    11    13    1
    14    13    14    1
    15    13    15    1
    16    15    16    1
