@<TRIPOS>MOLECULE
3oke_KO2_B_1.pdb
 20 20 0 0 0
SMALL
GASTEIGER

@<TRIPOS>ATOM
      1  C1       -11.7760    0.2340    0.4880 C.2   214  KO2214      0.4302
      2  O1B      -11.4850   -0.9770    0.5410 O.co2 214  KO2214     -0.2388
      3  C2       -10.6120    1.2900    0.6820 C.3   214  KO2214      0.3558
      4  O6       -11.1580    2.6440    0.9880 O.3   214  KO2214     -0.3120
      5  C6       -10.0910    3.6450    1.1500 C.3   214  KO2214      0.1849
      6  C7       -10.7190    5.0240    1.4670 C.3   214  KO2214      0.2144
      7  C8       -11.5420    4.9440    2.8030 C.3   214  KO2214      0.2174
      8  O8       -12.1590    6.1960    3.1590 O.3   214  KO2214     -0.2175
      9  O7        -9.6390    5.9510    1.6750 O.3   214  KO2214     -0.2176
     10  C5        -9.1380    3.6570   -0.1060 C.3   214  KO2214      0.2145
     11  O5        -9.8360    4.1930   -1.2550 O.3   214  KO2214     -0.2176
     12  C4        -8.6080    2.2710   -0.2940 C.3   214  KO2214      0.2215
     13  O4        -7.6410    2.1920   -1.3890 O.3   214  KO2214     -0.2173
     14  C3        -9.7250    1.2750   -0.5460 C.3   214  KO2214      0.2592
     15  O3       -10.4870    1.5990   -1.7150 O.3   214  KO2214     -0.2131
     16  O2        -9.7320    0.8930    1.7660 O.2   214  KO2214     -0.4444
     17  C11       -9.9440    0.5210    5.3780 C.3   214  KO2214      0.0341
     18  C10       -9.5070    0.5180    4.0750 C.2   214  KO2214      0.0143
     19  C9       -10.2790    0.9300    3.0020 C.2   214  KO2214      0.1709
     20  O1A      -12.9610    0.6430    0.2330 O.co2 214  KO2214     -0.2388
@<TRIPOS>BOND
     1    15    14    1
     2    13    12    1
     3    11    10    1
     4    14    12    1
     5    14     3    1
     6    12    10    1
     7    10     5    1
     8    20     1   ar
     9     1     2   ar
    10     1     3    1
    11     3     4    1
    12     3    16    1
    13     4     5    1
    14     5     6    1
    15     6     9    1
    16     6     7    1
    17    16    19    1
    18     7     8    1
    19    19    18    2
    20    18    17    1
