@<TRIPOS>MOLECULE
3okf_NAD_A_1.pdb
 44 48 0 0 0
SMALL
GASTEIGER

@<TRIPOS>ATOM
      1  PA       -29.4250   -9.2520  -27.5680 P.3   367  NAD367      0.2189
      2  O1A      -29.7920  -10.7190  -27.5130 O.3   367  NAD367     -0.4371
      3  O2A      -30.5160   -8.2150  -27.7020 O.2   367  NAD367     -0.5170
      4  O5B      -28.3570   -9.0070  -28.7260 O.3   367  NAD367     -0.3112
      5  C5B      -27.8470   -7.6880  -28.9350 C.3   367  NAD367      0.1813
      6  C4B      -28.0110   -7.2340  -30.3920 C.3   367  NAD367      0.1821
      7  O4B      -27.1310   -7.9410  -31.2840 O.3   367  NAD367     -0.3135
      8  C3B      -29.4030   -7.4750  -30.9490 C.3   367  NAD367      0.2184
      9  O3B      -29.7740   -6.3150  -31.7070 O.3   367  NAD367     -0.2174
     10  C2B      -29.2840   -8.6870  -31.8700 C.3   367  NAD367      0.2570
     11  O2B      -30.2720   -8.6570  -32.9090 O.3   367  NAD367     -0.2130
     12  C1B      -27.8750   -8.5020  -32.3910 C.3   367  NAD367      0.3186
     13  N9A      -27.0580   -9.6760  -32.7050 N.pl3 367  NAD367     -0.1439
     14  C8A      -26.9460  -10.8350  -32.0290 C.3   367  NAD367      0.3377
     15  N7A      -26.0020  -11.6020  -32.6360 N.2   367  NAD367     -0.2095
     16  C5A      -25.5160  -10.8780  -33.6670 C.2   367  NAD367      0.2526
     17  C6A      -24.5480  -11.0960  -34.6290 C.2   367  NAD367      0.4393
     18  N6A      -23.8640  -12.2570  -34.6590 N.pl3 367  NAD367      0.2180
     19  N1A      -24.3100  -10.1350  -35.5590 N.2   367  NAD367      0.0021
     20  C2A      -24.9720   -8.9690  -35.5580 C.3   367  NAD367      0.5254
     21  N3A      -25.9020   -8.7310  -34.6340 N.2   367  NAD367     -0.0055
     22  C4A      -26.1800   -9.6650  -33.6910 C.2   367  NAD367      0.3518
     23  O3       -28.6220   -8.8600  -26.2280 O.3   367  NAD367     -0.2703
     24  PN       -27.6810   -9.8450  -25.3690 P.3   367  NAD367      0.2189
     25  O1N      -27.0900  -10.9160  -26.2520 O.2   367  NAD367     -0.5170
     26  O2N      -26.7410   -8.9940  -24.5560 O.3   367  NAD367     -0.4371
     27  O5D      -28.6790  -10.5450  -24.3190 O.3   367  NAD367     -0.3112
     28  C5D      -29.3750   -9.7740  -23.3630 C.3   367  NAD367      0.1813
     29  C4D      -30.4280  -10.6330  -22.7020 C.3   367  NAD367      0.1799
     30  O4D      -29.7610  -11.7940  -22.2160 O.3   367  NAD367     -0.3327
     31  C3D      -31.0990   -9.9630  -21.5020 C.3   367  NAD367      0.2158
     32  O3D      -32.5300  -10.0220  -21.6080 O.3   367  NAD367     -0.2175
     33  C2D      -30.6390  -10.7770  -20.3060 C.3   367  NAD367      0.2309
     34  O2D      -31.6430  -10.9120  -19.2990 O.3   367  NAD367     -0.2158
     35  C1D      -30.3160  -12.1140  -20.9440 C.3   367  NAD367      0.2263
     36  N1N      -29.3650  -12.8740  -20.1650 N.pl3 367  NAD367     -0.2787
     37  C2N      -29.6630  -14.1170  -19.7760 C.3   367  NAD367      0.1244
     38  C3N      -28.7350  -14.8400  -19.0350 C.2   367  NAD367      0.0544
     39  C7N      -29.0420  -16.2170  -18.5700 C.2   367  NAD367      0.2818
     40  O7N      -28.2350  -16.7840  -17.6660 O.2   367  NAD367     -0.2670
     41  N7N      -30.1300  -16.8310  -19.0370 N.am  367  NAD367     -0.0839
     42  C4N      -27.5180  -14.2790  -18.6980 C.2   367  NAD367      0.0033
     43  C5N      -27.2400  -12.9920  -19.1140 C.2   367  NAD367      0.0157
     44  C6N      -28.1850  -12.3070  -19.8620 C.2   367  NAD367      0.0633
@<TRIPOS>BOND
     1    19    20    1
     2    19    17    2
     3    20    21    1
     4    18    17    1
     5    21    22    2
     6    17    16    1
     7    22    16    1
     8    22    13    1
     9    16    15    2
    10    11    10    1
    11    13    12    1
    12    13    14    1
    13    15    14    1
    14    12    10    1
    15    12     7    1
    16    10     8    1
    17     9     8    1
    18     7     6    1
    19     8     6    1
    20     6     5    1
    21     5     4    1
    22     4     1    1
    23     3     1    2
    24     1     2    1
    25     1    23    1
    26    25    24    2
    27    23    24    1
    28    24    26    1
    29    24    27    1
    30    27    28    1
    31    28    29    1
    32    29    30    1
    33    29    31    1
    34    30    35    1
    35    32    31    1
    36    31    33    1
    37    35    33    1
    38    35    36    1
    39    33    34    1
    40    36    44    1
    41    36    37    1
    42    44    43    2
    43    37    38    1
    44    43    42    1
    45    41    39   am
    46    38    42    2
    47    38    39    1
    48    39    40    2
