@<TRIPOS>MOLECULE
3okh_OKH_A_1.pdb
 35 39 0 0 0
SMALL
GASTEIGER

@<TRIPOS>ATOM
      1  C1        19.6920   64.2510   11.7340 C.2     1  OKH1        0.0087
      2  C2        21.0740   64.5030   11.6130 C.2     1  OKH1        0.0776
      3  C3        21.9210   64.4820   12.7150 C.2     1  OKH1        0.0070
      4  C4        19.1220   64.0120   12.9750 C.2     1  OKH1        0.0298
      5  C5        19.9440   64.0120   14.1130 C.2     1  OKH1        0.1328
      6  C6        21.3530   64.2800   13.9710 C.3     1  OKH1        0.1504
      7  N7        21.9030   64.1930   15.2530 N.pl3   1  OKH1       -0.2687
      8  C8        20.8290   63.9860   16.1400 C.2     1  OKH1        0.1837
      9  N9        19.6740   63.7790   15.4620 N.2     1  OKH1       -0.3893
     10  C10       21.0600   63.7900   17.5880 C.ar    1  OKH1        0.0440
     11  C11       23.2900   64.2470   15.6100 C.3     1  OKH1        0.1537
     12  C12       23.8360   65.6920   15.4950 C.2     1  OKH1        0.2594
     13  C13       24.2500   63.3920   14.7620 C.3     1  OKH1        0.0272
     14  O14       23.8170   66.2970   14.3980 O.2     1  OKH1       -0.2716
     15  N15       24.3960   66.2250   16.6230 N.am    1  OKH1       -0.2058
     16  C16       25.1190   67.4730   16.5390 C.3     1  OKH1        0.0954
     17  C17       21.6890   64.8370   10.3170 C.2     1  OKH1        0.3875
     18  O18       21.3140   64.0880    9.2580 O.co2   1  OKH1       -0.2406
     19  O19       22.5060   65.7390   10.0440 O.co2   1  OKH1       -0.2406
     20  C20       20.6760   62.5760   18.2170 C.ar    1  OKH1        0.0047
     21  C21       20.9350   62.3680   19.5830 C.ar    1  OKH1        0.0115
     22  C22       21.6360   63.3420   20.3240 C.ar    1  OKH1        0.0577
     23  C23       22.0410   64.5420   19.6930 C.ar    1  OKH1        0.0115
     24  C24       21.7680   64.7540   18.3330 C.ar    1  OKH1        0.0047
     25  C25       25.6960   63.8380   15.0630 C.3     1  OKH1        0.0021
     26  C26       26.7400   62.9070   14.5010 C.3     1  OKH1        0.0001
     27  C27       26.4560   61.4820   14.9060 C.3     1  OKH1        0.0000
     28  C28       25.0690   61.0650   14.4360 C.3     1  OKH1        0.0001
     29  C29       23.9680   61.9230   15.0450 C.3     1  OKH1        0.0021
     30  C30       26.6250   67.3300   16.2240 C.3     1  OKH1        0.0217
     31  C31       27.1560   68.7000   15.8620 C.3     1  OKH1        0.0018
     32  C32       26.9260   69.7050   16.9850 C.3     1  OKH1        0.0001
     33  C33       25.4700   69.7610   17.4220 C.3     1  OKH1        0.0018
     34  C34       24.8760   68.4010   17.7370 C.3     1  OKH1        0.0217
     35 CL35       21.9770   63.0450   21.9840 Cl      1  OKH1       -0.0822
@<TRIPOS>BOND
     1    18    17   ar
     2    19    17   ar
     3    17     2    1
     4     2     1    1
     5     2     3    2
     6     1     4    2
     7     3     6    1
     8     4     5    1
     9     6     5    1
    10     6     7    1
    11     5     9    2
    12    14    12    2
    13    28    27    1
    14    28    29    1
    15    26    27    1
    16    26    25    1
    17    13    29    1
    18    13    25    1
    19    13    11    1
    20     7    11    1
    21     7     8    1
    22     9     8    2
    23    12    11    1
    24    12    15   am
    25    31    30    1
    26    31    32    1
    27     8    10    1
    28    30    16    1
    29    16    15    1
    30    16    34    1
    31    32    33    1
    32    33    34    1
    33    10    20   ar
    34    10    24   ar
    35    20    21   ar
    36    24    23   ar
    37    21    22   ar
    38    23    22   ar
    39    22    35    1
