@<TRIPOS>MOLECULE
3oki_OKI_A_1.pdb
 32 36 0 0 0
SMALL
GASTEIGER

@<TRIPOS>ATOM
      1  C1        13.6490   24.9950    2.8130 C.2     2  OKI2        0.1837
      2  N2        12.8180   24.3330    3.7600 N.pl3   2  OKI2       -0.2687
      3  N3        12.9820   25.9140    2.0870 N.2     2  OKI2       -0.3893
      4  C4        12.5150   21.9900    4.3880 C.2     2  OKI2        0.2594
      5  C5        13.2440   23.3330    4.6950 C.3     2  OKI2        0.1537
      6  C6        11.5370   24.8890    3.6120 C.3     2  OKI2        0.1502
      7  C7        11.6570   25.8850    2.5620 C.2     2  OKI2        0.1328
      8  N8        12.5400   21.6090    3.0750 N.am    2  OKI2       -0.2058
      9  C9        15.0680   24.6570    2.6540 C.ar    2  OKI2        0.0440
     10  O10       11.9680   21.3130    5.2750 O.2     2  OKI2       -0.2716
     11  C11       13.0930   23.7080    6.1910 C.3     2  OKI2        0.0272
     12  C12       15.4310   23.5830    1.8340 C.ar    2  OKI2        0.0047
     13  C13       16.0590   25.3850    3.3270 C.ar    2  OKI2        0.0047
     14  C14       17.7510   23.9630    2.3380 C.ar    2  OKI2        0.0577
     15  C15       11.8750   20.4420    2.5460 C.3     2  OKI2        0.0954
     16  C16       16.7660   23.2320    1.6690 C.ar    2  OKI2        0.0115
     17  C17       17.4020   25.0390    3.1650 C.ar    2  OKI2        0.0115
     18 CL18       19.3820   23.5320    2.1340 Cl      2  OKI2       -0.0822
     19  C19       10.3130   24.6580    4.2580 C.2     2  OKI2        0.0005
     20  C20       10.5280   26.6290    2.1830 C.2     2  OKI2        0.0296
     21  C21       13.2280   25.2090    6.4020 C.3     2  OKI2        0.0021
     22  C22       14.1360   22.9560    7.0090 C.3     2  OKI2        0.0021
     23  C23       12.7620   19.7120    1.5200 C.3     2  OKI2        0.0217
     24  C24       10.5540   20.8400    1.8700 C.3     2  OKI2        0.0217
     25  C25        9.2230   25.4140    3.8550 C.2     2  OKI2       -0.0024
     26  C26        9.3310   26.3790    2.8360 C.2     2  OKI2        0.0021
     27  C27       14.0580   23.3370    8.4720 C.3     2  OKI2        0.0001
     28  C28       13.2550   25.5990    7.8690 C.3     2  OKI2        0.0001
     29  C29        9.8540   19.6150    1.3280 C.3     2  OKI2        0.0018
     30  C30       12.0570   18.5060    0.9420 C.3     2  OKI2        0.0018
     31  C31       14.2880   24.8190    8.6530 C.3     2  OKI2        0.0000
     32  C32       10.7420   18.9180    0.3180 C.3     2  OKI2        0.0001
@<TRIPOS>BOND
     1    32    30    1
     2    32    29    1
     3    30    23    1
     4    29    24    1
     5    23    15    1
     6    16    12   ar
     7    16    14   ar
     8    12     9   ar
     9    24    15    1
    10     3     7    2
    11     3     1    2
    12    18    14    1
    13    20     7    1
    14    20    26    2
    15    14    17   ar
    16    15     8    1
    17     7     6    1
    18     9     1    1
    19     9    13   ar
    20     1     2    1
    21    26    25    1
    22     8     4   am
    23    17    13   ar
    24     6     2    1
    25     6    19    1
    26     2     5    1
    27    25    19    2
    28     4     5    1
    29     4    10    2
    30     5    11    1
    31    11    21    1
    32    11    22    1
    33    21    28    1
    34    22    27    1
    35    28    31    1
    36    27    31    1
