@<TRIPOS>MOLECULE
3okj_EP9_K_1.pdb
 39 40 0 0 0
SMALL
GASTEIGER

@<TRIPOS>ATOM
      1  C15       11.4450 -137.6260   21.0180 C.2   300  EP9300      0.4218
      2  O5        11.6090 -137.1170   22.2770 O.2   300  EP9300     -0.2245
      3  O4        11.9000 -139.0310   20.9220 O.3   300  EP9300     -0.4285
      4  C16       13.1430 -139.4290   21.7080 C.3   300  EP9300      0.2368
      5  C17       13.0010 -140.9640   22.1080 C.ar  300  EP9300      0.0213
      6  C18       13.1250 -142.1070   21.1860 C.ar  300  EP9300     -0.0007
      7  C19       13.1370 -143.5390   21.7730 C.ar  300  EP9300     -0.0002
      8  C20       12.7620 -143.7840   23.1870 C.ar  300  EP9300     -0.0000
      9  C21       12.6320 -142.6040   24.0740 C.ar  300  EP9300     -0.0002
     10  C22       12.8040 -141.2420   23.5330 C.ar  300  EP9300     -0.0007
     11  N3        10.5960 -136.9200   20.1970 N.am  300  EP9300     -0.1611
     12  C14       10.0940 -137.7020   19.0730 C.3   300  EP9300      0.1761
     13  C13       11.2190 -137.7010   17.9330 C.2   300  EP9300      0.2617
     14  O6        11.6690 -136.5110   17.5830 O.2   300  EP9300     -0.2715
     15  C23        8.7820 -137.0940   18.4910 C.3   300  EP9300      0.0312
     16  C24        7.7230 -137.0130   19.6190 C.3   300  EP9300      0.0022
     17  C25        6.9830 -135.6520   19.4020 C.3   300  EP9300      0.0001
     18  C26        6.7130 -138.2010   19.5140 C.3   300  EP9300      0.0001
     19  N2        11.0480 -138.6460   16.9690 N.am  300  EP9300     -0.1963
     20  C12       11.8200 -138.6580   15.7740 C.3   300  EP9300      0.1728
     21  C11       10.7890 -138.4160   14.6850 C.2   300  EP9300      0.2612
     22  O7        10.2700 -139.4760   14.1500 O.2   300  EP9300     -0.2715
     23  C27       12.3120 -140.1760   15.8150 C.3   300  EP9300      0.0311
     24  C28       13.7650 -140.3700   15.1610 C.3   300  EP9300      0.0022
     25  C29       13.6610 -139.9950   13.5990 C.3   300  EP9300      0.0001
     26  C30       14.8160 -139.3730   15.9030 C.3   300  EP9300      0.0001
     27  C1        11.2820 -137.8760   11.5720 C.3   300  EP9300      0.1722
     28  O1        12.6420 -137.7920   12.1360 O.3   300  EP9300     -0.2213
     29  C2        11.0240 -139.3570   11.3170 C.3   300  EP9300      0.0374
     30  C3        10.2800 -137.0790   12.5980 C.3   300  EP9300      0.1299
     31  C4        10.3820 -135.5030   12.3230 C.3   300  EP9300      0.0506
     32  C5         9.2680 -134.6900   13.0990 C.ar  300  EP9300     -0.0202
     33  C6         9.1440 -133.2600   12.9100 C.ar  300  EP9300     -0.0009
     34  C7         8.0760 -132.5220   13.5930 C.ar  300  EP9300      0.0417
     35  C8         7.1540 -133.2550   14.5130 C.ar  300  EP9300      0.1957
     36  O3         6.1740 -132.5440   15.3110 O.3   300  EP9300     -0.2866
     37  C9         7.2770 -134.6740   14.6680 C.ar  300  EP9300      0.0417
     38  C10        8.2750 -135.3740   13.9410 C.ar  300  EP9300     -0.0009
     39  N1        10.6940 -137.2010   14.0640 N.am  300  EP9300     -0.2028
@<TRIPOS>BOND
     1    29    27    1
     2    27    28    1
     3    27    30    1
     4    31    30    1
     5    31    32    1
     6    30    39    1
     7    33    32   ar
     8    33    34   ar
     9    32    38   ar
    10    34    35   ar
    11    25    24    1
    12    38    37   ar
    13    39    21   am
    14    22    21    2
    15    35    37   ar
    16    35    36    1
    17    21    20    1
    18    24    23    1
    19    24    26    1
    20    20    23    1
    21    20    19    1
    22    19    13   am
    23    14    13    2
    24    13    12    1
    25    15    12    1
    26    15    16    1
    27    12    11    1
    28    17    16    1
    29    18    16    1
    30    11     1   am
    31     3     1    1
    32     3     4    1
    33     1     2    2
    34     6     7   ar
    35     6     5   ar
    36     4     5    1
    37     7     8   ar
    38     5    10   ar
    39     8     9   ar
    40    10     9   ar
