@<TRIPOS>MOLECULE
3okk_KDO_B_1.pdb
 15 15 0 0 0
SMALL
GASTEIGER

@<TRIPOS>ATOM
      1  C1        -9.1670    0.7760    0.3540 C.2   225  KDO225      0.3914
      2  O1A      -10.1990    1.4010    0.0130 O.co2 225  KDO225     -0.2430
      3  O1B       -9.0750   -0.4620    0.4940 O.co2 225  KDO225     -0.2430
      4  C2        -7.8800    1.5900    0.5520 C.3   225  KDO225      0.2204
      5  C3        -7.0350    1.3640   -0.7040 C.3   225  KDO225      0.0769
      6  C4        -5.7590    2.1920   -0.5530 C.3   225  KDO225      0.1877
      7  O4        -4.9650    2.0420   -1.7320 O.3   225  KDO225     -0.2202
      8  C5        -6.1420    3.6540   -0.4110 C.3   225  KDO225      0.2117
      9  O5        -6.8560    4.0780   -1.5690 O.3   225  KDO225     -0.2177
     10  C6        -7.0320    3.8320    0.8290 C.3   225  KDO225      0.1814
     11  O6        -8.2130    2.9870    0.7200 O.3   225  KDO225     -0.3421
     12  C7        -7.4400    5.3030    1.0050 C.3   225  KDO225      0.2142
     13  O7        -6.2590    6.1060    1.0910 O.3   225  KDO225     -0.2176
     14  C8        -8.2820    5.5300    2.2680 C.3   225  KDO225      0.2174
     15  O8        -7.5300    5.1480    3.4260 O.3   225  KDO225     -0.2175
@<TRIPOS>BOND
     1     7     6    1
     2     9     8    1
     3     5     6    1
     4     5     4    1
     5     6     8    1
     6     8    10    1
     7     2     1   ar
     8     1     3   ar
     9     1     4    1
    10     4    11    1
    11    11    10    1
    12    10    12    1
    13    12    13    1
    14    12    14    1
    15    14    15    1
