@<TRIPOS>MOLECULE
3okk_KDA_B_1.pdb
 19 19 0 0 0
SMALL
GASTEIGER

@<TRIPOS>ATOM
      1  C1        -6.1720    1.0210    6.4910 C.2   224  KDA224      0.4275
      2  O1A       -5.2350    1.8080    6.7350 O.co2 224  KDA224     -0.2389
      3  O1B       -6.3290   -0.1200    6.9790 O.co2 224  KDA224     -0.2389
      4  C2        -7.1950    1.4660    5.4560 C.3   224  KDA224      0.3269
      5  C3        -6.6390    1.1040    4.0740 C.3   224  KDA224      0.1174
      6  C4        -7.6500    1.4960    3.0050 C.3   224  KDA224      0.1914
      7  O4        -7.1080    1.1540    1.6960 O.3   224  KDA224     -0.2201
      8  C5        -8.9800    0.8010    3.3600 C.3   224  KDA224      0.2119
      9  O5        -8.8220   -0.6200    3.3010 O.3   224  KDA224     -0.2177
     10  C6        -9.4570    1.2260    4.7560 C.3   224  KDA224      0.1847
     11  O6        -8.4500    0.8500    5.7170 O.3   224  KDA224     -0.3139
     12  C7       -10.7370    0.5320    5.2470 C.3   224  KDA224      0.2144
     13  O7       -10.5490   -0.8900    5.2840 O.3   224  KDA224     -0.2176
     14  C8       -11.9370    0.8560    4.3610 C.3   224  KDA224      0.2174
     15  O8       -12.1420    2.2670    4.4080 O.3   224  KDA224     -0.2175
     16  O2        -7.4320    2.8710    5.5070 O.2   224  KDA224     -0.4461
     17  C9        -8.0050    3.3540    6.6430 C.2   224  KDA224      0.1708
     18  C10       -8.2450    4.7240    6.7030 C.2   224  KDA224      0.0143
     19  C11       -8.8270    5.3090    7.8190 C.3   224  KDA224      0.0341
@<TRIPOS>BOND
     1     7     6    1
     2     6     8    1
     3     6     5    1
     4     9     8    1
     5     8    10    1
     6     5     4    1
     7    14    15    1
     8    14    12    1
     9    10    12    1
    10    10    11    1
    11    12    13    1
    12     4    16    1
    13     4    11    1
    14     4     1    1
    15    16    17    1
    16     1     2   ar
    17     1     3   ar
    18    17    18    2
    19    18    19    1
