@<TRIPOS>MOLECULE
3okl_KDA_B_1.pdb
 19 19 0 0 0
SMALL
GASTEIGER

@<TRIPOS>ATOM
      1  C1        -5.6670   -0.0120    7.6460 C.2   215  KDA215      0.4275
      2  O1A       -6.3000   -1.0910    7.6560 O.co2 215  KDA215     -0.2389
      3  O1B       -4.8150    0.4470    8.4650 O.co2 215  KDA215     -0.2389
      4  C2        -5.9000    0.8290    6.4190 C.3   215  KDA215      0.3269
      5  C3        -4.5710    0.8920    5.6610 C.3   215  KDA215      0.1174
      6  C4        -4.7380    1.8750    4.4490 C.3   215  KDA215      0.1914
      7  O4        -3.4880    1.7820    3.7220 O.3   215  KDA215     -0.2201
      8  C5        -5.8470    1.2410    3.6290 C.3   215  KDA215      0.2119
      9  O5        -5.3380   -0.0250    3.1320 O.3   215  KDA215     -0.2177
     10  C6        -7.1380    1.1610    4.5290 C.3   215  KDA215      0.1847
     11  O6        -6.9360    0.2790    5.6570 O.3   215  KDA215     -0.3139
     12  C7        -8.3130    0.5250    3.8050 C.3   215  KDA215      0.2144
     13  O7        -7.9620   -0.8520    3.5350 O.3   215  KDA215     -0.2176
     14  C8        -8.7790    1.1850    2.5120 C.3   215  KDA215      0.2174
     15  O8        -7.7250    1.0630    1.5500 O.3   215  KDA215     -0.2175
     16  O2        -6.3060    2.1310    6.9070 O.2   215  KDA215     -0.4461
     17  C9        -7.6380    1.9520    7.5320 C.2   215  KDA215      0.1708
     18  C10       -8.1780    2.9940    8.2560 C.2   215  KDA215      0.0143
     19  C11       -7.3870    4.1460    8.3180 C.3   215  KDA215      0.0341
@<TRIPOS>BOND
     1    15    14    1
     2    14    12    1
     3     9     8    1
     4    13    12    1
     5     8     6    1
     6     8    10    1
     7     7     6    1
     8    12    10    1
     9     6     5    1
    10    10    11    1
    11    11     4    1
    12     5     4    1
    13     4    16    1
    14     4     1    1
    15    16    17    1
    16    17    18    2
    17     1     2   ar
    18     1     3   ar
    19    18    19    1
