@<TRIPOS>MOLECULE
3okl_KDO_B_1.pdb
 15 15 0 0 0
SMALL
GASTEIGER

@<TRIPOS>ATOM
      1  C1        -9.6420    0.7600    0.0080 C.2   216  KDO216      0.3914
      2  O1A       -9.5340   -0.4820    0.1260 O.co2 216  KDO216     -0.2430
      3  O1B      -10.6290    1.4210   -0.4550 O.co2 216  KDO216     -0.2430
      4  C2        -8.3750    1.5420    0.3370 C.3   216  KDO216      0.2204
      5  C3        -7.4510    1.4220   -0.9430 C.3   216  KDO216      0.0769
      6  C4        -6.1740    2.2680   -0.6800 C.3   216  KDO216      0.1877
      7  O4        -5.3290    2.1710   -1.7980 O.3   216  KDO216     -0.2202
      8  C5        -6.6090    3.6920   -0.4370 C.3   216  KDO216      0.2117
      9  O5        -7.3500    4.2010   -1.6120 O.3   216  KDO216     -0.2177
     10  C6        -7.5570    3.7110    0.8240 C.3   216  KDO216      0.1814
     11  O6        -8.7670    2.9280    0.5620 O.3   216  KDO216     -0.3421
     12  C7        -8.0060    5.1790    1.0820 C.3   216  KDO216      0.2142
     13  O7        -6.8480    5.9530    1.3620 O.3   216  KDO216     -0.2176
     14  C8        -8.9090    5.2520    2.3340 C.3   216  KDO216      0.2174
     15  O8        -8.0670    4.7320    3.4430 O.3   216  KDO216     -0.2175
@<TRIPOS>BOND
     1     7     6    1
     2     9     8    1
     3     5     6    1
     4     5     4    1
     5     6     8    1
     6     3     1   ar
     7     8    10    1
     8     1     2   ar
     9     1     4    1
    10     4    11    1
    11    11    10    1
    12    10    12    1
    13    12    13    1
    14    12    14    1
    15    14    15    1
