@<TRIPOS>MOLECULE
3okn_KDA_A_1.pdb
 18 18 0 0 0
SMALL
GASTEIGER

@<TRIPOS>ATOM
      1  C1        -6.4160    6.8890    8.2390 C.2   218  KDA218      0.4274
      2  O1A       -5.2570    6.9540    7.7260 O.co2 218  KDA218     -0.2389
      3  O1B       -7.0840    7.8220    8.7690 O.co2 218  KDA218     -0.2389
      4  C2        -7.0590    5.4810    8.2620 C.3   218  KDA218      0.3243
      5  C3        -6.5650    4.7180    7.0050 C.3   218  KDA218      0.0846
      6  C4        -7.0520    3.2750    7.0120 C.3   218  KDA218      0.0424
      7  C5        -6.4960    2.6100    8.2980 C.3   218  KDA218      0.1819
      8  O5        -5.0060    2.6260    8.2880 O.3   218  KDA218     -0.2204
      9  C6        -7.0420    3.3680    9.5380 C.3   218  KDA218      0.1821
     10  O6        -6.5970    4.7790    9.4230 O.3   218  KDA218     -0.3141
     11  C7        -6.8060    2.6370   10.8760 C.3   218  KDA218      0.2143
     12  O7        -7.1640    1.2270   10.7800 O.3   218  KDA218     -0.2176
     13  C8        -7.5640    3.3260   12.0330 C.3   218  KDA218      0.2174
     14  O8        -7.1350    4.6850   12.2320 O.3   218  KDA218     -0.2175
     15  O2        -8.5650    5.4910    8.3070 O.2   218  KDA218     -0.4462
     16  C9        -8.9490    6.1780    7.1630 C.2   218  KDA218      0.1708
     17  C10      -10.2580    6.4330    6.7460 C.2   218  KDA218      0.0143
     18  C11      -10.5320    7.1390    5.5670 C.3   218  KDA218      0.0341
@<TRIPOS>BOND
     1    18    17    1
     2    17    16    2
     3     5     6    1
     4     5     4    1
     5     6     7    1
     6    16    15    1
     7     2     1   ar
     8     1     4    1
     9     1     3   ar
    10     4    15    1
    11     4    10    1
    12     8     7    1
    13     7     9    1
    14    10     9    1
    15     9    11    1
    16    12    11    1
    17    11    13    1
    18    13    14    1
