@<TRIPOS>MOLECULE
3okn_KDO_A_1.pdb
 16 16 0 0 0
SMALL
GASTEIGER

@<TRIPOS>ATOM
      1  C1        -9.4430    0.8060    0.5080 C.2   216  KDO216      0.4179
      2  O1A       -9.4070   -0.4150    0.7720 O.co2 216  KDO216     -0.2401
      3  O1B      -10.4130    1.4300   -0.0090 O.co2 216  KDO216     -0.2401
      4  C2        -8.1010    1.6580    0.7480 C.3   216  KDO216      0.3156
      5  O2        -7.1700    1.2020    1.8200 O.3   216  KDO216     -0.1830
      6  C3        -7.2520    1.5200   -0.5380 C.3   216  KDO216      0.1064
      7  C4        -6.0170    2.4320   -0.4480 C.3   216  KDO216      0.1902
      8  O4        -5.4960    2.4420   -1.7690 O.3   216  KDO216     -0.2201
      9  C5        -6.5400    3.8510   -0.3150 C.3   216  KDO216      0.2118
     10  O5        -7.2760    4.1820   -1.5210 O.3   216  KDO216     -0.2177
     11  C6        -7.4370    4.0400    0.9250 C.3   216  KDO216      0.1838
     12  O6        -8.5500    3.0610    0.9310 O.3   216  KDO216     -0.3212
     13  C7        -8.0450    5.4700    1.1410 C.3   216  KDO216      0.2143
     14  O7        -7.1040    6.5300    0.7560 O.3   216  KDO216     -0.2176
     15  C8        -8.7340    5.7030    2.5170 C.3   216  KDO216      0.2174
     16  O8        -7.7360    5.5280    3.5430 O.3   216  KDO216     -0.2175
@<TRIPOS>BOND
     1     8     7    1
     2    10     9    1
     3     6     7    1
     4     6     4    1
     5     7     9    1
     6     9    11    1
     7     3     1   ar
     8     1     4    1
     9     1     2   ar
    10     4    12    1
    11     4     5    1
    12    14    13    1
    13    11    12    1
    14    11    13    1
    15    13    15    1
    16    15    16    1
