@<TRIPOS>MOLECULE
3oko_KDO_B_1.pdb
 15 15 0 0 0
SMALL
GASTEIGER

@<TRIPOS>ATOM
      1  C1        30.2160    0.2380    8.0990 C.2   302  KDO302      0.3914
      2  O1A       31.1880    0.9300    8.4700 O.co2 302  KDO302     -0.2430
      3  O1B       29.0630    0.2400    8.6490 O.co2 302  KDO302     -0.2430
      4  C2        30.3990   -0.6690    6.8560 C.3   302  KDO302      0.2204
      5  C3        29.0680   -0.7410    6.0940 C.3   302  KDO302      0.0769
      6  C4        29.2590   -1.6240    4.8200 C.3   302  KDO302      0.1877
      7  O4        28.0160   -1.8020    4.1420 O.3   302  KDO302     -0.2202
      8  C5        30.3770   -0.9830    3.9600 C.3   302  KDO302      0.2117
      9  O5        29.9840    0.3320    3.5340 O.3   302  KDO302     -0.2177
     10  C6        31.6440   -0.9500    4.7810 C.3   302  KDO302      0.1814
     11  O6        31.4820   -0.2140    6.0140 O.3   302  KDO302     -0.3421
     12  C7        32.8500   -0.3150    4.0170 C.3   302  KDO302      0.2142
     13  O7        32.5680    1.0610    3.8180 O.3   302  KDO302     -0.2176
     14  C8        33.1930   -0.9990    2.6830 C.3   302  KDO302      0.2174
     15  O8        32.1990   -1.0460    1.6250 O.3   302  KDO302     -0.2175
@<TRIPOS>BOND
     1    15    14    1
     2    14    12    1
     3     9     8    1
     4    13    12    1
     5     8    10    1
     6     8     6    1
     7    12    10    1
     8     7     6    1
     9    10    11    1
    10     6     5    1
    11    11     4    1
    12     5     4    1
    13     4     1    1
    14     1     2   ar
    15     1     3   ar
