@<TRIPOS>MOLECULE
3okp_GDD_A_1.pdb
 28 30 0 0 0
SMALL
GASTEIGER

@<TRIPOS>ATOM
      1  N2        11.8370    7.0740   16.7210 N.pl3 601  GDD601     -0.0226
      2  C2        10.4970    7.1680   16.9030 C.1   601  GDD601      0.2531
      3  N1         9.6630    7.0400   15.8430 N.2   601  GDD601     -0.2485
      4  N3        10.0030    7.3910   18.1430 N.2   601  GDD601     -0.3074
      5  C4         8.6620    7.4900   18.3420 C.2   601  GDD601      0.2300
      6  C5         7.7940    7.3590   17.2690 C.2   601  GDD601      0.2182
      7  C6         8.3200    7.1310   16.0020 C.1   601  GDD601      0.2372
      8  O6         7.5640    7.0080   15.0160 O.2   601  GDD601     -0.2069
      9  N7         6.5400    7.4950   17.7460 N.2   601  GDD601     -0.2322
     10  C8         6.6290    7.7030   19.0800 C.3   601  GDD601      0.2246
     11  N9         7.9230    7.6970   19.4370 N.pl3 601  GDD601     -0.2354
     12  C1'        8.4810    7.8940   20.8000 C.3   601  GDD601      0.2293
     13  C2'        8.3080    9.3370   21.2470 C.3   601  GDD601      0.2310
     14  O2'        9.3640   10.1720   20.7650 O.3   601  GDD601     -0.2158
     15  C3'        8.2970    9.2220   22.7580 C.3   601  GDD601      0.2158
     16  O3'        9.6240    9.3690   23.2770 O.3   601  GDD601     -0.2175
     17  C4'        7.7840    7.8130   23.0410 C.3   601  GDD601      0.1799
     18  O4'        7.8250    7.1030   21.7960 O.3   601  GDD601     -0.3326
     19  C5'        6.3550    7.8270   23.5810 C.3   601  GDD601      0.1813
     20  O5'        6.3480    7.8130   25.0110 O.3   601  GDD601     -0.3111
     21  PA         5.2290    8.3180   25.7850 P.3   601  GDD601      0.2231
     22  O1A        5.5670    8.3970   26.9870 O.3   601  GDD601     -0.4370
     23  O2A        4.9060    9.4650   25.3870 O.2   601  GDD601     -0.5169
     24  O3A        4.0730    7.4490   25.6640 O.3   601  GDD601     -0.2261
     25  PB         4.0820    6.0160   25.9070 P.3   601  GDD601      0.5373
     26  O2B        4.8450    5.7210   26.8520 O.3   601  GDD601     -0.1143
     27  O3B        2.9220    5.6450   26.1870 O.3   601  GDD601     -0.1143
     28  O1B        4.4980    5.3200   24.7140 O.2   601  GDD601     -0.2221
@<TRIPOS>BOND
     1     8     7    2
     2     3     7    2
     3     3     2    2
     4     7     6    1
     5     1     2    1
     6     2     4    2
     7     6     9    2
     8     6     5    1
     9     9    10    1
    10     4     5    2
    11     5    11    1
    12    10    11    1
    13    11    12    1
    14    14    13    1
    15    12    13    1
    16    12    18    1
    17    13    15    1
    18    18    17    1
    19    15    17    1
    20    15    16    1
    21    17    19    1
    22    19    20    1
    23    28    25    2
    24    20    21    1
    25    23    21    2
    26    24    21    1
    27    24    25    1
    28    21    22    1
    29    25    27    1
    30    25    26    1
