@<TRIPOS>MOLECULE
3okr_III_F_1.pdb
 35 34 0 0 0
SMALL
GASTEIGER

@<TRIPOS>ATOM
      1  N         36.5440  -36.0600   22.1640 N.3    12  UNK12      -0.1231
      2  CA        36.5090  -37.5160   22.0240 C.3    12  UNK12       0.1694
      3  C         35.6860  -37.9690   20.8140 C.2    12  UNK12       0.2592
      4  O         36.0450  -38.9580   20.1690 O.2    12  UNK12      -0.2718
      5  CB        36.0140  -38.1900   23.3090 C.3    12  UNK12       0.0304
      6  N         34.5960  -37.2620   20.5020 N.am   13  UNK13      -0.1966
      7  CA        33.7820  -37.6450   19.3440 C.3    13  UNK13       0.1728
      8  C         33.3560  -36.4750   18.4510 C.2    13  UNK13       0.2616
      9  O         32.9520  -35.4160   18.9230 O.2    13  UNK13      -0.2715
     10  CB        32.5640  -38.4810   19.7750 C.3    13  UNK13       0.0334
     11  N         33.4200  -36.6800   17.1440 N.am   14  UNK14      -0.1963
     12  CA        33.1230  -35.5960   16.2460 C.3    14  UNK14       0.1728
     13  C         32.5060  -36.0470   14.9460 C.2    14  UNK14       0.2616
     14  O         33.0620  -36.8630   14.2010 O.2    14  UNK14      -0.2715
     15  CB        34.4130  -34.7660   15.9740 C.3    14  UNK14       0.0334
     16  N         31.3580  -35.4630   14.6680 N.am   15  UNK15      -0.1963
     17  CA        30.6640  -35.6450   13.4110 C.3    15  UNK15       0.1728
     18  C         30.1230  -34.2670   13.0360 C.2    15  UNK15       0.2616
     19  O         29.4050  -33.6630   13.8200 O.2    15  UNK15      -0.2715
     20  CB        29.5320  -36.6370   13.6030 C.3    15  UNK15       0.0334
     21  N         30.4010  -33.7630   11.8440 N.am   16  UNK16      -0.1963
     22  CA        30.8480  -34.5140   10.6960 C.3    16  UNK16       0.1728
     23  C         30.4120  -33.6150    9.5860 C.2    16  UNK16       0.2616
     24  O         31.0370  -32.5870    9.2990 O.2    16  UNK16      -0.2715
     25  CB        30.0750  -35.7980   10.5660 C.3    16  UNK16       0.0334
     26  N         29.2880  -34.0270    8.9960 N.am   17  UNK17      -0.1963
     27  CA        28.5180  -33.2550    8.0260 C.3    17  UNK17       0.1728
     28  C         29.2380  -33.0800    6.7000 C.2    17  UNK17       0.2616
     29  O         29.0690  -33.8870    5.7880 O.2    17  UNK17      -0.2715
     30  CB        28.1100  -31.8950    8.6110 C.3    17  UNK17       0.0334
     31  N         30.0420  -32.0240    6.6050 N.am   18  UNK18      -0.1977
     32  CA        30.7080  -31.6730    5.3580 C.3    18  UNK18       0.1597
     33  C         32.2070  -31.4580    5.5560 C.2    18  UNK18       0.2287
     34  O         32.8930  -30.9380    4.6740 O.2    18  UNK18      -0.2864
     35  CB        30.0640  -30.4310    4.7610 C.3    18  UNK18       0.0319
@<TRIPOS>BOND
     1    34    33    2
     2    35    32    1
     3    32    33    1
     4    32    31    1
     5    29    28    2
     6    31    28   am
     7    28    27    1
     8    27    30    1
     9    27    26    1
    10    26    23   am
    11    24    23    2
    12    23    22    1
    13    25    22    1
    14    22    21    1
    15    21    18   am
    16    18    17    1
    17    18    19    2
    18    17    20    1
    19    17    16    1
    20    14    13    2
    21    16    13   am
    22    13    12    1
    23    15    12    1
    24    12    11    1
    25    11     8   am
    26     8     9    2
    27     8     7    1
    28     7    10    1
    29     7     6    1
    30     4     3    2
    31     6     3   am
    32     3     2    1
    33     2     1    1
    34     2     5    1
