@<TRIPOS>MOLECULE
3oku_VZ4_A_1.pdb
 26 29 0 0 0
SMALL
GASTEIGER

@<TRIPOS>ATOM
      1  CAA       -6.7240    4.1750   16.4140 C.3   263  VZ4263      0.0051
      2  CAB       -0.2850    8.9990   15.1130 C.3   263  VZ4263      0.0073
      3  NAC       -5.2380   -0.7320   16.1660 N.3   263  VZ4263      0.0501
      4  OAD       -0.4820   11.3020   12.9780 O.2   263  VZ4263     -0.2961
      5  OAE       -4.5650    1.4860   17.2250 O.3   263  VZ4263     -0.0428
      6  OAF       -6.8030    1.2810   16.2330 O.3   263  VZ4263     -0.0428
      7  CAG       -3.0300    2.8160   14.2230 C.ar  263  VZ4263      0.0349
      8  CAH       -4.5470    5.1080   14.2470 C.ar  263  VZ4263     -0.0058
      9  CAI       -6.5800    3.9380   14.9060 C.3   263  VZ4263      0.0295
     10  CAJ        1.0360    9.5030   12.2250 C.3   263  VZ4263      0.0645
     11  CAK       -0.9480    3.9950   13.5660 C.3   263  VZ4263      0.0261
     12  CAL        1.0410    8.0560   12.7670 C.3   263  VZ4263      0.0082
     13  CAM       -0.5400    5.2410   12.7690 C.3   263  VZ4263      0.0050
     14  CAN       -3.0080    7.7990   14.4070 C.3   263  VZ4263      0.0048
     15  CAO       -2.4230    9.1140   13.8130 C.3   263  VZ4263      0.0073
     16  OAP       -4.8470    1.3800   14.8310 O.3   263  VZ4263     -0.3472
     17  CAQ       -0.1720   10.1120   12.9560 C.2   263  VZ4263      0.1498
     18  CAR       -5.1200    3.8690   14.5660 C.ar  263  VZ4263      0.0143
     19  CAS       -2.4390    4.0490   13.9100 C.ar  263  VZ4263     -0.0231
     20  CAT       -4.3710    2.6790   14.5630 C.ar  263  VZ4263      0.1685
     21  CAU       -3.1870    5.2270   13.9430 C.ar  263  VZ4263     -0.0266
     22  CAV       -2.5400    6.5710   13.5700 C.3   263  VZ4263      0.0220
     23  CAW       -0.9870    6.4970   13.5250 C.3   263  VZ4263      0.0048
     24  CAX       -0.4780    7.7990   12.8700 C.3   263  VZ4263      0.0073
     25  CAY       -0.8970    9.0000   13.7150 C.3   263  VZ4263      0.0515
     26  SAZ       -5.3660    0.8870   16.1510 S.3   263  VZ4263      0.1232
@<TRIPOS>BOND
     1    10    12    1
     2    10    17    1
     3    12    24    1
     4    13    23    1
     5    13    11    1
     6    24    23    1
     7    24    25    1
     8    17     4    2
     9    17    25    1
    10    23    22    1
    11    11    19    1
    12    22    21    1
    13    22    14    1
    14    25    15    1
    15    25     2    1
    16    15    14    1
    17    19    21   ar
    18    19     7   ar
    19    21     8   ar
    20     7    20   ar
    21     8    18   ar
    22    20    18   ar
    23    20    16    1
    24    18     9    1
    25    16    26    1
    26     9     1    1
    27    26     3    1
    28    26     6    1
    29    26     5    1
