@<TRIPOS>MOLECULE
3okv_VZ4_A_1.pdb
 26 29 0 0 0
SMALL
GASTEIGER

@<TRIPOS>ATOM
      1  CAA       -5.2380    5.8260   15.0670 C.3   263  VZ4263      0.0051
      2  CAB       -1.2650    4.9030   10.2280 C.3   263  VZ4263      0.0073
      3  NAC       -5.4230   -0.3350   16.4610 N.3   263  VZ4263      0.0501
      4  OAD       -1.2530    5.0900    6.9310 O.2   263  VZ4263     -0.2961
      5  OAE       -5.4680    1.2950   18.3910 O.3   263  VZ4263     -0.0428
      6  OAF       -7.1130    1.6020   16.6270 O.3   263  VZ4263     -0.0428
      7  CAG       -4.0990    1.2730   14.2150 C.ar  263  VZ4263      0.0349
      8  CAH       -5.0260    3.5870   12.9930 C.ar  263  VZ4263     -0.0058
      9  CAI       -5.9500    4.4720   15.1510 C.3   263  VZ4263      0.0295
     10  CAJ       -0.1020    3.1340    7.8800 C.3   263  VZ4263      0.0645
     11  CAK       -3.1590    0.3170   12.1470 C.3   263  VZ4263      0.0261
     12  CAL       -0.5010    2.3540    9.1530 C.3   263  VZ4263      0.0082
     13  CAM       -2.5880    0.7560   10.8010 C.3   263  VZ4263      0.0050
     14  CAN       -4.1630    4.2820   10.3470 C.3   263  VZ4263      0.0048
     15  CAO       -3.4600    4.6200    9.0060 C.3   263  VZ4263      0.0073
     16  OAP       -4.8710    2.0370   16.3160 O.3   263  VZ4263     -0.3472
     17  CAQ       -1.1430    4.2610    7.8320 C.2   263  VZ4263      0.1498
     18  CAR       -5.2030    3.4020   14.3680 C.ar  263  VZ4263      0.0143
     19  CAS       -3.8940    1.4600   12.8530 C.ar  263  VZ4263     -0.0231
     20  CAT       -4.7770    2.2170   14.9520 C.ar  263  VZ4263      0.1685
     21  CAU       -4.3650    2.6170   12.2390 C.ar  263  VZ4263     -0.0266
     22  CAV       -4.0750    2.7930   10.7490 C.3   263  VZ4263      0.0220
     23  CAW       -2.6330    2.2690   10.6100 C.3   263  VZ4263      0.0048
     24  CAX       -1.9950    2.6630    9.2790 C.3   263  VZ4263      0.0073
     25  CAY       -2.0030    4.1600    9.0970 C.3   263  VZ4263      0.0515
     26  SAZ       -5.7530    1.1560   16.9260 S.3   263  VZ4263      0.1232
@<TRIPOS>BOND
     1     4    17    2
     2    17    10    1
     3    17    25    1
     4    10    12    1
     5    15    25    1
     6    15    14    1
     7    25    24    1
     8    25     2    1
     9    12    24    1
    10    24    23    1
    11    14    22    1
    12    23    22    1
    13    23    13    1
    14    22    21    1
    15    13    11    1
    16    11    19    1
    17    21    19   ar
    18    21     8   ar
    19    19     7   ar
    20     8    18   ar
    21     7    20   ar
    22    18    20   ar
    23    18     9    1
    24    20    16    1
    25     1     9    1
    26    16    26    1
    27     3    26    1
    28     6    26    1
    29    26     5    1
