@<TRIPOS>MOLECULE
3okx_SAM_A_1.pdb
 27 29 0 0 0
SMALL
GASTEIGER

@<TRIPOS>ATOM
      1  N         36.2460    1.3840   14.6640 N.3   201  SAM201     -0.1208
      2  CA        35.1400    0.8000   13.9070 C.3   201  SAM201      0.1952
      3  C         35.3750   -0.6970   13.7400 C.2   201  SAM201      0.3819
      4  O         34.4070   -1.4340   13.5920 O.co2 201  SAM201     -0.2441
      5  OXT       36.5280   -1.1620   13.7540 O.co2 201  SAM201     -0.2441
      6  CB        34.9430    1.4500   12.5450 C.3   201  SAM201      0.0414
      7  CG        36.2080    1.4340   11.6820 C.3   201  SAM201      0.0503
      8  SD        35.9740    2.2700   10.0960 S.3   201  SAM201     -0.1761
      9  CE        37.6540    2.0960    9.3890 C.3   201  SAM201      0.0590
     10  C5'       36.1020    4.0230   10.6350 C.3   201  SAM201      0.0806
     11  C4'       35.8370    4.9830    9.4630 C.3   201  SAM201      0.1622
     12  O4'       34.4750    4.9710    9.0810 O.3   201  SAM201     -0.3153
     13  C3'       36.1430    6.4550    9.7130 C.3   201  SAM201      0.2168
     14  O3'       37.5250    6.7360    9.5610 O.3   201  SAM201     -0.2175
     15  C2'       35.2820    7.1390    8.6650 C.3   201  SAM201      0.2569
     16  O2'       35.9910    7.1990    7.4470 O.3   201  SAM201     -0.2130
     17  C1'       34.1010    6.2000    8.4500 C.3   201  SAM201      0.3185
     18  N9        32.8270    6.6360    9.0820 N.pl3 201  SAM201     -0.1439
     19  C8        32.6710    7.1650   10.3430 C.3   201  SAM201      0.3377
     20  N7        31.3600    7.3950   10.5700 N.2   201  SAM201     -0.2095
     21  C5        30.6580    7.0070    9.4740 C.2   201  SAM201      0.2526
     22  C6        29.2920    7.0050    9.1760 C.2   201  SAM201      0.4393
     23  N6        28.3830    7.4640   10.0460 N.pl3 201  SAM201      0.2180
     24  N1        28.8680    6.5220    7.9540 N.2   201  SAM201      0.0021
     25  C2        29.7940    6.0570    7.0380 C.3   201  SAM201      0.5254
     26  N3        31.1420    6.0520    7.3290 N.2   201  SAM201     -0.0055
     27  C4        31.5760    6.5090    8.5390 C.2   201  SAM201      0.3518
@<TRIPOS>BOND
     1    25    26    1
     2    25    24    1
     3    26    27    2
     4    16    15    1
     5    24    22    2
     6    17    15    1
     7    17    12    1
     8    17    18    1
     9    27    18    1
    10    27    21    1
    11    15    13    1
    12    12    11    1
    13    18    19    1
    14    22    21    1
    15    22    23    1
    16     9     8    1
    17    11    13    1
    18    11    10    1
    19    21    20    2
    20    14    13    1
    21     8    10    1
    22     8     7    1
    23    19    20    1
    24     7     6    1
    25     6     2    1
    26     4     3   ar
    27     3     5   ar
    28     3     2    1
    29     2     1    1
