@<TRIPOS>MOLECULE
3ol5_SAW_A_1.pdb
 39 43 0 0 0
SMALL
GASTEIGER

@<TRIPOS>ATOM
      1  C1        -0.9300  -24.1530   22.0060 C.3   440  SAW440      0.0304
      2  C2        -1.7870  -23.9890   23.2560 C.3   440  SAW440      0.0029
      3  C3        -3.2510  -24.3150   22.9200 C.3   440  SAW440      0.0002
      4  C4        -1.2680  -24.9940   24.3060 C.3   440  SAW440      0.0088
      5  C5        -1.0990  -25.5710   21.4510 C.3   440  SAW440      0.1271
      6  C6        -2.5670  -25.8750   21.1240 C.3   440  SAW440      0.0304
      7  C7        -0.5810  -26.5780   22.4790 C.3   440  SAW440      0.0391
      8  C8        -3.4040  -25.7580   22.4020 C.3   440  SAW440      0.0029
      9  C9        -1.4040  -26.4260   23.7580 C.3   440  SAW440      0.0728
     10  C10       -2.8800  -26.7390   23.4640 C.3   440  SAW440      0.0088
     11  C11      -10.6090  -36.8430   32.3900 C.ar  440  SAW440      0.0145
     12  C12       -9.3770  -36.9060   31.7490 C.ar  440  SAW440      0.0013
     13  C13       -9.2980  -36.6460   30.3800 C.ar  440  SAW440      0.0014
     14  C14      -11.7640  -36.5100   31.6740 C.ar  440  SAW440      0.0479
     15  C15      -11.6810  -36.2460   30.2830 C.ar  440  SAW440      0.0146
     16  C16      -10.4360  -36.3170   29.6270 C.ar  440  SAW440      0.0199
     17  C17      -10.3320  -36.0480   28.2450 C.ar  440  SAW440      0.1236
     18  C18      -11.4950  -35.7320   27.5320 C.ar  440  SAW440      0.0200
     19  C19      -12.7290  -35.6530   28.1720 C.ar  440  SAW440      0.0014
     20  C20      -12.8230  -35.9080   29.5450 C.ar  440  SAW440      0.0013
     21  N21      -12.9760  -36.4830   32.4060 N.pl3 440  SAW440     -0.3041
     22  C22      -13.1120  -35.6650   33.6030 C.3   440  SAW440      0.1122
     23  C23      -14.0900  -37.3410   32.0100 C.3   440  SAW440      0.1122
     24  C24       -0.8320  -27.4240   24.7430 C.2   440  SAW440      0.2405
     25  N25       -0.9940  -28.7380   24.5050 N.am  440  SAW440     -0.2054
     26  C26       -0.4610  -29.7940   25.3750 C.3   440  SAW440      0.1151
     27  C27       -1.5170  -30.0810   26.4270 C.3   440  SAW440      0.0234
     28  C28       -2.3230  -31.2940   26.0190 C.3   440  SAW440      0.0018
     29  C29       -3.7150  -31.2280   26.6320 C.3   440  SAW440      0.0001
     30  C30       -4.6180  -32.3040   26.0450 C.3   440  SAW440      0.0000
     31  C31       -5.6230  -32.7720   27.0930 C.3   440  SAW440      0.0015
     32  C32       -6.8660  -33.3380   26.4230 C.3   440  SAW440      0.0208
     33  C33       -7.9660  -33.6390   27.4430 C.3   440  SAW440      0.1155
     34  N34       -7.8840  -35.0070   27.9210 N.3   440  SAW440     -0.0778
     35  O35       -9.2280  -36.0690   26.0320 O.2   440  SAW440     -0.1516
     36  S36       -8.9220  -36.1430   27.4360 S.O2  440  SAW440      0.0768
     37  O37       -8.3370  -37.4370   27.7300 O.2   440  SAW440     -0.1516
     38  O38       -0.1990  -27.0460   25.7150 O.2   440  SAW440     -0.2734
     39  O39       -0.3110  -25.7480   20.2790 O.3   440  SAW440     -0.2257
@<TRIPOS>BOND
     1    39     5    1
     2     6     5    1
     3     6     8    1
     4     5     1    1
     5     5     7    1
     6     1     2    1
     7     8     3    1
     8     8    10    1
     9     7     9    1
    10     3     2    1
    11     2     4    1
    12    10     9    1
    13     9     4    1
    14     9    24    1
    15    25    24   am
    16    25    26    1
    17    24    38    2
    18    26    27    1
    19    28    27    1
    20    28    29    1
    21    35    36    2
    22    30    29    1
    23    30    31    1
    24    32    31    1
    25    32    33    1
    26    36    37    2
    27    36    34    1
    28    36    17    1
    29    33    34    1
    30    18    19   ar
    31    18    17   ar
    32    19    20   ar
    33    17    16   ar
    34    20    15   ar
    35    16    15   ar
    36    16    13   ar
    37    15    14   ar
    38    13    12   ar
    39    14    11   ar
    40    14    21    1
    41    12    11   ar
    42    23    21    1
    43    21    22    1
