@<TRIPOS>MOLECULE
3ol5_HEM_A_1.pdb
 43 50 0 0 0
SMALL
GASTEIGER

@<TRIPOS>ATOM
      1  CHA        0.0740  -20.1890   21.2570 C.2   420  HEM420      0.0000
      2  CHB       -2.2940  -22.0730   17.4550 C.2   420  HEM420      0.0000
      3  CHC        1.9180  -23.3870   15.4540 C.2   420  HEM420      0.0000
      4  CHD        4.3120  -21.9590   19.4720 C.2   420  HEM420      0.0000
      5  C1A       -0.9220  -20.5700   20.3930 C.ar  420  HEM420      0.0000
      6  C2A       -2.3360  -20.2810   20.5490 C.ar  420  HEM420      0.0000
      7  C3A       -2.9770  -20.7980   19.4890 C.ar  420  HEM420      0.0000
      8  C4A       -2.0010  -21.4300   18.6340 C.ar  420  HEM420      0.0000
      9  CMA       -4.4860  -20.7390   19.1910 C.3   420  HEM420      0.0000
     10  CAA       -2.9490  -19.4480   21.7160 C.3   420  HEM420      0.0000
     11  CBA       -3.5400  -20.3390   22.8090 C.3   420  HEM420      0.0000
     12  CGA       -4.2000  -19.5570   23.9290 C.2   420  HEM420      0.0000
     13  O1A       -4.4560  -20.1820   25.0050 O.co2 420  HEM420      0.0000
     14  O2A       -4.5150  -18.3440   23.7750 O.co2 420  HEM420      0.0000
     15  C1B       -1.3620  -22.5420   16.5560 C.2   420  HEM420      0.0000
     16  C2B       -1.6540  -23.1200   15.2650 C.2   420  HEM420      0.0000
     17  C3B       -0.4780  -23.4740   14.7000 C.2   420  HEM420      0.0000
     18  C4B        0.5780  -23.1730   15.6570 C.2   420  HEM420      0.0000
     19  CMB       -3.0790  -23.2110   14.6810 C.3   420  HEM420      0.0000
     20  CAB       -0.1700  -24.1440   13.3410 C.2   420  HEM420      0.0000
     21  CBB       -1.0580  -24.2930   12.3390 C.2   420  HEM420      0.0000
     22  C1C        2.9430  -23.1140   16.3760 C.ar  420  HEM420      0.0000
     23  C2C        4.3610  -23.4190   16.2150 C.ar  420  HEM420      0.0000
     24  C3C        5.0060  -23.0670   17.3360 C.ar  420  HEM420      0.0000
     25  C4C        4.0230  -22.5030   18.2430 C.ar  420  HEM420      0.0000
     26  CMC        5.0330  -24.0440   14.9730 C.3   420  HEM420      0.0000
     27  CAC        6.5300  -23.1970   17.5680 C.2   420  HEM420      0.0000
     28  CBC        6.9580  -23.6950   18.7250 C.2   420  HEM420      0.0000
     29  C1D        3.4120  -21.2990   20.2830 C.2   420  HEM420      0.0000
     30  C2D        3.7500  -20.6580   21.5260 C.2   420  HEM420      0.0000
     31  C3D        2.4290  -20.1100   22.0740 C.2   420  HEM420      0.0000
     32  C4D        1.4160  -20.4760   21.1210 C.2   420  HEM420      0.0000
     33  CMD        5.1350  -20.5660   22.2050 C.3   420  HEM420      0.0000
     34  CAD        2.2180  -19.3650   23.4050 C.3   420  HEM420      0.0000
     35  CBD        2.2810  -17.8660   23.2800 C.3   420  HEM420      0.0000
     36  CGD        1.8960  -17.2630   24.6270 C.2   420  HEM420      0.0000
     37  O1D        2.1730  -16.0630   24.7950 O.co2 420  HEM420      0.0000
     38  O2D        1.3150  -17.9370   25.5210 O.co2 420  HEM420      0.0000
     39  NA        -0.7530  -21.2650   19.2140 N.ar  420  HEM420      0.0000
     40  NB        -0.0080  -22.6140   16.7790 N.2   420  HEM420      0.0000
     41  NC         2.7790  -22.5310   17.6150 N.ar  420  HEM420      0.0000
     42  ND         2.0370  -21.1690   20.0610 N.2   420  HEM420      0.0000
     43 FE          1.0240  -21.8360   18.3750 Fe    420  HEM420      0.0000
@<TRIPOS>BOND
     1    21    20    2
     2    20    17    1
     3    19    16    1
     4    17    16    2
     5    17    18    1
     6    26    23    1
     7    16    15    1
     8     3    18    2
     9     3    22    1
    10    18    40    1
    11    23    22   ar
    12    23    24   ar
    13    22    41   ar
    14    15    40    2
    15    15     2    1
    16    40    43    1
    17    24    27    1
    18    24    25   ar
    19     2     8    2
    20    27    28    2
    21    41    25   ar
    22    41    43    1
    23    25     4    1
    24    43    39    1
    25    43    42    1
    26     8    39   ar
    27     8     7   ar
    28     9     7    1
    29    39     5   ar
    30     4    29    2
    31     7     6   ar
    32    42    29    1
    33    42    32    2
    34    29    30    1
    35     5     6   ar
    36     5     1    2
    37     6    10    1
    38    32     1    1
    39    32    31    1
    40    30    31    2
    41    30    33    1
    42    10    11    1
    43    31    34    1
    44    11    12    1
    45    35    34    1
    46    35    36    1
    47    14    12   ar
    48    12    13   ar
    49    36    37   ar
    50    36    38   ar
