@<TRIPOS>MOLECULE
3ola_DCP_K_1.pdb
 24 25 0 0 0
SMALL
GASTEIGER

@<TRIPOS>ATOM
      1  N1        46.4130   40.8620   27.3490 N.am  4002  DCP4002    -0.1802
      2  C2        46.7290   42.1060   27.9350 C.1   4002  DCP4002     0.2756
      3  N3        46.0200   43.2260   27.6050 N.2   4002  DCP4002    -0.3024
      4  C4        45.0080   43.1680   26.7090 C.2   4002  DCP4002     0.2346
      5  C5        44.6860   41.9440   26.1260 C.2   4002  DCP4002     0.0687
      6  C6        45.4050   40.7960   26.4690 C.2   4002  DCP4002     0.0835
      7  O2        47.6790   42.1600   28.7630 O.2   4002  DCP4002    -0.1925
      8  N4        44.3090   44.2940   26.3880 N.pl3 4002  DCP4002    -0.0921
      9  C1'       47.1880   39.6690   27.7300 C.3   4002  DCP4002     0.2090
     10  C2'       46.8750   39.2350   29.1720 C.3   4002  DCP4002     0.0874
     11  C3'       46.5800   37.7530   29.0900 C.3   4002  DCP4002     0.1857
     12  C4'       46.1760   37.5550   27.6470 C.3   4002  DCP4002     0.1773
     13  O4'       46.8860   38.5500   26.8900 O.3   4002  DCP4002    -0.3339
     14  O3'       47.7770   37.0110   29.3260 O.3   4002  DCP4002    -0.2203
     15  C5'       44.7040   37.8780   27.5000 C.3   4002  DCP4002     0.1812
     16  O5'       43.8640   36.7260   27.5410 O.3   4002  DCP4002    -0.3111
     17  PA        42.2800   37.0040   27.6680 P.3   4002  DCP4002     0.2231
     18  O1A       42.0060   37.2340   29.1470 O.3   4002  DCP4002    -0.4370
     19  O2A       42.0600   38.1580   26.7100 O.2   4002  DCP4002    -0.5169
     20  O3A       41.5170   35.6280   27.1980 O.3   4002  DCP4002    -0.2261
     21  PB        39.9680   35.2230   27.6060 P.3   4002  DCP4002     0.5373
     22  O1B       39.8330   35.2240   29.1180 O.3   4002  DCP4002    -0.1143
     23  O2B       38.9830   36.0960   26.8250 O.2   4002  DCP4002    -0.2221
     24  O3B       39.7970   33.6530   27.1870 O.3   4002  DCP4002    -0.1143
@<TRIPOS>BOND
     1     5     6    2
     2     5     4    1
     3     8     4    1
     4     6     1    1
     5     4     3    2
     6    19    17    2
     7    23    21    2
     8    13    12    1
     9    13     9    1
    10    24    21    1
    11    20    21    1
    12    20    17    1
    13     1     9    1
    14     1     2   am
    15    15    16    1
    16    15    12    1
    17    16    17    1
    18     3     2    2
    19    21    22    1
    20    12    11    1
    21    17    18    1
    22     9    10    1
    23     2     7    2
    24    11    10    1
    25    11    14    1
