@<TRIPOS>MOLECULE
3olb_DCT_A_1.pdb
 27 28 0 0 0
SMALL
GASTEIGER

@<TRIPOS>ATOM
      1  N1        23.8130   14.6760  122.5020 N.am  4004  DCT4004    -0.1803
      2  C2        24.0800   15.8390  123.1080 C.1   4004  DCT4004     0.2756
      3  N3        23.3640   16.9450  122.8350 N.2   4004  DCT4004    -0.3024
      4  C4        22.3460   16.8790  121.9480 C.2   4004  DCT4004     0.2346
      5  C5        22.0580   15.6700  121.3120 C.2   4004  DCT4004     0.0687
      6  C6        22.8160   14.5470  121.6120 C.2   4004  DCT4004     0.0835
      7  O2        25.1060   15.8910  124.0010 O.2   4004  DCT4004    -0.1925
      8  N4        21.6220   17.9950  121.6770 N.pl3 4004  DCT4004    -0.0921
      9  C1'       24.6230   13.5330  122.9050 C.3   4004  DCT4004     0.2063
     10  C2'       23.9840   13.0090  124.1890 C.3   4004  DCT4004     0.0545
     11  C3'       23.4120   11.6450  123.8560 C.3   4004  DCT4004     0.0366
     12  C4'       24.1010   11.2640  122.5560 C.3   4004  DCT4004     0.1472
     13  O4'       24.5690   12.4750  121.9540 O.3   4004  DCT4004    -0.3366
     14  C5'       23.1320   10.5420  121.6210 C.3   4004  DCT4004     0.1785
     15  O5'       22.1330   11.4260  121.1130 O.3   4004  DCT4004    -0.3113
     16  PA        21.0330   10.8650  120.0770 P.3   4004  DCT4004     0.2189
     17  O1A       21.1940    9.4090  119.8520 O.3   4004  DCT4004    -0.4371
     18  O2A       21.1080   11.6830  118.6870 O.2   4004  DCT4004    -0.5170
     19  O3A       19.6630   11.2070  120.8520 O.3   4004  DCT4004    -0.2700
     20  PB        19.1310   10.3760  122.1310 P.3   4004  DCT4004     0.2277
     21  O1B       19.7540   10.9020  123.3690 O.3   4004  DCT4004    -0.4368
     22  O2B       19.3820    8.7880  121.9840 O.2   4004  DCT4004    -0.5168
     23  O3B       17.5660   10.7580  122.0410 O.3   4004  DCT4004    -0.2258
     24  PG        16.6340   10.0110  120.9530 P.3   4004  DCT4004     0.5373
     25  O1G       17.1250   10.3420  119.5920 O.2   4004  DCT4004    -0.2221
     26  O2G       16.6860    8.4210  121.2060 O.3   4004  DCT4004    -0.1143
     27  O3G       15.1060   10.5070  121.0760 O.3   4004  DCT4004    -0.1143
@<TRIPOS>BOND
     1    18    16    2
     2    25    24    2
     3    17    16    1
     4    16    19    1
     5    16    15    1
     6    19    20    1
     7    24    27    1
     8    24    26    1
     9    24    23    1
    10    15    14    1
    11     5     6    2
    12     5     4    1
    13     6     1    1
    14    14    12    1
    15     8     4    1
    16     4     3    2
    17    13    12    1
    18    13     9    1
    19    22    20    2
    20    23    20    1
    21    20    21    1
    22     1     9    1
    23     1     2   am
    24    12    11    1
    25     3     2    2
    26     9    10    1
    27     2     7    2
    28    11    10    1
