@<TRIPOS>MOLECULE
3old_GLC_A_1.pdb
 11 11 0 0 0
SMALL
GASTEIGER

@<TRIPOS>ATOM
      1  C1        15.8690  -19.1300  -28.5520 C.3   501  GLC501      0.1777
      2  C2        15.4630  -19.1880  -30.0120 C.3   501  GLC501      0.2141
      3  C3        14.8560  -20.5520  -30.3360 C.3   501  GLC501      0.2173
      4  C4        15.7780  -21.6670  -29.8450 C.3   501  GLC501      0.2142
      5  C5        16.0920  -21.4890  -28.3630 C.3   501  GLC501      0.1810
      6  C6        17.0110  -22.5370  -27.7990 C.3   501  GLC501      0.2141
      7  O2        14.5250  -18.1650  -30.2690 O.3   501  GLC501     -0.2176
      8  O3        14.6930  -20.6650  -31.7340 O.3   501  GLC501     -0.2175
      9  O4        15.1530  -22.9210  -30.0490 O.3   501  GLC501     -0.2176
     10  O5        16.7130  -20.2180  -28.1790 O.3   501  GLC501     -0.3481
     11  O6        17.9960  -22.8820  -28.7550 O.3   501  GLC501     -0.2176
@<TRIPOS>BOND
     1     8     3    1
     2     3     2    1
     3     3     4    1
     4     7     2    1
     5     9     4    1
     6     2     1    1
     7     4     5    1
     8    11     6    1
     9     1    10    1
    10     5    10    1
    11     5     6    1
