@<TRIPOS>MOLECULE
3old_ACI_A_1.pdb
 12 12 0 0 0
SMALL
GASTEIGER

@<TRIPOS>ATOM
      1  C1        10.2100  -16.4850  -21.2740 C.3   503  ACI503      0.1249
      2  C2        11.0920  -15.2570  -21.1570 C.3   503  ACI503      0.2020
      3  C3        11.7930  -15.2330  -22.5030 C.3   503  ACI503      0.2137
      4  C4        12.6210  -16.5250  -22.6690 C.3   503  ACI503      0.1872
      5  C5        12.1660  -17.7570  -21.8520 C.3   503  ACI503      0.0676
      6  C6        13.0860  -18.9890  -21.8400 C.3   503  ACI503      0.1847
      7  C7        10.9720  -17.7940  -21.1540 C.3   503  ACI503      0.0270
      8  N1         8.7550  -16.4280  -21.5640 N.3   503  ACI503     -0.1301
      9  O2        10.4270  -14.1020  -20.6140 O.3   503  ACI503     -0.2188
     10  O3        12.5600  -14.0400  -22.6870 O.3   503  ACI503     -0.2176
     11  O4        12.6380  -16.8360  -24.0570 O.3   503  ACI503     -0.2202
     12  O6        13.9270  -18.9390  -20.6870 O.3   503  ACI503     -0.2203
@<TRIPOS>BOND
     1    11     4    1
     2    10     3    1
     3     4     3    1
     4     4     5    1
     5     3     2    1
     6     5     6    1
     7     5     7    1
     8     6    12    1
     9     8     1    1
    10     1     2    1
    11     1     7    1
    12     2     9    1
