@<TRIPOS>MOLECULE
3ole_ACI_A_1.pdb
 12 12 0 0 0
SMALL
GASTEIGER

@<TRIPOS>ATOM
      1  C1        15.5080  -23.8490  -31.0090 C.3   501  ACI501      0.1462
      2  C2        14.4640  -24.8290  -31.5130 C.3   501  ACI501      0.2065
      3  C3        15.0790  -26.2070  -31.3020 C.3   501  ACI501      0.2179
      4  C4        16.3080  -26.3420  -32.2080 C.3   501  ACI501      0.2053
      5  C5        17.1060  -25.0450  -32.4600 C.2   501  ACI501      0.0180
      6  C6        18.3190  -25.1300  -33.3950 C.3   501  ACI501      0.2066
      7  C7        16.7270  -23.8190  -31.9360 C.2   501  ACI501     -0.0084
      8  N1        15.0380  -22.7610  -30.1470 N.3   501  ACI501     -0.1254
      9  O2        13.1900  -24.5230  -30.9390 O.3   501  ACI501     -0.2184
     10  O3        14.0910  -27.2210  -31.5010 O.3   501  ACI501     -0.2172
     11  O4        17.1580  -27.3680  -31.6950 O.3   501  ACI501     -0.2157
     12  O6        19.2300  -24.0330  -33.2890 O.3   501  ACI501     -0.2155
@<TRIPOS>BOND
     1     6    12    1
     2     6     5    1
     3     5     4    1
     4     5     7    2
     5     4    11    1
     6     4     3    1
     7     7     1    1
     8     2     3    1
     9     2     1    1
    10     2     9    1
    11    10     3    1
    12     1     8    1
