@<TRIPOS>MOLECULE
3ole_GLC_A_1.pdb
 11 11 0 0 0
SMALL
GASTEIGER

@<TRIPOS>ATOM
      1  C1        13.5960  -16.2490  -24.8620 C.3   503  GLC503      0.1777
      2  C2        13.0690  -16.0710  -26.2870 C.3   503  GLC503      0.2141
      3  C3        13.1700  -17.3660  -27.0980 C.3   503  GLC503      0.2173
      4  C4        14.5770  -17.9310  -26.9800 C.3   503  GLC503      0.2142
      5  C5        14.8510  -18.1860  -25.5000 C.3   503  GLC503      0.1810
      6  C6        16.1870  -18.8550  -25.2530 C.3   503  GLC503      0.2141
      7  O2        11.7130  -15.6400  -26.2400 O.3   503  GLC503     -0.2176
      8  O3        12.8840  -17.0950  -28.4610 O.3   503  GLC503     -0.2175
      9  O4        14.7070  -19.1300  -27.7420 O.3   503  GLC503     -0.2176
     10  O5        14.8590  -16.9250  -24.7960 O.3   503  GLC503     -0.3481
     11  O6        17.2550  -18.0480  -25.7210 O.3   503  GLC503     -0.2176
@<TRIPOS>BOND
     1     8     3    1
     2     9     4    1
     3     3     4    1
     4     3     2    1
     5     4     5    1
     6     2     7    1
     7     2     1    1
     8    11     6    1
     9     5     6    1
    10     5    10    1
    11     1    10    1
