@<TRIPOS>MOLECULE
3olf_OLF_A_1.pdb
 38 42 0 0 0
SMALL
GASTEIGER

@<TRIPOS>ATOM
      1  N1        12.9230   24.3670    3.4290 N.pl3   1  OLF1       -0.2536
      2  C2        13.7900   25.0590    2.6300 C.2     1  OLF1        0.1869
      3  N3        13.1910   26.0640    2.0560 N.2     1  OLF1       -0.3893
      4  C4        11.7050   24.9700    3.3190 C.2     1  OLF1        0.0822
      5  C5        11.8950   26.0530    2.4330 C.2     1  OLF1        0.1310
      6  C6        12.3470   22.0100    3.8910 C.2     1  OLF1        0.2639
      7  C7        13.2630   23.1670    4.2090 C.3     1  OLF1        0.1575
      8  C8        10.4640   24.6980    3.8690 C.2     1  OLF1        0.0488
      9  N9        11.9950   21.8630    2.5860 N.am    1  OLF1       -0.1781
     10  C10       10.8110   26.8770    2.1230 C.3     1  OLF1        0.1191
     11  C11        9.4090   25.5340    3.5580 C.2     1  OLF1        0.1650
     12  C12       11.1630   20.8480    2.0970 C.ar    1  OLF1        0.0694
     13  C13        8.5610   17.8150    0.5560 C.2     1  OLF1        0.3877
     14  C14       15.1950   24.6850    2.4710 C.ar    1  OLF1        0.0443
     15  C15        9.5880   26.5960    2.6900 C.2     1  OLF1        0.1520
     16  C16        9.4560   18.8690    1.0970 C.ar    1  OLF1        0.0795
     17  C17       10.7970   18.5690    1.3860 C.ar    1  OLF1        0.0036
     18  C18       11.6600   19.5590    1.8620 C.ar    1  OLF1       -0.0063
     19  O19       11.9280   21.2550    4.7520 O.2     1  OLF1       -0.2712
     20  O20        7.4490   18.0720    0.1490 O.co2   1  OLF1       -0.2406
     21  C21        9.8230   21.1500    1.8070 C.ar    1  OLF1        0.0165
     22  C22        8.9800   20.1680    1.3160 C.ar    1  OLF1        0.0079
     23  C23       13.7030   23.4560    5.6570 C.3     1  OLF1        0.0275
     24  C24       16.1930   25.4720    3.0540 C.ar    1  OLF1        0.0047
     25  C25       15.5260   23.4990    1.8030 C.ar    1  OLF1        0.0047
     26  F26        8.1920   25.3390    4.1000 F       1  OLF1       -0.2021
     27  F27        8.5280   27.3520    2.4190 F       1  OLF1       -0.2061
     28  O28        8.9820   16.5380    0.5130 O.co2   1  OLF1       -0.2406
     29  C29       17.8530   23.9350    2.2420 C.ar    1  OLF1        0.0577
     30  C30       17.5150   25.0980    2.9190 C.ar    1  OLF1        0.0115
     31  C31       16.8550   23.1240    1.6980 C.ar    1  OLF1        0.0115
     32 CL32       19.5310   23.4810    2.1060 Cl      1  OLF1       -0.0822
     33  C33       13.1080   19.2060    2.1710 C.3     1  OLF1        0.0324
     34  C34       13.6490   24.9290    6.0680 C.3     1  OLF1        0.0022
     35  C35       13.1480   22.5420    6.7450 C.3     1  OLF1        0.0022
     36  C36       13.9190   22.7440    8.0570 C.3     1  OLF1        0.0001
     37  C37       14.4600   25.1350    7.3620 C.3     1  OLF1        0.0001
     38  C38       13.9590   24.2160    8.4780 C.3     1  OLF1        0.0000
@<TRIPOS>BOND
     1    20    13   ar
     2    28    13   ar
     3    13    16    1
     4    16    22   ar
     5    16    17   ar
     6    22    21   ar
     7    17    18   ar
     8    31    25   ar
     9    31    29   ar
    10    25    14   ar
    11    21    12   ar
    12    18    12   ar
    13    18    33    1
    14     3     5    2
    15     3     2    2
    16    12     9    1
    17    32    29    1
    18    10     5    1
    19    10    15    1
    20    29    30   ar
    21    27    15    1
    22     5     4    1
    23    14     2    1
    24    14    24   ar
    25     9     6   am
    26     2     1    1
    27    15    11    2
    28    30    24   ar
    29     4     1    1
    30     4     8    2
    31     1     7    1
    32    11     8    1
    33    11    26    1
    34     6     7    1
    35     6    19    2
    36     7    23    1
    37    23    34    1
    38    23    35    1
    39    34    37    1
    40    35    36    1
    41    37    38    1
    42    36    38    1
