@<TRIPOS>MOLECULE
3olg_GLC_A_1.pdb
 11 11 0 0 0
SMALL
GASTEIGER

@<TRIPOS>ATOM
      1  C1        -3.8300   -7.4690   22.0230 C.3   502  GLC502      0.1777
      2  C2        -4.2800   -7.0100   23.4200 C.3   502  GLC502      0.2141
      3  C3        -4.3120   -5.4860   23.5470 C.3   502  GLC502      0.2173
      4  C4        -2.9710   -4.9430   23.0730 C.3   502  GLC502      0.2142
      5  C5        -2.7820   -5.3530   21.5930 C.3   502  GLC502      0.1810
      6  C6        -1.5400   -4.7820   20.9200 C.3   502  GLC502      0.2141
      7  O2        -5.5740   -7.5250   23.6780 O.3   502  GLC502     -0.2176
      8  O3        -4.5200   -5.1410   24.9100 O.3   502  GLC502     -0.2175
      9  O4        -2.8980   -3.5310   23.2300 O.3   502  GLC502     -0.2176
     10  O5        -2.6660   -6.7920   21.5280 O.3   502  GLC502     -0.3481
     11  O6        -0.3680   -5.1170   21.6490 O.3   502  GLC502     -0.2176
@<TRIPOS>BOND
     1     6     5    1
     2     6    11    1
     3    10     5    1
     4    10     1    1
     5     5     4    1
     6     1     2    1
     7     4     9    1
     8     4     3    1
     9     2     3    1
    10     2     7    1
    11     3     8    1
