@<TRIPOS>MOLECULE
3olg_BGC_A_1.pdb
 12 12 0 0 0
SMALL
GASTEIGER

@<TRIPOS>ATOM
      1  C2       -19.7690   -7.2680   24.6000 C.3   506  BGC506      0.2434
      2  C3       -18.7980   -6.9830   23.4630 C.3   506  BGC506      0.2199
      3  C4       -17.7020   -5.9720   23.8810 C.3   506  BGC506      0.2144
      4  C5       -17.1710   -6.1530   25.3370 C.3   506  BGC506      0.1836
      5  C6       -16.6400   -4.8510   25.9050 C.3   506  BGC506      0.2142
      6  C1       -18.9160   -7.7340   25.7630 C.3   506  BGC506      0.3024
      7  O1       -19.7000   -8.2540   26.7810 O.3   506  BGC506     -0.1869
      8  O2       -20.7020   -8.2750   24.2310 O.3   506  BGC506     -0.2148
      9  O3       -19.5050   -6.4920   22.3320 O.3   506  BGC506     -0.2174
     10  O4       -16.5870   -6.1400   22.9860 O.3   506  BGC506     -0.2176
     11  O5       -18.1980   -6.6030   26.2550 O.3   506  BGC506     -0.3236
     12  O6       -15.4550   -5.0640   26.6560 O.3   506  BGC506     -0.2176
@<TRIPOS>BOND
     1     9     2    1
     2    10     3    1
     3     2     3    1
     4     2     1    1
     5     3     4    1
     6     8     1    1
     7     1     6    1
     8     4     5    1
     9     4    11    1
    10     6    11    1
    11     6     7    1
    12     5    12    1
