@<TRIPOS>MOLECULE
3olg_HSD_A_1.pdb
 12 12 0 0 0
SMALL
GASTEIGER

@<TRIPOS>ATOM
      1  N1        -3.7590    0.4700   23.7530 N.3   500  HSD500     -0.1254
      2  C1        -3.1730    1.7890   24.0330 C.3   500  HSD500      0.1462
      3  C2        -2.1140    1.9560   25.1090 C.2   500  HSD500     -0.0084
      4  C3        -1.4260    3.1680   25.1500 C.2   500  HSD500      0.0180
      5  C4        -0.3660    3.3630   26.2310 C.3   500  HSD500      0.2066
      6  O1         0.8560    3.9980   25.8370 O.3   500  HSD500     -0.2155
      7  C5        -1.7840    4.4230   24.3560 C.3   500  HSD500      0.2053
      8  O2        -0.5380    4.8610   23.8170 O.3   500  HSD500     -0.2157
      9  C6        -2.8920    4.1680   23.3240 C.3   500  HSD500      0.2179
     10  O3        -3.5980    5.3310   22.8730 O.3   500  HSD500     -0.2172
     11  C7        -3.8440    3.1480   23.9270 C.3   500  HSD500      0.2065
     12  O4        -5.2360    3.0590   23.6050 O.3   500  HSD500     -0.2184
@<TRIPOS>BOND
     1    10     9    1
     2     9    11    1
     3     9     7    1
     4    12    11    1
     5     1     2    1
     6     8     7    1
     7    11     2    1
     8     2     3    1
     9     7     4    1
    10     3     4    2
    11     4     5    1
    12     6     5    1
