@<TRIPOS>MOLECULE
3oli_GLC_A_1.pdb
 11 11 0 0 0
SMALL
GASTEIGER

@<TRIPOS>ATOM
      1  C1        -4.0570   -7.6550   22.0060 C.3   502  GLC502      0.1777
      2  C2        -4.5070   -7.2530   23.4290 C.3   502  GLC502      0.2141
      3  C3        -4.5350   -5.7350   23.5710 C.3   502  GLC502      0.2173
      4  C4        -3.1820   -5.1720   23.1350 C.3   502  GLC502      0.2142
      5  C5        -3.0050   -5.5540   21.6760 C.3   502  GLC502      0.1810
      6  C6        -1.7760   -4.9290   21.0570 C.3   502  GLC502      0.2141
      7  O2        -5.8090   -7.7610   23.6780 O.3   502  GLC502     -0.2176
      8  O3        -4.8060   -5.3620   24.9100 O.3   502  GLC502     -0.2175
      9  O4        -3.0700   -3.7580   23.3090 O.3   502  GLC502     -0.2176
     10  O5        -2.8880   -6.9720   21.5420 O.3   502  GLC502     -0.3481
     11  O6        -0.5730   -5.3910   21.6620 O.3   502  GLC502     -0.2176
@<TRIPOS>BOND
     1     6    11    1
     2     6     5    1
     3    10     5    1
     4    10     1    1
     5     5     4    1
     6     1     2    1
     7     4     9    1
     8     4     3    1
     9     2     3    1
    10     2     7    1
    11     3     8    1
