@<TRIPOS>MOLECULE
3oli_BGC_A_1.pdb
 12 12 0 0 0
SMALL
GASTEIGER

@<TRIPOS>ATOM
      1  C2        -6.7450  -31.7780   34.7100 C.3   511  BGC511      0.2823
      2  C3        -6.4550  -33.2920   34.6020 C.3   511  BGC511      0.2270
      3  C4        -5.3360  -33.5470   33.5600 C.3   511  BGC511      0.2276
      4  C5        -4.0510  -32.7620   33.9630 C.3   511  BGC511      0.2344
      5  C6        -2.8750  -32.7490   32.9910 C.3   511  BGC511      0.2281
      6  C1        -5.4090  -31.3470   35.2670 C.2   511  BGC511      0.3505
      7  O1        -5.3700  -30.3060   36.1980 O.2   511  BGC511     -0.2472
      8  O2        -7.7980  -31.4850   35.6200 O.3   511  BGC511     -0.2082
      9  O3        -7.6020  -34.0690   34.3270 O.3   511  BGC511     -0.2169
     10  O4        -5.0630  -34.9420   33.5270 O.3   511  BGC511     -0.2163
     11  O5        -4.3580  -31.3730   34.3000 O.3   511  BGC511     -0.4450
     12  O6        -1.8590  -31.8810   33.4840 O.3   511  BGC511     -0.2163
@<TRIPOS>BOND
     1     5    12    1
     2     5     4    1
     3    10     3    1
     4     3     4    1
     5     3     2    1
     6     4    11    1
     7    11     6    1
     8     9     2    1
     9     2     1    1
    10     1     6    1
    11     1     8    1
    12     6     7    2
