@<TRIPOS>MOLECULE
3oli_HSD_A_1.pdb
 12 12 0 0 0
SMALL
GASTEIGER

@<TRIPOS>ATOM
      1  N1        -3.3140    0.3750   24.0700 N.3   500  HSD500     -0.1301
      2  C1        -3.1200    1.7530   24.5280 C.3   500  HSD500      0.1249
      3  C2        -1.7510    2.3360   24.8970 C.3   500  HSD500      0.0270
      4  C3        -1.7030    3.7180   24.8920 C.3   500  HSD500      0.0676
      5  C4        -0.3810    4.4250   25.2190 C.3   500  HSD500      0.1847
      6  O1         0.7310    3.5460   25.0240 O.3   500  HSD500     -0.2203
      7  C5        -2.9430    4.5890   24.6130 C.3   500  HSD500      0.1872
      8  O2        -2.7340    5.4130   23.4650 O.3   500  HSD500     -0.2202
      9  C6        -4.2720    3.8470   24.4410 C.3   500  HSD500      0.2137
     10  O3        -5.3910    4.6510   24.8230 O.3   500  HSD500     -0.2176
     11  C7        -4.2610    2.5170   25.1870 C.3   500  HSD500      0.2020
     12  O4        -5.4570    1.7300   25.1590 O.3   500  HSD500     -0.2188
@<TRIPOS>BOND
     1     8     7    1
     2     1     2    1
     3     9     7    1
     4     9    10    1
     5     9    11    1
     6     2     3    1
     7     2    11    1
     8     7     4    1
     9     4     3    1
    10     4     5    1
    11     6     5    1
    12    12    11    1
