@<TRIPOS>MOLECULE
3olk_AMU_C_1.pdb
 20 20 0 0 0
SMALL
GASTEIGER

@<TRIPOS>ATOM
      1  C1       -26.1660  -31.0740  -22.9190 C.3   173  AMU173      0.2916
      2  C2       -25.0570  -30.7250  -21.9200 C.3   173  AMU173      0.1839
      3  C3       -24.0440  -31.8080  -21.8850 C.3   173  AMU173      0.1735
      4  C4       -24.6130  -33.0560  -21.5850 C.3   173  AMU173      0.2103
      5  C5       -25.8030  -33.2520  -22.5290 C.3   173  AMU173      0.1834
      6  C6       -26.6200  -34.4200  -22.1140 C.3   173  AMU173      0.2142
      7  C7       -23.8740  -29.2960  -23.9300 C.2   173  AMU173      0.2420
      8  C8       -22.6030  -28.8220  -23.7930 C.3   173  AMU173      0.0964
      9  C9       -22.0660  -30.5830  -20.3930 C.3   173  AMU173      0.2178
     10  C10      -20.7120  -30.2940  -20.9480 C.2   173  AMU173      0.3913
     11  C11      -22.6840  -29.2150  -20.2580 C.3   173  AMU173      0.0444
     12  O1       -27.0820  -29.9710  -22.8870 O.3   173  AMU173     -0.1879
     13  O3       -23.0820  -31.6350  -20.7880 O.3   173  AMU173     -0.3429
     14  O4       -23.5280  -34.0590  -21.7760 O.3   173  AMU173     -0.2178
     15  O5       -26.8160  -32.2040  -22.3650 O.3   173  AMU173     -0.3242
     16  O6       -27.8320  -34.6880  -22.5810 O.3   173  AMU173     -0.2176
     17  O7       -24.6050  -29.7090  -24.6810 O.2   173  AMU173     -0.2733
     18  O10      -20.3510  -31.3930  -20.6860 O.co2 173  AMU173     -0.2430
     19  O11      -19.8990  -29.4540  -21.5900 O.co2 173  AMU173     -0.2430
     20  N2       -24.5510  -29.7370  -22.8110 N.am  173  AMU173     -0.1993
@<TRIPOS>BOND
     1    17     7    2
     2     7     8    1
     3     7    20   am
     4     1    12    1
     5     1    15    1
     6     1     2    1
     7    20     2    1
     8    16     6    1
     9     5    15    1
    10     5     6    1
    11     5     4    1
    12     2     3    1
    13     3     4    1
    14     3    13    1
    15    14     4    1
    16    19    10   ar
    17    10    18   ar
    18    10     9    1
    19    13     9    1
    20     9    11    1
