@<TRIPOS>MOLECULE
3oll_EST_A_1.pdb
 20 23 0 0 0
SMALL
GASTEIGER

@<TRIPOS>ATOM
      1  C1        -8.8100   36.9870   13.2500 C.ar  600  EST600     -0.0013
      2  C2        -7.5670   36.4120   13.4620 C.ar  600  EST600      0.0417
      3  C3        -7.3430   34.9970   13.2210 C.ar  600  EST600      0.1954
      4  O3        -6.0830   34.3740   13.4580 O.3   600  EST600     -0.2866
      5  C4        -8.4230   34.2380   12.7540 C.ar  600  EST600      0.0375
      6  C5        -9.6860   34.8010   12.5000 C.ar  600  EST600     -0.0230
      7  C6       -10.8480   33.8930   11.9920 C.3   600  EST600      0.0261
      8  C7       -12.2380   34.4910   12.2830 C.3   600  EST600      0.0050
      9  C8       -12.2450   35.9410   11.6740 C.3   600  EST600      0.0044
     10  C9       -11.2790   36.8540   12.4890 C.3   600  EST600      0.0220
     11  C10       -9.8870   36.2450   12.7520 C.ar  600  EST600     -0.0263
     12  C11      -11.2210   38.3170   11.9390 C.3   600  EST600      0.0044
     13  C12      -12.6240   39.0060   11.7800 C.3   600  EST600      0.0028
     14  C13      -13.5430   38.0660   10.9260 C.3   600  EST600      0.0282
     15  C14      -13.6180   36.6610   11.6300 C.3   600  EST600      0.0028
     16  C15      -14.7980   35.8710   10.9330 C.3   600  EST600      0.0027
     17  C16      -15.7770   37.0260   10.5690 C.3   600  EST600      0.0329
     18  C17      -15.0620   38.3330   10.9870 C.3   600  EST600      0.1519
     19  O17      -15.4180   39.4830   10.2120 O.3   600  EST600     -0.2232
     20  C18      -13.0790   37.9970    9.4150 C.3   600  EST600      0.0025
@<TRIPOS>BOND
     1    20    14    1
     2    19    18    1
     3    17    16    1
     4    17    18    1
     5    14    18    1
     6    14    15    1
     7    14    13    1
     8    16    15    1
     9    15     9    1
    10     9     8    1
    11     9    10    1
    12    13    12    1
    13    12    10    1
    14     7     8    1
    15     7     6    1
    16    10    11    1
    17     6    11   ar
    18     6     5   ar
    19    11     1   ar
    20     5     3   ar
    21     3     4    1
    22     3     2   ar
    23     1     2   ar
