@<TRIPOS>MOLECULE
3ols_EST_A_1.pdb
 20 23 0 0 0
SMALL
GASTEIGER

@<TRIPOS>ATOM
      1  C1        27.0340  -25.5440  -12.6650 C.ar  600  EST600     -0.0013
      2  C2        27.1170  -24.1890  -12.8950 C.ar  600  EST600      0.0417
      3  C3        26.0140  -23.3280  -12.6910 C.ar  600  EST600      0.1954
      4  O3        26.1580  -21.9460  -12.9420 O.3   600  EST600     -0.2866
      5  C4        24.7850  -23.8580  -12.2490 C.ar  600  EST600      0.0375
      6  C5        24.6640  -25.2150  -11.9950 C.ar  600  EST600     -0.0230
      7  C6        23.3210  -25.7680  -11.5480 C.3   600  EST600      0.0261
      8  C7        23.1850  -27.2880  -11.8340 C.3   600  EST600      0.0050
      9  C8        24.4540  -27.9580  -11.2790 C.3   600  EST600      0.0044
     10  C9        25.7250  -27.5810  -12.0380 C.3   600  EST600      0.0220
     11  C10       25.8230  -26.1060  -12.2310 C.ar  600  EST600     -0.0263
     12  C11       27.0080  -28.2110  -11.4360 C.3   600  EST600      0.0044
     13  C12       26.8990  -29.7540  -11.3000 C.3   600  EST600      0.0028
     14  C13       25.5790  -30.0760  -10.5430 C.3   600  EST600      0.0282
     15  C14       24.3850  -29.4740  -11.2560 C.3   600  EST600      0.0028
     16  C15       23.1530  -30.0660  -10.5800 C.3   600  EST600      0.0027
     17  C16       23.6770  -31.3980  -10.0090 C.3   600  EST600      0.0329
     18  C17       25.0700  -31.5150  -10.5750 C.3   600  EST600      0.1519
     19  O17       25.8020  -32.3830   -9.7290 O.3   600  EST600     -0.2232
     20  C18       25.7370  -29.5740   -9.0740 C.3   600  EST600      0.0025
@<TRIPOS>BOND
     1     4     3    1
     2     2     3   ar
     3     2     1   ar
     4     3     5   ar
     5     1    11   ar
     6     5     6   ar
     7    11    10    1
     8    11     6   ar
     9    10    12    1
    10    10     9    1
    11     6     7    1
    12     8     7    1
    13     8     9    1
    14    12    13    1
    15    13    14    1
    16     9    15    1
    17    15    16    1
    18    15    14    1
    19    16    17    1
    20    18    14    1
    21    18    17    1
    22    18    19    1
    23    14    20    1
