@<TRIPOS>MOLECULE
3olt_COH_A_1.pdb
 43 50 0 0 0
SMALL
GASTEIGER

@<TRIPOS>ATOM
      1 CO         34.4940   26.9300   73.0760 Co.oh 621  COH621      0.0000
      2  CHA       33.7950   29.6280   71.2930 C.2   621  COH621      0.0000
      3  CHB       37.0380   28.7540   74.8580 C.2   621  COH621      0.0000
      4  CHC       35.7250   24.0880   74.6370 C.2   621  COH621      0.0000
      5  CHD       31.8400   25.1710   71.9120 C.2   621  COH621      0.0000
      6  NA        35.2990   28.8720   73.1060 N.2   621  COH621      0.0000
      7  C1A       34.8260   29.8160   72.2180 C.2   621  COH621      0.0000
      8  C2A       35.6180   31.0300   72.4330 C.2   621  COH621      0.0000
      9  C3A       36.5150   30.7830   73.4100 C.2   621  COH621      0.0000
     10  C4A       36.3330   29.4130   73.8580 C.2   621  COH621      0.0000
     11  CMA       37.5590   31.7920   73.9610 C.3   621  COH621      0.0000
     12  CAA       35.4800   32.3880   71.6780 C.3   621  COH621      0.0000
     13  CBA       35.2520   32.2000   70.1730 C.3   621  COH621      0.0000
     14  CGA       36.5370   32.3000   69.3680 C.2   621  COH621      0.0000
     15  O1A       36.8690   31.3210   68.6280 O.co2 621  COH621      0.0000
     16  O2A       37.2210   33.3670   69.4460 O.co2 621  COH621      0.0000
     17  NB        36.0730   26.5300   74.5740 N.ar  621  COH621      0.0000
     18  C1B       37.0730   27.3790   75.0150 C.ar  621  COH621      0.0000
     19  C2B       38.1220   26.5610   75.6290 C.ar  621  COH621      0.0000
     20  C3B       37.7390   25.2730   75.5520 C.ar  621  COH621      0.0000
     21  C4B       36.4500   25.2360   74.8910 C.ar  621  COH621      0.0000
     22  CMB       39.4260   27.1040   76.2490 C.3   621  COH621      0.0000
     23  CAB       38.4460   23.9740   76.0180 C.2   621  COH621      0.0000
     24  CBB       39.5120   23.9140   76.8200 C.2   621  COH621      0.0000
     25  NC        33.8980   24.9620   73.2180 N.2   621  COH621      0.0000
     26  C1C       34.5210   23.9770   73.9630 C.2   621  COH621      0.0000
     27  C2C       33.6970   22.7880   73.8950 C.2   621  COH621      0.0000
     28  C3C       32.6220   23.0670   73.1420 C.2   621  COH621      0.0000
     29  C4C       32.7240   24.4550   72.6990 C.2   621  COH621      0.0000
     30  CMC       34.0150   21.4350   74.5770 C.3   621  COH621      0.0000
     31  CAC       31.4910   22.0660   72.8310 C.2   621  COH621      0.0000
     32  CBC       30.9950   21.9920   71.5990 C.2   621  COH621      0.0000
     33  ND        32.9680   27.3650   71.8090 N.ar  621  COH621      0.0000
     34  C1D       32.0660   26.4190   71.3400 C.ar  621  COH621      0.0000
     35  C2D       31.4160   26.9590   70.1660 C.ar  621  COH621      0.0000
     36  C3D       32.0360   28.3420   69.9570 C.ar  621  COH621      0.0000
     37  C4D       32.9940   28.5140   71.0410 C.ar  621  COH621      0.0000
     38  CMD       30.3450   26.2630   69.3040 C.3   621  COH621      0.0000
     39  CAD       31.6900   29.3430   68.8330 C.3   621  COH621      0.0000
     40  CBD       32.8200   29.3510   67.7970 C.3   621  COH621      0.0000
     41  CGD       32.5520   30.3530   66.6950 C.2   621  COH621      0.0000
     42  O1D       31.3630   30.7080   66.4670 O.co2 621  COH621      0.0000
     43  O2D       33.5280   30.8080   66.0400 O.co2 621  COH621      0.0000
@<TRIPOS>BOND
     1    43    41   ar
     2    42    41   ar
     3    41    40    1
     4    40    39    1
     5    15    14   ar
     6    39    36    1
     7    38    35    1
     8    14    16   ar
     9    14    13    1
    10    36    35   ar
    11    36    37   ar
    12    35    34   ar
    13    13    12    1
    14    37     2    2
    15    37    33   ar
    16     2     7    1
    17    34    33   ar
    18    34     5    2
    19    32    31    2
    20    12     8    1
    21    33     1    1
    22     5    29    1
    23     7     8    1
    24     7     6    2
    25     8     9    2
    26    29    28    1
    27    29    25    2
    28    31    28    1
    29     1     6    1
    30     1    25    1
    31     1    17    1
    32     6    10    1
    33    28    27    2
    34    25    26    1
    35     9    10    1
    36     9    11    1
    37    10     3    2
    38    27    26    1
    39    27    30    1
    40    26     4    2
    41    17    21   ar
    42    17    18   ar
    43     4    21    1
    44     3    18    1
    45    21    20   ar
    46    18    19   ar
    47    20    19   ar
    48    20    23    1
    49    19    22    1
    50    23    24    2
