@<TRIPOS>MOLECULE
3olt_ACD_A_1.pdb
 22 21 0 0 0
SMALL
GASTEIGER

@<TRIPOS>ATOM
      1  C1        25.7030   17.4840   65.5140 C.2   620  ACD620      0.3649
      2  C2        25.0200   16.6410   66.5870 C.3   620  ACD620      0.1144
      3  C3        24.6220   17.3680   67.8700 C.3   620  ACD620      0.0165
      4  C4        23.2690   18.0640   67.7530 C.3   620  ACD620      0.0263
      5  C5        23.0330   18.9460   68.9560 C.2   620  ACD620     -0.0304
      6  C6        22.0020   18.7340   69.7790 C.2   620  ACD620     -0.0260
      7  C7        20.9990   17.6170   69.5770 C.3   620  ACD620      0.0513
      8  C8        21.0950   16.6600   70.7400 C.2   620  ACD620     -0.0257
      9  C9        20.8520   15.3410   70.6970 C.2   620  ACD620     -0.0257
     10  C10       20.3960   14.5830   69.4830 C.3   620  ACD620      0.0513
     11  C11       19.2310   13.7410   69.9720 C.2   620  ACD620     -0.0257
     12  C12       18.5210   12.9400   69.1750 C.2   620  ACD620     -0.0257
     13  C13       18.8930   12.8360   67.7220 C.3   620  ACD620      0.0513
     14  C14       17.7970   12.2060   66.9080 C.2   620  ACD620     -0.0260
     15  C15       17.9760   12.1200   65.5960 C.2   620  ACD620     -0.0304
     16  C16       19.2530   12.6410   64.9840 C.3   620  ACD620      0.0257
     17  C17       19.1770   12.5860   63.4640 C.3   620  ACD620      0.0047
     18  C18       20.4400   13.1910   62.8670 C.3   620  ACD620      0.0003
     19  C19       21.3080   12.0960   62.2730 C.3   620  ACD620      0.0000
     20  C20       21.3150   12.1730   60.7670 C.3   620  ACD620      0.0000
     21  O1        25.2780   17.4170   64.3340 O.co2 620  ACD620     -0.2457
     22  O2        26.6800   18.2100   65.8080 O.co2 620  ACD620     -0.2457
@<TRIPOS>BOND
     1    20    19    1
     2    19    18    1
     3    18    17    1
     4    17    16    1
     5    21     1   ar
     6    16    15    1
     7     1    22   ar
     8     1     2    1
     9    15    14    2
    10     2     3    1
    11    14    13    1
    12    13    12    1
    13     4     3    1
    14     4     5    1
    15     5     6    2
    16    12    11    2
    17    10    11    1
    18    10     9    1
    19     7     6    1
    20     7     8    1
    21     9     8    2
