@<TRIPOS>MOLECULE
3olu_1AG_A_1.pdb
 27 26 0 0 0
SMALL
GASTEIGER

@<TRIPOS>ATOM
      1  C01       19.6540   13.4550   68.8380 C.2   619  1AG619      0.3171
      2  O01       18.8020   12.6450   68.3940 O.3   619  1AG619     -0.4456
      3  C02       19.6480   13.6480   70.3710 C.3   619  1AG619      0.1099
      4  C03       20.6870   14.6070   70.9920 C.3   619  1AG619      0.0163
      5  O03       20.4910   14.0910   68.1460 O.2   619  1AG619     -0.2501
      6  C04       21.4850   15.4280   69.9870 C.3   619  1AG619      0.0263
      7  C05       20.5790   16.4820   69.3580 C.2   619  1AG619     -0.0304
      8  C06       20.8080   17.7760   69.5160 C.2   619  1AG619     -0.0260
      9  C07       22.0190   18.2620   70.2920 C.3   619  1AG619      0.0513
     10  C08       22.7930   19.2530   69.4240 C.2   619  1AG619     -0.0257
     11  C09       23.1590   19.0310   68.1670 C.2   619  1AG619     -0.0257
     12  C10       22.7760   17.7680   67.4020 C.3   619  1AG619      0.0513
     13  C11       23.7110   16.6130   67.7160 C.2   619  1AG619     -0.0257
     14  C12       24.9170   16.5210   67.1810 C.2   619  1AG619     -0.0257
     15  C13       25.4850   17.5380   66.1960 C.3   619  1AG619      0.0513
     16  C14       26.3490   16.7350   65.2460 C.2   619  1AG619     -0.0260
     17  C15       26.5090   16.9970   63.9630 C.2   619  1AG619     -0.0304
     18  C16       25.9750   18.2050   63.2050 C.3   619  1AG619      0.0257
     19  C17       26.4730   18.0990   61.7640 C.3   619  1AG619      0.0047
     20  C18       25.6190   18.8610   60.8080 C.3   619  1AG619      0.0003
     21  C19       26.5230   19.6140   59.8600 C.3   619  1AG619      0.0000
     22  C20       26.3480   21.0970   60.0670 C.3   619  1AG619      0.0000
     23  C21       17.8420   13.0310   67.6970 C.3   619  1AG619      0.2438
     24  C22       17.5220   11.9980   66.6250 C.3   619  1AG619      0.2281
     25  C23       18.8000   11.4370   66.0080 C.3   619  1AG619      0.2187
     26  O26       16.7890   12.5150   65.7500 O.3   619  1AG619     -0.2163
     27  O27       19.2610   12.2350   65.1660 O.3   619  1AG619     -0.2174
@<TRIPOS>BOND
     1    21    22    1
     2    21    20    1
     3    20    19    1
     4    19    18    1
     5    18    17    1
     6    17    16    2
     7    27    25    1
     8    16    15    1
     9    26    24    1
    10    25    24    1
    11    15    14    1
    12    24    23    1
    13    14    13    2
    14    12    13    1
    15    12    11    1
    16    23     2    1
    17     5     1    2
    18    11    10    2
    19     2     1    1
    20     1     3    1
    21     7     8    2
    22     7     6    1
    23    10     9    1
    24     8     9    1
    25     6     4    1
    26     3     4    1
