@<TRIPOS>MOLECULE
3olu_COH_A_1.pdb
 43 50 0 0 0
SMALL
GASTEIGER

@<TRIPOS>ATOM
      1 CO         34.5850   26.8070   72.7970 Co.oh 620  COH620      0.0000
      2  CHA       33.9060   29.4300   70.8870 C.2   620  COH620      0.0000
      3  CHB       37.2100   28.6360   74.3930 C.2   620  COH620      0.0000
      4  CHC       35.8520   24.0050   74.3830 C.2   620  COH620      0.0000
      5  CHD       32.0160   24.9910   71.5800 C.2   620  COH620      0.0000
      6  NA        35.4740   28.6840   72.6220 N.2   620  COH620      0.0000
      7  C1A       34.8820   29.6610   71.8600 C.2   620  COH620      0.0000
      8  C2A       35.4940   30.9360   72.2360 C.2   620  COH620      0.0000
      9  C3A       36.4000   30.6920   73.1950 C.2   620  COH620      0.0000
     10  C4A       36.4110   29.2720   73.4580 C.2   620  COH620      0.0000
     11  CMA       37.3080   31.7190   73.9240 C.3   620  COH620      0.0000
     12  CAA       35.1700   32.3480   71.6820 C.3   620  COH620      0.0000
     13  CBA       35.1180   32.4170   70.1570 C.3   620  COH620      0.0000
     14  CGA       36.5100   32.3870   69.5650 C.2   620  COH620      0.0000
     15  O1A       36.8730   31.3220   68.9760 O.co2 620  COH620      0.0000
     16  O2A       37.2470   33.4150   69.6730 O.co2 620  COH620      0.0000
     17  NB        36.2360   26.4260   74.1900 N.ar  620  COH620      0.0000
     18  C1B       37.2170   27.2800   74.6340 C.ar  620  COH620      0.0000
     19  C2B       38.2200   26.4960   75.3480 C.ar  620  COH620      0.0000
     20  C3B       37.8340   25.2220   75.3200 C.ar  620  COH620      0.0000
     21  C4B       36.5800   25.1580   74.5980 C.ar  620  COH620      0.0000
     22  CMB       39.4960   27.0400   76.0110 C.3   620  COH620      0.0000
     23  CAB       38.5150   23.9780   75.9390 C.2   620  COH620      0.0000
     24  CBB       39.8400   23.8520   76.0070 C.2   620  COH620      0.0000
     25  NC        34.0550   24.8420   72.9300 N.2   620  COH620      0.0000
     26  C1C       34.6730   23.8720   73.6910 C.2   620  COH620      0.0000
     27  C2C       33.8720   22.6660   73.6240 C.2   620  COH620      0.0000
     28  C3C       32.8060   22.9120   72.8430 C.2   620  COH620      0.0000
     29  C4C       32.9030   24.3000   72.3870 C.2   620  COH620      0.0000
     30  CMC       34.2160   21.3370   74.3230 C.3   620  COH620      0.0000
     31  CAC       31.7060   21.8780   72.5210 C.2   620  COH620      0.0000
     32  CBC       31.1010   21.8310   71.3400 C.2   620  COH620      0.0000
     33  ND        33.1290   27.1780   71.4250 N.ar  620  COH620      0.0000
     34  C1D       32.1910   26.2420   71.0180 C.ar  620  COH620      0.0000
     35  C2D       31.4450   26.7860   69.9080 C.ar  620  COH620      0.0000
     36  C3D       32.0440   28.1760   69.6730 C.ar  620  COH620      0.0000
     37  C4D       33.0870   28.3270   70.6800 C.ar  620  COH620      0.0000
     38  CMD       30.2930   26.1070   69.1210 C.3   620  COH620      0.0000
     39  CAD       31.6090   29.1910   68.5920 C.3   620  COH620      0.0000
     40  CBD       32.6280   29.1030   67.4570 C.3   620  COH620      0.0000
     41  CGD       32.4980   30.2200   66.4470 C.2   620  COH620      0.0000
     42  O1D       31.4240   30.8680   66.3850 O.co2 620  COH620      0.0000
     43  O2D       33.4720   30.4810   65.7040 O.co2 620  COH620      0.0000
@<TRIPOS>BOND
     1    43    41   ar
     2    42    41   ar
     3    41    40    1
     4    40    39    1
     5    39    36    1
     6    15    14   ar
     7    38    35    1
     8    14    16   ar
     9    14    13    1
    10    36    35   ar
    11    36    37   ar
    12    35    34   ar
    13    13    12    1
    14    37     2    2
    15    37    33   ar
    16     2     7    1
    17    34    33   ar
    18    34     5    2
    19    32    31    2
    20    33     1    1
    21     5    29    1
    22    12     8    1
    23     7     8    1
    24     7     6    2
    25     8     9    2
    26    29    28    1
    27    29    25    2
    28    31    28    1
    29     6     1    1
    30     6    10    1
    31     1    25    1
    32     1    17    1
    33    28    27    2
    34    25    26    1
    35     9    10    1
    36     9    11    1
    37    10     3    2
    38    27    26    1
    39    27    30    1
    40    26     4    2
    41    17    21   ar
    42    17    18   ar
    43     4    21    1
    44     3    18    1
    45    21    20   ar
    46    18    19   ar
    47    20    19   ar
    48    20    23    1
    49    19    22    1
    50    23    24    2
