@<TRIPOS>MOLECULE
3om3_DMU_A_1.pdb
 22 22 0 0 0
SMALL
GASTEIGER

@<TRIPOS>ATOM
      1  C1        -5.3380  -46.9380   -8.1460 C.3   1005  DMU1005     0.2406
      2  C2        -4.6730  -48.2460   -7.7130 C.3   1005  DMU1005     0.2198
      3  C3        -3.2900  -47.9750   -7.1240 C.3   1005  DMU1005     0.2144
      4  C4        -3.4720  -47.0080   -5.9530 C.3   1005  DMU1005     0.1835
      5  O5        -4.1090  -45.7920   -6.4110 O.3   1005  DMU1005    -0.3256
      6  C6        -5.4280  -45.9780   -6.9620 C.3   1005  DMU1005     0.2695
      7  O7        -2.6890  -49.2190   -6.7110 O.3   1005  DMU1005    -0.2176
      8  O16       -5.9640  -44.7140   -7.3530 O.3   1005  DMU1005    -0.3286
      9  C18       -7.0060  -44.2800   -6.4720 C.3   1005  DMU1005     0.1449
     10  C19       -7.4480  -42.8480   -6.7830 C.3   1005  DMU1005     0.0322
     11  C22       -8.1610  -42.2020   -5.5930 C.3   1005  DMU1005     0.0026
     12  C25       -8.6650  -40.8020   -5.9360 C.3   1005  DMU1005     0.0001
     13  C28       -9.6110  -40.2590   -4.8740 C.3   1005  DMU1005     0.0000
     14  C31       -9.7850  -38.7510   -5.0150 C.3   1005  DMU1005     0.0000
     15  C34      -10.7110  -38.1930   -3.9340 C.3   1005  DMU1005     0.0000
     16  C37      -11.7810  -37.2480   -4.4860 C.3   1005  DMU1005     0.0000
     17  C40      -13.0220  -37.2310   -3.5880 C.3   1005  DMU1005     0.0000
     18  C43      -14.3040  -36.9510   -4.3540 C.3   1005  DMU1005     0.0000
     19  O49       -6.6460  -47.2370   -8.5960 O.3   1005  DMU1005    -0.2149
     20  O55       -4.5570  -49.1350   -8.8140 O.3   1005  DMU1005    -0.2174
     21  C57       -2.1810  -46.6560   -5.2280 C.3   1005  DMU1005     0.2142
     22  O61       -2.4820  -45.6750   -4.2490 O.3   1005  DMU1005    -0.2176
@<TRIPOS>BOND
     1    20     2    1
     2    19     1    1
     3     1     2    1
     4     1     6    1
     5     2     3    1
     6     8     6    1
     7     8     9    1
     8     3     7    1
     9     3     4    1
    10     6     5    1
    11    10     9    1
    12    10    11    1
    13     5     4    1
    14     4    21    1
    15    12    11    1
    16    12    13    1
    17    21    22    1
    18    14    13    1
    19    14    15    1
    20    16    15    1
    21    16    17    1
    22    18    17    1
