@<TRIPOS>MOLECULE
3om9_NAD_A_1.pdb
 44 48 0 0 0
SMALL
GASTEIGER

@<TRIPOS>ATOM
      1  PA         3.3340   16.7150   85.6920 P.3   701  NAD701      0.2189
      2  O1A        2.4140   15.7290   86.0950 O.2   701  NAD701     -0.5170
      3  O2A        3.9070   17.6230   86.7470 O.3   701  NAD701     -0.4371
      4  O5B        4.5110   15.9770   84.9190 O.3   701  NAD701     -0.3112
      5  C5B        5.6380   16.7340   84.4540 C.3   701  NAD701      0.1813
      6  C4B        6.7530   15.6580   84.5420 C.3   701  NAD701      0.1821
      7  O4B        7.9330   16.3020   83.9200 O.3   701  NAD701     -0.3135
      8  C3B        7.2590   15.3450   85.9880 C.3   701  NAD701      0.2184
      9  O3B        7.1350   13.9320   86.1440 O.3   701  NAD701     -0.2174
     10  C2B        8.7040   15.8110   85.9920 C.3   701  NAD701      0.2570
     11  O2B        9.6000   15.0480   86.7860 O.3   701  NAD701     -0.2130
     12  C1B        9.0680   15.7350   84.4920 C.3   701  NAD701      0.3186
     13  N9A       10.2590   16.5010   84.2310 N.pl3 701  NAD701     -0.1439
     14  C8A       10.6970   17.7190   84.7210 C.3   701  NAD701      0.3377
     15  N7A       11.8600   18.1020   84.2410 N.2   701  NAD701     -0.2095
     16  C5A       12.2000   17.0690   83.3820 C.2   701  NAD701      0.2526
     17  C6A       13.3340   16.9170   82.5850 C.2   701  NAD701      0.4393
     18  N6A       14.3710   17.7770   82.4890 N.pl3 701  NAD701      0.2180
     19  N1A       13.4140   15.7500   81.8020 N.2   701  NAD701      0.0021
     20  C2A       12.3900   14.7820   81.8290 C.3   701  NAD701      0.5254
     21  N3A       11.2540   14.9130   82.6160 N.2   701  NAD701     -0.0055
     22  C4A       11.2070   16.0760   83.3740 C.2   701  NAD701      0.3518
     23  O3         2.6760   17.6190   84.5920 O.3   701  NAD701     -0.2703
     24  PN         1.6480   17.3290   83.4360 P.3   701  NAD701      0.2189
     25  O1N        0.2700   17.4720   83.9330 O.3   701  NAD701     -0.4371
     26  O2N        2.0300   16.0170   82.8860 O.2   701  NAD701     -0.5170
     27  O5D        1.9380   18.5270   82.4460 O.3   701  NAD701     -0.3112
     28  C5D        3.2460   18.5920   81.7950 C.3   701  NAD701      0.1813
     29  C4D        3.3530   19.8850   81.0250 C.3   701  NAD701      0.1799
     30  O4D        2.2700   19.9790   80.0790 O.3   701  NAD701     -0.3327
     31  C3D        3.2620   21.1910   81.8790 C.3   701  NAD701      0.2158
     32  O3D        4.3380   22.0760   81.5110 O.3   701  NAD701     -0.2175
     33  C2D        1.8970   21.7470   81.5200 C.3   701  NAD701      0.2309
     34  O2D        1.8150   23.1490   81.6800 O.3   701  NAD701     -0.2158
     35  C1D        1.7690   21.3390   80.1090 C.3   701  NAD701      0.2263
     36  N1N        0.4150   21.2130   79.5340 N.pl3 701  NAD701     -0.2787
     37  C2N        0.1220   21.7220   78.2580 C.3   701  NAD701      0.1244
     38  C3N       -1.1550   21.5710   77.7590 C.2   701  NAD701      0.0544
     39  C7N       -1.4500   22.1150   76.3700 C.2   701  NAD701      0.2818
     40  O7N       -2.6110   22.2590   76.0830 O.2   701  NAD701     -0.2670
     41  N7N       -0.4760   22.3950   75.5400 N.am  701  NAD701     -0.0839
     42  C4N       -2.2080   20.8960   78.5260 C.2   701  NAD701      0.0033
     43  C5N       -1.8730   20.3940   79.8180 C.2   701  NAD701      0.0157
     44  C6N       -0.5590   20.5400   80.3470 C.2   701  NAD701      0.0633
@<TRIPOS>BOND
     1    41    39   am
     2    40    39    2
     3    39    38    1
     4    38    37    1
     5    38    42    2
     6    37    36    1
     7    42    43    1
     8    36    35    1
     9    36    44    1
    10    43    44    2
    11    30    35    1
    12    30    29    1
    13    35    33    1
    14    29    28    1
    15    29    31    1
    16    32    31    1
    17    33    34    1
    18    33    31    1
    19    28    27    1
    20    19    20    1
    21    19    17    2
    22    20    21    1
    23    27    24    1
    24    18    17    1
    25    17    16    1
    26    21    22    2
    27    26    24    2
    28    22    16    1
    29    22    13    1
    30    16    15    2
    31    24    25    1
    32    24    23    1
    33     7    12    1
    34     7     6    1
    35    13    12    1
    36    13    14    1
    37    15    14    1
    38     5     6    1
    39     5     4    1
    40    12    10    1
    41     6     8    1
    42    23     1    1
    43     4     1    1
    44     1     2    2
    45     1     3    1
    46     8    10    1
    47     8     9    1
    48    10    11    1
