@<TRIPOS>MOLECULE
3oma_DMU_A_1.pdb
 22 22 0 0 0
SMALL
GASTEIGER

@<TRIPOS>ATOM
      1  C1        -5.0790  -46.6700   -8.2560 C.3   1005  DMU1005     0.2406
      2  C2        -4.3180  -47.9410   -7.8690 C.3   1005  DMU1005     0.2198
      3  C3        -2.9530  -47.6090   -7.2660 C.3   1005  DMU1005     0.2144
      4  C4        -3.1470  -46.6480   -6.0940 C.3   1005  DMU1005     0.1835
      5  O5        -3.8780  -45.4740   -6.5150 O.3   1005  DMU1005    -0.3256
      6  C6        -5.1900  -45.7140   -7.0630 C.3   1005  DMU1005     0.2695
      7  O7        -2.3300  -48.8200   -6.8060 O.3   1005  DMU1005    -0.2176
      8  O16       -5.7280  -44.4430   -7.4430 O.3   1005  DMU1005    -0.3286
      9  C18       -6.7430  -44.0030   -6.5360 C.3   1005  DMU1005     0.1449
     10  C19       -6.7830  -42.4790   -6.4370 C.3   1005  DMU1005     0.0322
     11  C22       -8.1310  -42.0130   -5.8990 C.3   1005  DMU1005     0.0026
     12  C25       -8.3380  -40.5160   -6.0980 C.3   1005  DMU1005     0.0001
     13  C28       -9.1980  -39.9230   -4.9840 C.3   1005  DMU1005     0.0000
     14  C31       -9.5540  -38.4650   -5.2460 C.3   1005  DMU1005     0.0000
     15  C34      -10.4490  -37.9150   -4.1360 C.3   1005  DMU1005     0.0000
     16  C37      -11.6520  -37.1500   -4.6760 C.3   1005  DMU1005     0.0000
     17  C40      -12.8140  -37.1470   -3.6840 C.3   1005  DMU1005     0.0000
     18  C43      -14.0600  -36.4820   -4.2490 C.3   1005  DMU1005     0.0000
     19  O49       -6.3740  -47.0640   -8.6850 O.3   1005  DMU1005    -0.2149
     20  O55       -4.1290  -48.7670   -9.0070 O.3   1005  DMU1005    -0.2174
     21  C57       -1.8320  -46.2210   -5.4530 C.3   1005  DMU1005     0.2142
     22  O61       -2.1220  -45.7090   -4.1680 O.3   1005  DMU1005    -0.2176
@<TRIPOS>BOND
     1    20     2    1
     2    19     1    1
     3     1     2    1
     4     1     6    1
     5     2     3    1
     6     8     6    1
     7     8     9    1
     8     3     7    1
     9     3     4    1
    10     6     5    1
    11     9    10    1
    12     5     4    1
    13    10    11    1
    14    12    11    1
    15    12    13    1
    16     4    21    1
    17    21    22    1
    18    14    13    1
    19    14    15    1
    20    16    15    1
    21    16    17    1
    22    18    17    1
