@<TRIPOS>MOLECULE
3omc_ARG_D_1.pdb
 13 12 0 0 0
SMALL
GASTEIGER

@<TRIPOS>ATOM
      1  N         15.5650   -6.4730   47.6550 N.3     3  ARG3       -0.1245
      2  CA        14.1240   -6.7590   47.3750 C.3     3  ARG3        0.1563
      3  CB        13.2960   -6.4020   48.6080 C.3     3  ARG3        0.0307
      4  CG        11.7920   -6.4730   48.3480 C.3     3  ARG3        0.0489
      5  CD        11.0250   -6.6470   49.6530 C.3     3  ARG3        0.2202
      6  NE         9.6480   -6.2020   49.5350 N.pl3   3  ARG3       -0.0923
      7  CZ         8.7550   -6.3230   50.5310 C.cat   3  ARG3        0.4545
      8  NH1        9.0960   -6.8370   51.6450 N.pl3   3  ARG3       -0.0883
      9  CQ1        8.2720   -7.0560   52.8190 C.3     3  ARG3        0.2668
     10  NH2        7.5110   -5.8760   50.3520 N.pl3   3  ARG3       -0.0883
     11  CQ2        7.0520   -5.2950   49.0980 C.3     3  ARG3        0.2668
     12  C         13.6590   -5.9720   46.1800 C.2     3  ARG3        0.2260
     13  O         14.1330   -6.1510   45.0520 O.2     3  ARG3       -0.2867
@<TRIPOS>BOND
     1    13    12    2
     2    12     2    1
     3     2     1    1
     4     2     3    1
     5     4     3    1
     6     4     5    1
     7    11    10    1
     8     6     5    1
     9     6     7    1
    10    10     7    1
    11     7     8    2
    12     8     9    1
