@<TRIPOS>MOLECULE
3omf_AMP_A_1.pdb
 23 25 0 0 0
SMALL
GASTEIGER

@<TRIPOS>ATOM
      1  P          1.7040    2.3450  -10.2850 P.3   115  AMP115      0.5327
      2  O1P        2.4580    2.0540  -11.5630 O.2   115  AMP115     -0.2224
      3  O2P        0.2850    1.8540  -10.2720 O.3   115  AMP115     -0.1145
      4  O3P        2.4490    1.9740   -9.0110 O.3   115  AMP115     -0.1145
      5  O5'        1.6470    3.9200  -10.0590 O.3   115  AMP115     -0.2675
      6  C5'        1.6840    4.8380  -11.1380 C.3   115  AMP115      0.1860
      7  C4'        1.2870    6.1510  -10.5300 C.3   115  AMP115      0.1823
      8  O4'        1.7790    7.1730  -11.3760 O.3   115  AMP115     -0.3135
      9  C3'       -0.2240    6.3180  -10.3880 C.3   115  AMP115      0.2184
     10  O3'       -0.5560    6.6860   -9.0440 O.3   115  AMP115     -0.2174
     11  C2'       -0.5490    7.4210  -11.3850 C.3   115  AMP115      0.2570
     12  O2'       -1.6340    8.2590  -10.9670 O.3   115  AMP115     -0.2130
     13  C1'        0.7760    8.1790  -11.4340 C.3   115  AMP115      0.3186
     14  N9         1.0240    8.9510  -12.6630 N.pl3 115  AMP115     -0.1439
     15  C8         0.8700    8.4610  -13.9090 C.3   115  AMP115      0.3377
     16  N7         1.1980    9.3930  -14.8300 N.2   115  AMP115     -0.2095
     17  C5         1.5770   10.4860  -14.1560 C.2   115  AMP115      0.2526
     18  C6         2.0260   11.8130  -14.5380 C.2   115  AMP115      0.4393
     19  N6         2.1410   12.1300  -15.8510 N.pl3 115  AMP115      0.2180
     20  N1         2.3390   12.6720  -13.5290 N.2   115  AMP115      0.0021
     21  C2         2.2310   12.3530  -12.2250 C.3   115  AMP115      0.5254
     22  N3         1.7980   11.1560  -11.8030 N.2   115  AMP115     -0.0055
     23  C4         1.4710   10.1960  -12.7130 C.2   115  AMP115      0.3518
@<TRIPOS>BOND
     1    19    18    1
     2    16    17    2
     3    16    15    1
     4    18    17    1
     5    18    20    2
     6    17    23    1
     7    15    14    1
     8    20    21    1
     9    23    14    1
    10    23    22    2
    11    14    13    1
    12    21    22    1
    13     2     1    2
    14    13    11    1
    15    13     8    1
    16    11    12    1
    17    11     9    1
    18     8     7    1
    19     6     7    1
    20     6     5    1
    21     7     9    1
    22     9    10    1
    23     1     3    1
    24     1     5    1
    25     1     4    1
