@<TRIPOS>MOLECULE
3omg_III_C_1.pdb
 46 45 0 0 0
SMALL
GASTEIGER

@<TRIPOS>ATOM
      1  N         19.3580   -8.7980    5.5130 N.3     2  GLY2       -0.1210
      2  CA        18.5770   -9.5870    6.5190 C.3     2  GLY2        0.1956
      3  C         17.4270   -8.8120    7.1600 C.2     2  GLY2        0.2612
      4  O         16.7490   -9.3240    8.0600 O.2     2  GLY2       -0.2717
      5  N         17.1960   -7.5800    6.7040 N.am    3  ARG3       -0.1965
      6  CA        16.1100   -6.7650    7.2720 C.3     3  ARG3        0.1729
      7  C         14.7050   -7.3090    6.9500 C.2     3  ARG3        0.2616
      8  O         13.7680   -7.1160    7.7450 O.2     3  ARG3       -0.2715
      9  CB        16.2550   -5.2800    6.9210 C.3     3  ARG3        0.0348
     10  CG        17.2590   -4.5530    7.8290 C.3     3  ARG3        0.0492
     11  CD        17.4060   -3.0840    7.4630 C.3     3  ARG3        0.2205
     12  NE        17.7160   -2.9190    6.0470 N.pl3   3  ARG3       -0.0865
     13  CZ        17.8060   -1.7570    5.4030 C.cat   3  ARG3        0.5346
     14  NH1       17.6330   -0.5980    6.0310 N.pl3   3  ARG3        0.1354
     15  NH2       18.0840   -1.7560    4.1080 N.pl3   3  ARG3        0.1354
     16  N         14.5940   -8.0080    5.8150 N.am    4  ALA4       -0.1963
     17  CA        13.3730   -8.7180    5.3960 C.3     4  ALA4        0.1728
     18  C         13.1000  -10.0430    6.1560 C.2     4  ALA4        0.2616
     19  O         12.0700  -10.6940    5.9430 O.2     4  ALA4       -0.2715
     20  CB        13.4110   -8.9620    3.8850 C.3     4  ALA4        0.0334
     21  N         14.0240  -10.4370    7.0350 N.am    5  ARG5       -0.1963
     22  CA        13.9110  -11.6650    7.8550 C.3     5  ARG5        0.1729
     23  CB        12.8410  -11.4970    8.9390 C.3     5  ARG5        0.0348
     24  CG        13.2040  -10.3790    9.9010 C.3     5  ARG5        0.0492
     25  CD        12.2320  -10.3890   11.0770 C.3     5  ARG5        0.2203
     26  NE        10.8840   -9.9920   10.6850 N.pl3   5  ARG5       -0.0923
     27  CZ         9.8430  -10.0440   11.5390 C.cat   5  ARG5        0.4545
     28  NH1       10.0670  -10.4610   12.7230 N.pl3   5  ARG5       -0.0883
     29  CQ1        9.1580  -10.6360   13.8530 C.3     5  ARG5        0.2668
     30  NH2        8.6100   -9.6750   11.1370 N.pl3   5  ARG5       -0.0883
     31  CQ2        8.2890   -9.1920    9.7940 C.3     5  ARG5        0.2668
     32  C         13.6720  -12.9300    7.0600 C.2     5  ARG5        0.2617
     33  O         12.8940  -13.8020    7.4760 O.2     5  ARG5       -0.2715
     34  N         14.3570  -13.0420    5.9210 N.am    6  GLY6       -0.1940
     35  CA        14.2310  -14.1960    5.0190 C.3     6  GLY6        0.2014
     36  C         12.9240  -14.1930    4.2440 C.2     6  GLY6        0.2638
     37  O         12.6980  -15.0540    3.3890 O.2     6  GLY6       -0.2714
     38  N         12.0620  -13.2200    4.5510 N.am    7  GLN7       -0.1977
     39  CA        10.7420  -13.1010    3.9320 C.3     7  GLN7        0.1601
     40  C         10.8110  -12.1470    2.7400 C.2     7  GLN7        0.2287
     41  O         10.0780  -12.3030    1.7680 O.2     7  GLN7       -0.2864
     42  CB         9.6900  -12.6130    4.9520 C.3     7  GLN7        0.0394
     43  CG         9.8150  -13.1730    6.3910 C.3     7  GLN7        0.0908
     44  CD         9.5720  -14.6840    6.5050 C.2     7  GLN7        0.2608
     45  OE1        8.5630  -15.2060    6.0320 O.2     7  GLN7       -0.2717
     46  NE2       10.4970  -15.3840    7.1560 N.am    7  GLN7       -0.0878
@<TRIPOS>BOND
     1    41    40    2
     2    40    39    1
     3    37    36    2
     4    20    17    1
     5    39    38    1
     6    39    42    1
     7    15    13    1
     8    36    38   am
     9    36    35    1
    10    42    43    1
    11    35    34    1
    12    17    16    1
    13    17    18    1
    14    13    14    1
    15    13    12    2
    16     1     2    1
    17    16     7   am
    18    34    32   am
    19    19    18    2
    20    45    44    2
    21    12    11    1
    22    18    21   am
    23    43    44    1
    24    44    46   am
    25     2     3    1
    26     5     3   am
    27     5     6    1
    28     9     6    1
    29     9    10    1
    30     7     6    1
    31     7     8    2
    32    21    22    1
    33    32    33    2
    34    32    22    1
    35     3     4    2
    36    11    10    1
    37    22    23    1
    38    23    24    1
    39    31    30    1
    40    24    25    1
    41    26    25    1
    42    26    27    1
    43    30    27    1
    44    27    28    2
    45    28    29    1
