@<TRIPOS>MOLECULE
3omi_DMU_A_1.pdb
 22 22 0 0 0
SMALL
GASTEIGER

@<TRIPOS>ATOM
      1  C1       -23.2690   -8.8460    4.5210 C.3     7  DMU7        0.2406
      2  C2       -24.3240   -7.7370    4.6410 C.3     7  DMU7        0.2198
      3  C3       -25.1000   -7.6130    3.3290 C.3     7  DMU7        0.2144
      4  C4       -25.7540   -8.9590    3.0190 C.3     7  DMU7        0.1835
      5  O5       -24.7320   -9.9750    2.9360 O.3     7  DMU7       -0.3256
      6  C6       -23.9680  -10.1550    4.1430 C.3     7  DMU7        0.2695
      7  O7       -26.0810   -6.5620    3.4180 O.3     7  DMU7       -0.2176
      8  O16      -23.0440  -11.2230    3.9410 O.3     7  DMU7       -0.3286
      9  C18      -23.3650  -12.3310    4.7830 C.3     7  DMU7        0.1449
     10  C19      -22.5570  -13.5660    4.4200 C.3     7  DMU7        0.0322
     11  C22      -22.4020  -14.4730    5.6370 C.3     7  DMU7        0.0026
     12  C25      -22.0430  -15.8790    5.1840 C.3     7  DMU7        0.0001
     13  C28      -21.2380  -16.6430    6.2200 C.3     7  DMU7        0.0000
     14  C31      -20.9540  -18.0790    5.7740 C.3     7  DMU7        0.0000
     15  C34      -19.5220  -18.1920    5.2660 C.3     7  DMU7        0.0000
     16  C37      -19.0790  -19.6360    5.0880 C.3     7  DMU7        0.0000
     17  C40      -17.5930  -19.7020    4.7750 C.3     7  DMU7        0.0000
     18  C43      -17.2890  -20.5600    3.5640 C.3     7  DMU7        0.0000
     19  O49      -22.5680   -9.0120    5.7520 O.3     7  DMU7       -0.2149
     20  O55      -23.7460   -6.4790    4.9780 O.3     7  DMU7       -0.2174
     21  C57      -26.5240   -8.9550    1.7030 C.3     7  DMU7        0.2142
     22  O61      -27.0620  -10.2560    1.5150 O.3     7  DMU7       -0.2176
@<TRIPOS>BOND
     1    22    21    1
     2    21     4    1
     3     5     4    1
     4     5     6    1
     5     4     3    1
     6     3     7    1
     7     3     2    1
     8    18    17    1
     9     8     6    1
    10     8     9    1
    11     6     1    1
    12    10     9    1
    13    10    11    1
    14     1     2    1
    15     1    19    1
    16     2    20    1
    17    17    16    1
    18    16    15    1
    19    12    11    1
    20    12    13    1
    21    15    14    1
    22    14    13    1
