@<TRIPOS>MOLECULE
3omk_OMK_A_1.pdb
 35 39 0 0 0
SMALL
GASTEIGER

@<TRIPOS>ATOM
      1  N1        23.0560   17.9300    3.7010 N.pl3   1  OMK1       -0.2536
      2  C2        22.2160   17.1750    2.8390 C.2     1  OMK1        0.1869
      3  N3        22.8890   16.2090    2.1950 N.2     1  OMK1       -0.3893
      4  C4        24.3070   17.3200    3.6060 C.2     1  OMK1        0.0822
      5  C5        24.1890   16.2470    2.6630 C.2     1  OMK1        0.1310
      6  C6        23.5150   20.3030    4.1630 C.2     1  OMK1        0.2639
      7  C7        22.6620   19.0380    4.5350 C.3     1  OMK1        0.1575
      8  C8        25.5120   17.5860    4.2380 C.2     1  OMK1        0.0488
      9  N9        23.8270   20.4330    2.8360 N.am    1  OMK1       -0.1781
     10  C10       25.3050   15.4210    2.3550 C.3     1  OMK1        0.1191
     11  C11       26.6100   16.7990    3.9140 C.2     1  OMK1        0.1650
     12  C12       20.8330   17.5530    2.6310 C.ar    1  OMK1        0.0443
     13  C13       26.5140   15.7610    2.9690 C.2     1  OMK1        0.1520
     14  C14       24.4890   21.4960    2.2180 C.ar    1  OMK1        0.0694
     15  O15       23.8890   21.1220    4.9970 O.2     1  OMK1       -0.2712
     16  C16       23.7820   22.7090    2.0450 C.ar    1  OMK1       -0.0065
     17  C17       22.7860   18.6970    6.0440 C.3     1  OMK1        0.0275
     18  C18       20.5610   18.7220    1.9090 C.ar    1  OMK1        0.0047
     19  C19       19.7950   16.8270    3.2250 C.ar    1  OMK1        0.0047
     20  F20       27.8180   17.0300    4.4780 F       1  OMK1       -0.2021
     21  F21       27.6430   15.0530    2.8040 F       1  OMK1       -0.2061
     22  C22       18.2080   18.4100    2.3520 C.ar    1  OMK1        0.0577
     23  C23       18.4840   17.2690    3.0950 C.ar    1  OMK1        0.0115
     24  C24       19.2350   19.1570    1.7690 C.ar    1  OMK1        0.0115
     25 CL25       16.5920   18.9160    2.2110 Cl      1  OMK1       -0.0822
     26  C26       25.8400   21.3890    1.7910 C.ar    1  OMK1        0.0163
     27  C27       22.3730   22.8200    2.4510 C.3     1  OMK1        0.0324
     28  C28       24.3850   23.7570    1.3500 C.ar    1  OMK1       -0.0030
     29  C29       22.0920   19.7140    6.9450 C.3     1  OMK1        0.0022
     30  C30       22.2970   17.2810    6.3360 C.3     1  OMK1        0.0022
     31  C31       26.4300   22.4750    1.1450 C.ar    1  OMK1        0.0013
     32  C32       25.7080   23.6490    0.9350 C.ar    1  OMK1       -0.0002
     33  C33       22.4130   16.9080    7.8170 C.3     1  OMK1        0.0001
     34  C34       22.1730   19.3120    8.4170 C.3     1  OMK1        0.0001
     35  C35       21.6430   17.9090    8.6520 C.3     1  OMK1        0.0000
@<TRIPOS>BOND
     1    32    31   ar
     2    32    28   ar
     3    31    26   ar
     4    28    16   ar
     5    24    18   ar
     6    24    22   ar
     7    26    14   ar
     8    18    12   ar
     9    16    14   ar
    10    16    27    1
    11     3     5    2
    12     3     2    2
    13    25    22    1
    14    14     9    1
    15    22    23   ar
    16    10     5    1
    17    10    13    1
    18    12     2    1
    19    12    19   ar
    20     5     4    1
    21    21    13    1
    22     9     6   am
    23     2     1    1
    24    13    11    2
    25    23    19   ar
    26     4     1    1
    27     4     8    2
    28     1     7    1
    29    11     8    1
    30    11    20    1
    31     6     7    1
    32     6    15    2
    33     7    17    1
    34    17    30    1
    35    17    29    1
    36    30    33    1
    37    29    34    1
    38    33    35    1
    39    34    35    1
