@<TRIPOS>MOLECULE
3omm_OMM_A_1.pdb
 38 42 0 0 0
SMALL
GASTEIGER

@<TRIPOS>ATOM
      1  N1        12.9810   24.0630    3.5100 N.pl3   1  OMM1       -0.2686
      2  C2        13.8570   24.7570    2.7100 C.2     1  OMM1        0.1837
      3  N3        13.2470   25.7640    2.1550 N.2     1  OMM1       -0.3892
      4  C4        11.7750   24.6890    3.4130 C.3     1  OMM1        0.1526
      5  C5        11.9630   25.7760    2.5420 C.2     1  OMM1        0.1352
      6  C6        12.3870   21.7510    3.9800 C.2     1  OMM1        0.2637
      7  C7        13.2960   22.8910    4.3450 C.3     1  OMM1        0.1540
      8  C8        10.5500   24.4400    4.0080 C.2     1  OMM1        0.0324
      9  N9        12.0580   21.6120    2.6660 N.am    1  OMM1       -0.1755
     10  C10       10.8810   26.6170    2.2720 C.2     1  OMM1        0.0616
     11  C11        9.5030   25.2750    3.7390 C.2     1  OMM1        0.1652
     12  C12       11.1750   20.6570    2.1580 C.ar    1  OMM1        0.1008
     13  C13        8.4240   17.7020    0.7000 C.2     1  OMM1        0.3878
     14  C14       15.2670   24.3620    2.5130 C.ar    1  OMM1        0.0440
     15  C15        9.6690   26.3360    2.8600 C.2     1  OMM1        0.1694
     16  C16        9.3630   18.7370    1.2150 C.ar    1  OMM1        0.0821
     17  C17       11.5600   19.3330    2.0340 C.ar    1  OMM1        0.1555
     18  C18       10.6660   18.3760    1.5710 C.ar    1  OMM1        0.0376
     19  O19       11.9640   21.0010    4.8510 O.2     1  OMM1       -0.2712
     20  O20        8.8080   16.5740    0.6150 O.co2   1  OMM1       -0.2406
     21  C21        9.8650   21.0340    1.8220 C.ar    1  OMM1        0.0191
     22  C22        8.9890   20.0820    1.3210 C.ar    1  OMM1        0.0081
     23  C23       13.2270   23.2860    5.8410 C.3     1  OMM1        0.0272
     24  C24       16.2780   25.1200    3.0880 C.ar    1  OMM1        0.0047
     25  C25       15.5810   23.1560    1.8700 C.ar    1  OMM1        0.0047
     26  F26        8.3170   25.0340    4.3400 F       1  OMM1       -0.2021
     27  F27        8.6210   27.1270    2.6080 F       1  OMM1       -0.2017
     28  F28       12.7930   18.9690    2.4420 F       1  OMM1       -0.2028
     29  O29        7.1660   17.9770    0.2900 O.co2   1  OMM1       -0.2406
     30  C30       17.9080   23.5550    2.2660 C.ar    1  OMM1        0.0577
     31  C31       16.8980   22.7470    1.7700 C.ar    1  OMM1        0.0115
     32  C32       17.5810   24.7170    2.9490 C.ar    1  OMM1        0.0115
     33 CL33       19.5890   23.1000    2.1280 Cl      1  OMM1       -0.0822
     34  C34       13.8810   22.2020    6.7140 C.3     1  OMM1        0.0021
     35  C35       13.9930   24.6000    6.0520 C.3     1  OMM1        0.0021
     36  C36       13.9010   25.0240    7.5330 C.3     1  OMM1        0.0001
     37  C37       13.9050   22.6010    8.1990 C.3     1  OMM1        0.0001
     38  C38       14.6330   23.9460    8.3530 C.3     1  OMM1        0.0000
@<TRIPOS>BOND
     1    29    13   ar
     2    20    13   ar
     3    13    16    1
     4    16    22   ar
     5    16    18   ar
     6    22    21   ar
     7    18    17   ar
     8    31    25   ar
     9    31    30   ar
    10    21    12   ar
    11    25    14   ar
    12    17    12   ar
    13    17    28    1
    14    33    30    1
    15     3     5    2
    16     3     2    2
    17    12     9    1
    18    30    32   ar
    19    10     5    1
    20    10    15    2
    21    14     2    1
    22    14    24   ar
    23     5     4    1
    24    27    15    1
    25     9     6   am
    26     2     1    1
    27    15    11    1
    28    32    24   ar
    29     4     1    1
    30     4     8    1
    31     1     7    1
    32    11     8    2
    33    11    26    1
    34     6     7    1
    35     6    19    2
    36     7    23    1
    37    23    35    1
    38    23    34    1
    39    35    36    1
    40    34    37    1
    41    36    38    1
    42    37    38    1
