@<TRIPOS>MOLECULE
3omn_DMU_A_1.pdb
 22 22 0 0 0
SMALL
GASTEIGER

@<TRIPOS>ATOM
      1  C1        -5.2180  -46.7880   -8.3040 C.3   1005  DMU1005     0.2406
      2  C2        -4.4890  -48.0750   -7.9190 C.3   1005  DMU1005     0.2198
      3  C3        -3.1450  -47.8100   -7.2330 C.3   1005  DMU1005     0.2144
      4  C4        -3.3120  -46.8070   -6.0910 C.3   1005  DMU1005     0.1835
      5  O5        -4.0150  -45.6180   -6.5190 O.3   1005  DMU1005    -0.3256
      6  C6        -5.3090  -45.8250   -7.1170 C.3   1005  DMU1005     0.2695
      7  O7        -2.6400  -49.0530   -6.7050 O.3   1005  DMU1005    -0.2176
      8  O16       -5.8110  -44.5480   -7.5210 O.3   1005  DMU1005    -0.3286
      9  C18       -6.7680  -44.0740   -6.5730 C.3   1005  DMU1005     0.1449
     10  C19       -6.8850  -42.5550   -6.6150 C.3   1005  DMU1005     0.0322
     11  C22       -8.1440  -42.1110   -5.8810 C.3   1005  DMU1005     0.0026
     12  C25       -8.3850  -40.6130   -6.0030 C.3   1005  DMU1005     0.0001
     13  C28       -9.2420  -40.1270   -4.8440 C.3   1005  DMU1005     0.0000
     14  C31       -9.7300  -38.6940   -5.0070 C.3   1005  DMU1005     0.0000
     15  C34      -10.9770  -38.5240   -4.1450 C.3   1005  DMU1005     0.0000
     16  C37      -11.6620  -37.1670   -4.2790 C.3   1005  DMU1005     0.0000
     17  C40      -12.9970  -37.1900   -3.5300 C.3   1005  DMU1005     0.0000
     18  C43      -14.1420  -36.6000   -4.3310 C.3   1005  DMU1005     0.0000
     19  O49       -6.5270  -47.1680   -8.6970 O.3   1005  DMU1005    -0.2149
     20  O55       -4.2720  -48.8590   -9.0850 O.3   1005  DMU1005    -0.2174
     21  C57       -1.9790  -46.3950   -5.4720 C.3   1005  DMU1005     0.2142
     22  O61       -2.2340  -45.6790   -4.2790 O.3   1005  DMU1005    -0.2176
@<TRIPOS>BOND
     1    20     2    1
     2    19     1    1
     3     1     2    1
     4     1     6    1
     5     2     3    1
     6     8     6    1
     7     8     9    1
     8     3     7    1
     9     3     4    1
    10     6     5    1
    11    10     9    1
    12    10    11    1
    13     5     4    1
    14     4    21    1
    15    12    11    1
    16    12    13    1
    17    21    22    1
    18    14    13    1
    19    14    15    1
    20    18    17    1
    21    16    15    1
    22    16    17    1
