@<TRIPOS>MOLECULE
3omo_WV7_A_1.pdb
 17 18 0 0 0
SMALL
GASTEIGER

@<TRIPOS>ATOM
      1  OAA       -3.7110   27.8700   10.8070 O.2     1  WV71       -0.2658
      2  OAB        3.1260   31.9310   12.5130 O.3     1  WV71       -0.2866
      3  FAC       -3.9480   25.9320    9.5990 F       1  WV71       -0.1620
      4  FAD       -1.7590   25.5640    9.4120 F       1  WV71       -0.1620
      5  FAE       -2.6550   24.9570   11.1840 F       1  WV71       -0.1620
      6  CAF        0.7840   31.7590   12.7480 C.ar    1  WV71        0.0417
      7  CAG       -0.3870   31.0700   12.6080 C.ar    1  WV71        0.0004
      8  CAH        2.0550   29.8830   11.8700 C.ar    1  WV71        0.0376
      9  CAI        0.9650   27.7640   11.1710 C.3     1  WV71        0.0477
     10  CAJ       -0.2700   26.8770   11.5340 C.3     1  WV71        0.0986
     11  CAK       -1.6440   29.0430   12.0340 C.3     1  WV71        0.1201
     12  CAL       -2.6670   27.2160   10.8490 C.2     1  WV71        0.3213
     13  CAM        1.9930   31.1970   12.3390 C.ar    1  WV71        0.1954
     14  CAN       -0.3130   29.7590   12.1170 C.ar    1  WV71       -0.0060
     15  CAO        0.8770   29.1760   11.7430 C.ar    1  WV71       -0.0196
     16  NAP       -1.5410   27.6820   11.4420 N.am    1  WV71       -0.2683
     17  CAQ       -2.7540   25.8560   10.2170 C.3     1  WV71        0.4697
@<TRIPOS>BOND
     1     4    17    1
     2     3    17    1
     3    17    12    1
     4    17     5    1
     5     1    12    2
     6    12    16   am
     7     9    10    1
     8     9    15    1
     9    16    10    1
    10    16    11    1
    11    15     8   ar
    12    15    14   ar
    13     8    13   ar
    14    11    14    1
    15    14     7   ar
    16    13     2    1
    17    13     6   ar
    18     7     6   ar
