@<TRIPOS>MOLECULE
3omp_W14_A_1.pdb
 17 18 0 0 0
SMALL
GASTEIGER

@<TRIPOS>ATOM
      1  OAA       -3.7690   28.3850   10.8800 O.2     1  W141       -0.2658
      2  OAB        1.1110   33.2420   13.0410 O.3     1  W141       -0.2866
      3  FAC       -1.9240   26.0940    9.3950 F       1  W141       -0.1620
      4  FAD       -2.8180   25.2940   11.0570 F       1  W141       -0.1620
      5  FAE       -4.2340   26.2280    9.5680 F       1  W141       -0.1620
      6  CAF        2.2620   31.2890   12.2570 C.ar    1  W141        0.0417
      7  CAG        2.1480   29.9500   11.7960 C.ar    1  W141       -0.0012
      8  CAH       -0.1690   31.3350   12.4930 C.ar    1  W141        0.0391
      9  CAI        0.8950   27.9970   11.2300 C.3     1  W141        0.0476
     10  CAJ       -0.3980   27.1430   11.4400 C.3     1  W141        0.0986
     11  CAK       -1.5180   29.4070   12.0060 C.3     1  W141        0.1202
     12  CAL       -2.7960   27.6320   10.9400 C.2     1  W141        0.3213
     13  CAM        1.0650   31.9510   12.5850 C.ar    1  W141        0.1955
     14  CAN        0.9130   29.3300   11.6930 C.ar    1  W141       -0.0226
     15  CAO       -0.2350   30.0120   12.0620 C.ar    1  W141       -0.0031
     16  NAP       -1.6000   28.0220   11.4690 N.am    1  W141       -0.2683
     17  CAQ       -2.9180   26.2470   10.2670 C.3     1  W141        0.4697
@<TRIPOS>BOND
     1     3    17    1
     2     5    17    1
     3    17    12    1
     4    17     4    1
     5     1    12    2
     6    12    16   am
     7     9    10    1
     8     9    14    1
     9    10    16    1
    10    16    11    1
    11    14     7   ar
    12    14    15   ar
    13     7     6   ar
    14    11    15    1
    15    15     8   ar
    16     6    13   ar
    17     8    13   ar
    18    13     2    1
