@<TRIPOS>MOLECULE
3omq_W23_A_1.pdb
 18 19 0 0 0
SMALL
GASTEIGER

@<TRIPOS>ATOM
      1  CAA       -0.8430   29.1490  -12.2810 C.ar    1  W231       -0.0201
      2  CAB        0.4050   29.6850  -12.5590 C.ar    1  W231       -0.0082
      3  CAC       -1.9600   29.9190  -12.5000 C.ar    1  W231        0.0375
      4  CAD       -1.0300   27.6730  -11.7800 C.3     1  W231        0.0453
      5  CAE        0.5410   30.9950  -13.0320 C.ar    1  W231        0.0001
      6  CAF        1.6690   28.8180  -12.4070 C.3     1  W231        0.1217
      7  CAG       -0.5850   31.7800  -13.2410 C.ar    1  W231        0.0417
      8  CAH       -1.8460   31.2400  -12.9480 C.ar    1  W231        0.1954
      9  CAI        0.2440   26.7970  -12.0450 C.3     1  W231        0.1008
     10  CAJ        3.5630   26.0310  -11.7960 C.3     1  W231        0.5359
     11  FAK        4.4200   25.4750  -10.9090 F       1  W231       -0.1493
     12  FAL        4.0080   26.9020  -12.6700 F       1  W231       -0.1493
     13  FAM        2.7420   25.1620  -12.3340 F       1  W231       -0.1493
     14  NAN        1.3130   27.6960  -11.5370 N.3     1  W231       -0.1473
     15  OAO       -2.9790   31.9730  -13.1720 O.3     1  W231       -0.2866
     16  OAP        3.3600   27.9470   -9.8840 O.2     1  W231       -0.1495
     17  OAQ        2.0410   25.8400   -9.8480 O.2     1  W231       -0.1495
     18  SAR        2.5790   26.9410  -10.6800 S.O2    1  W231        0.1306
@<TRIPOS>BOND
     1     7     5   ar
     2     7     8   ar
     3    15     8    1
     4     5     2   ar
     5     8     3   ar
     6    12    10    1
     7     2     6    1
     8     2     1   ar
     9     3     1   ar
    10     6    14    1
    11    13    10    1
    12     1     4    1
    13     9     4    1
    14     9    14    1
    15    10    11    1
    16    10    18    1
    17    14    18    1
    18    18    16    2
    19    18    17    2
