@<TRIPOS>MOLECULE
3omu_IBD_A_1.pdb
 31 33 0 0 0
SMALL
GASTEIGER

@<TRIPOS>ATOM
      1  N1         0.0290   -0.7860   12.9160 N.2   215  IBD215     -0.3295
      2  C2        -0.6680   -1.1810   13.9960 C.1   215  IBD215      0.2413
      3  N3        -1.1040   -0.2870   14.9090 N.2   215  IBD215     -0.3229
      4  C4        -0.8420    1.0190   14.7760 C.2   215  IBD215      0.1626
      5  C5        -0.1070    1.4770   13.6500 C.3   215  IBD215      0.1354
      6  C6         0.3330    0.5110   12.7030 C.2   215  IBD215      0.1344
      7  CAA       -1.6000    7.1580   17.6130 C.3   215  IBD215      0.0253
      8  CAB        4.8390    5.5010    8.9430 C.3   215  IBD215      0.0188
      9  CAC        7.2970    6.5990   11.8640 C.3   215  IBD215      0.0188
     10  NAD       -0.9500   -2.4600   14.1770 N.pl3 215  IBD215     -0.0232
     11  OAE        0.4720    5.6630   14.4730 O.2   215  IBD215     -0.2678
     12 CLAF        3.1240    2.1250    7.6530 Cl    215  IBD215     -0.0791
     13 CLAG       -1.0480   -0.1360   10.0630 Cl    215  IBD215     -0.0821
     14  CAH        1.1190    1.0290    9.0870 C.ar  215  IBD215      0.0259
     15  CAI        2.2950    1.5400   11.5640 C.ar  215  IBD215      0.0409
     16  CAJ        0.0590    2.8240   13.6840 C.2   215  IBD215     -0.0006
     17  CAK       -1.3630    6.9420   16.1190 C.3   215  IBD215      0.1155
     18  CAL        6.0330    5.3440    9.8860 C.3   215  IBD215      0.0722
     19  CAM        6.0340    5.8360   12.2940 C.3   215  IBD215      0.0722
     20  CAN        4.7420    2.6740   11.6550 C.3   215  IBD215      0.2227
     21  CAO        5.9980    3.5340   11.5190 C.3   215  IBD215      0.1200
     22  NAR       -1.3450    5.5000   15.8220 N.am  215  IBD215     -0.2013
     23  OAS        4.1320    2.5480   10.3550 O.3   215  IBD215     -0.4731
     24  SAT       -1.2740    2.3610   15.7580 S.3   215  IBD215     -0.0538
     25  CAU       -0.4200    4.9880   14.9980 C.2   215  IBD215      0.2706
     26  CAW        2.3440    1.6660    9.1350 C.ar  215  IBD215      0.0924
     27  CAX        0.4780    0.6490   10.2670 C.ar  215  IBD215      0.0609
     28  CAY        2.9290    1.9250   10.3690 C.ar  215  IBD215      0.1492
     29  CAZ       -0.4850    3.4650   14.7500 C.2   215  IBD215      0.0831
     30  CBA        1.0470    0.8850   11.5320 C.ar  215  IBD215      0.0408
     31  NBE        5.5840    4.9200   11.2220 N.3   215  IBD215     -0.2696
@<TRIPOS>BOND
     1    12    26    1
     2     8    18    1
     3    14    26   ar
     4    14    27   ar
     5    26    28   ar
     6    18    31    1
     7    13    27    1
     8    27    30   ar
     9    23    28    1
    10    23    20    1
    11    28    15   ar
    12    31    21    1
    13    31    19    1
    14    21    20    1
    15    30    15   ar
    16    30     6    1
    17     9    19    1
    18     6     1    2
    19     6     5    1
    20     1     2    2
    21     5    16    1
    22     5     4    1
    23    16    29    2
    24     2    10    1
    25     2     3    2
    26    11    25    2
    27    29    25    1
    28    29    24    1
    29     4     3    2
    30     4    24    1
    31    25    22   am
    32    22    17    1
    33    17     7    1
