@<TRIPOS>MOLECULE
3omv_SM5_A_1.pdb
 28 32 0 0 0
SMALL
GASTEIGER

@<TRIPOS>ATOM
      1  C18        7.3260   12.5150   32.8920 C.3     1  SM51        0.1081
      2  N4         7.3850   13.9710   32.8710 N.ar    1  SM51       -0.2513
      3  C14        4.6060   18.7550   34.4420 C.2     1  SM51       -0.0198
      4  C13        5.2640   17.5230   34.2320 C.3     1  SM51        0.0525
      5  C12        6.2630   17.4040   33.2350 C.2     1  SM51       -0.0148
      6  C17        6.6060   18.5140   32.4360 C.2     1  SM51       -0.0038
      7  C16        5.9410   19.7320   32.6520 C.2     1  SM51        0.0010
      8  C15        4.9610   19.8540   33.6360 C.2     1  SM51        0.0160
      9  C11        9.7550   17.0170   30.8870 C.ar    1  SM51        0.0222
     10  N3         8.5040   14.6290   32.4840 N.ar    1  SM51       -0.1693
     11  C10       10.7340   18.0000   30.6240 C.ar    1  SM51        0.0989
     12  C8        10.7770   18.7420   32.8220 C.ar    1  SM51        0.0989
     13  C22        8.2710   10.3230   32.1260 C.3     1  SM51        0.0907
     14  C7         9.7990   17.7880   33.1710 C.ar    1  SM51        0.0222
     15  C5         6.3930   14.8560   33.2050 C.ar    1  SM51        0.0962
     16  C6         9.2730   16.9030   32.2050 C.ar    1  SM51        0.0225
     17  C1         6.9420   16.1230   33.0100 C.ar    1  SM51        0.0344
     18  C19        7.0290   11.9230   34.2920 C.3     1  SM51        0.0432
     19  C20        6.9770   10.3740   34.2730 C.3     1  SM51        0.0907
     20  C2         8.2510   15.9020   32.5560 C.ar    1  SM51        0.1021
     21  N9        11.2370   18.8420   31.5560 N.ar    1  SM51       -0.2423
     22  N21        8.1060    9.7860   33.5040 N.3     1  SM51       -0.2179
     23  C23        8.5190   11.8390   32.1790 C.3     1  SM51        0.0432
     24  C24        6.1830   21.0010   31.8940 C.2     1  SM51        0.0016
     25  C25        5.1740   21.9700   32.5730 C.2     1  SM51        0.0214
     26  C26        4.4170   21.2050   33.6790 C.2     1  SM51        0.1104
     27  N27        3.4910   21.6230   34.4850 N.4     1  SM51       -0.0964
     28  O28        3.2240   22.9680   34.1670 O.3     1  SM51       -0.0605
@<TRIPOS>BOND
     1    11     9   ar
     2    11    21   ar
     3     9    16   ar
     4    21    12   ar
     5    24    25    1
     6    24     7    2
     7    13    23    1
     8    13    22    1
     9    23     1    1
    10    16    20    1
    11    16    14   ar
    12     6     7    1
    13     6     5    2
    14    10    20   ar
    15    10     2   ar
    16    20    17   ar
    17    25    26    2
    18     7     8    1
    19    12    14   ar
    20     2     1    1
    21     2    15   ar
    22     1    18    1
    23    17    15   ar
    24    17     5    1
    25     5     4    1
    26    22    19    1
    27     8    26    1
    28     8     3    2
    29    26    27    1
    30    28    27    1
    31     4     3    1
    32    19    18    1
