@<TRIPOS>MOLECULE
3onb_LDT_A_1.pdb
 24 25 0 0 0
SMALL
GASTEIGER

@<TRIPOS>ATOM
      1  C2        15.7170   -9.4170   17.9050 C.ar  600  LDT600      0.0666
      2  C3        15.9010  -10.2340   15.2170 C.ar  600  LDT600      0.0071
      3  C4        16.5220   -8.7110   17.0220 C.ar  600  LDT600      0.1433
      4  C5        15.0050  -10.5150   17.4360 C.ar  600  LDT600      0.1432
      5  C6        15.0890  -10.9420   16.1140 C.ar  600  LDT600      0.0299
      6  C7        16.5940   -9.1300   15.6920 C.ar  600  LDT600      0.0556
      7 BR8        14.5990   -3.6640    9.2350 Br    600  LDT600     -0.0489
      8  F9        14.2360  -11.1750   18.2940 F     600  LDT600     -0.2041
      9  C11       17.4780   -8.2850   14.8160 C.2   600  LDT600      0.1039
     10  C13       18.0610   -6.2860   13.6040 C.3   600  LDT600      0.1414
     11  F14       18.8730   -4.3400   11.7750 F     600  LDT600     -0.2044
     12  O15       17.3040   -7.6010   17.3390 O.3   600  LDT600     -0.4636
     13  S16       18.2900   -9.1090   13.6280 S.2   600  LDT600     -0.0331
     14  N17       17.3220   -6.9500   14.6830 N.am  600  LDT600     -0.2257
     15  C20       16.9390   -6.7440   18.4250 C.3   600  LDT600      0.3186
     16  C24       17.0860   -5.7360   12.5630 C.ar  600  LDT600      0.0269
     17  C25       15.4660   -4.5770   10.5870 C.ar  600  LDT600      0.0368
     18  C26       15.7440   -6.1220   12.4190 C.ar  600  LDT600      0.0002
     19  C27       17.6090   -4.7580   11.7000 C.ar  600  LDT600      0.1383
     20  C28       16.8040   -4.1940   10.7330 C.ar  600  LDT600      0.0361
     21  C29       14.9310   -5.5570   11.4280 C.ar  600  LDT600      0.0066
     22  C32       15.6780   -6.0140   18.0440 C.2   600  LDT600      0.4084
     23  O33       14.9480   -5.5560   18.9070 O.co2 600  LDT600     -0.2415
     24  O34       15.4250   -5.9080   16.7500 O.co2 600  LDT600     -0.2415
@<TRIPOS>BOND
     1     7    17    1
     2    17    20   ar
     3    17    21   ar
     4    20    19   ar
     5    21    18   ar
     6    19    11    1
     7    19    16   ar
     8    18    16   ar
     9    16    10    1
    10    10    14    1
    11    13     9    2
    12    14     9    1
    13     9     6    1
    14     2     6   ar
    15     2     5   ar
    16     6     3   ar
    17     5     4   ar
    18    24    22   ar
    19     3    12    1
    20     3     1   ar
    21    12    15    1
    22     4     1   ar
    23     4     8    1
    24    22    15    1
    25    22    23   ar
