@<TRIPOS>MOLECULE
3onb_NAP_A_1.pdb
 48 52 0 0 0
SMALL
GASTEIGER

@<TRIPOS>ATOM
      1  PA        22.5470   -4.7990   26.8740 P.3   500  NAP500      0.2189
      2  O1A       23.4650   -3.7720   26.3550 O.2   500  NAP500     -0.5170
      3  O2A       21.4930   -4.4420   27.8300 O.3   500  NAP500     -0.4371
      4  O5B       23.4770   -6.0000   27.4040 O.3   500  NAP500     -0.3112
      5  C5B       22.8690   -7.1850   27.9180 C.3   500  NAP500      0.1813
      6  C4B       24.0850   -8.0920   28.2850 C.3   500  NAP500      0.1820
      7  O4B       24.7400   -7.4900   29.3890 O.3   500  NAP500     -0.3136
      8  C3B       23.6560   -9.4850   28.7870 C.3   500  NAP500      0.2157
      9  O3B       24.5200  -10.4680   28.2420 O.3   500  NAP500     -0.2175
     10  C2B       23.7400   -9.3350   30.3220 C.3   500  NAP500      0.2314
     11  O2B       24.0520  -10.5890   30.9250 O.3   500  NAP500     -0.2630
     12  C1B       24.9100   -8.3790   30.4600 C.3   500  NAP500      0.3158
     13  N9A       24.8510   -7.6440   31.6790 N.pl3 500  NAP500     -0.1439
     14  C8A       23.7790   -6.9620   32.2550 C.3   500  NAP500      0.3377
     15  N7A       24.0730   -6.3700   33.3800 N.2   500  NAP500     -0.2095
     16  C5A       25.4110   -6.6680   33.5630 C.2   500  NAP500      0.2526
     17  C6A       26.2390   -6.2870   34.6330 C.2   500  NAP500      0.4393
     18  N6A       25.8560   -5.5420   35.6610 N.pl3 500  NAP500      0.2180
     19  N1A       27.5680   -6.7540   34.5330 N.2   500  NAP500      0.0021
     20  C2A       28.0140   -7.5440   33.4690 C.3   500  NAP500      0.5254
     21  N3A       27.1690   -7.8970   32.4400 N.2   500  NAP500     -0.0055
     22  C4A       25.8640   -7.4360   32.5250 C.2   500  NAP500      0.3518
     23  O3        21.9220   -5.5540   25.5750 O.3   500  NAP500     -0.2703
     24  PN        20.5410   -5.6350   24.7780 P.3   500  NAP500      0.2189
     25  O1N       19.7100   -6.7580   25.3590 O.3   500  NAP500     -0.4371
     26  O2N       20.8790   -5.6830   23.3360 O.2   500  NAP500     -0.5170
     27  O5D       19.7990   -4.2490   25.0300 O.3   500  NAP500     -0.3112
     28  C5D       18.9380   -3.9580   26.1870 C.3   500  NAP500      0.1813
     29  C4D       17.4820   -4.0630   25.7310 C.3   500  NAP500      0.1799
     30  O4D       17.1550   -3.0920   24.6850 O.3   500  NAP500     -0.3327
     31  C3D       17.0600   -5.3900   25.0310 C.3   500  NAP500      0.2158
     32  O3D       17.0250   -6.4920   25.9030 O.3   500  NAP500     -0.2175
     33  C2D       15.7110   -4.9400   24.4190 C.3   500  NAP500      0.2309
     34  O2D       14.7570   -4.9470   25.4760 O.3   500  NAP500     -0.2158
     35  C1D       16.0090   -3.5380   23.9220 C.3   500  NAP500      0.2263
     36  N1N       16.5090   -3.5050   22.4750 N.pl3 500  NAP500     -0.2787
     37  C2N       15.6420   -2.9040   21.5590 C.3   500  NAP500      0.1244
     38  C3N       16.0140   -2.9720   20.1990 C.2   500  NAP500      0.0544
     39  C7N       15.1120   -2.3150   19.1460 C.2   500  NAP500      0.2818
     40  O7N       15.3250   -2.5380   17.9810 O.2   500  NAP500     -0.2670
     41  N7N       14.1790   -1.5400   19.6840 N.am  500  NAP500     -0.0839
     42  C4N       17.2070   -3.6360   19.7860 C.2   500  NAP500      0.0033
     43  C5N       18.0800   -4.2250   20.7390 C.2   500  NAP500      0.0157
     44  C6N       17.7270   -4.1380   22.0860 C.2   500  NAP500      0.0633
     45  P2B       23.0250  -11.5390   31.7500 P.3   500  NAP500      0.5328
     46  O1X       23.5870  -12.9370   31.5070 O.3   500  NAP500     -0.1145
     47  O2X       23.0960  -11.0900   33.1930 O.3   500  NAP500     -0.1145
     48  O3X       21.6430  -11.2810   31.1530 O.2   500  NAP500     -0.2224
@<TRIPOS>BOND
     1    40    39    2
     2    39    41   am
     3    39    38    1
     4    42    38    2
     5    42    43    1
     6    38    37    1
     7    43    44    2
     8    37    36    1
     9    44    36    1
    10    36    35    1
    11    26    24    2
    12    35    33    1
    13    35    30    1
    14    33    31    1
    15    33    34    1
    16    30    29    1
    17    24    27    1
    18    24    25    1
    19    24    23    1
    20    27    28    1
    21    31    29    1
    22    31    32    1
    23    23     1    1
    24    29    28    1
    25     2     1    2
    26     1     4    1
    27     1     3    1
    28     4     5    1
    29     5     6    1
    30     9     8    1
    31     6     8    1
    32     6     7    1
    33     8    10    1
    34     7    12    1
    35    10    12    1
    36    10    11    1
    37    12    13    1
    38    11    45    1
    39    48    45    2
    40    46    45    1
    41    13    14    1
    42    13    22    1
    43    45    47    1
    44    14    15    1
    45    21    22    2
    46    21    20    1
    47    22    16    1
    48    15    16    2
    49    20    19    1
    50    16    17    1
    51    19    17    2
    52    17    18    1
