@<TRIPOS>MOLECULE
3onc_LDT_A_1.pdb
 24 25 0 0 0
SMALL
GASTEIGER

@<TRIPOS>ATOM
      1  C2        15.7500   -9.2150   17.9070 C.ar  600  LDT600      0.0666
      2  C3        16.0340  -10.1280   15.2990 C.ar  600  LDT600      0.0071
      3  C4        16.5550   -8.5400   17.0090 C.ar  600  LDT600      0.1433
      4  C5        15.0660  -10.3470   17.4540 C.ar  600  LDT600      0.1432
      5  C6        15.2030  -10.8330   16.1640 C.ar  600  LDT600      0.0299
      6  C7        16.6770   -8.9800   15.7080 C.ar  600  LDT600      0.0556
      7 BR8        14.6310   -3.4740    9.2890 Br    600  LDT600     -0.0489
      8  F9        14.2910  -10.9920   18.3230 F     600  LDT600     -0.2041
      9  C11       17.4920   -8.2280   14.7170 C.2   600  LDT600      0.1039
     10  C13       18.0780   -6.0800   13.7270 C.3   600  LDT600      0.1414
     11  F14       18.9740   -4.1620   11.9240 F     600  LDT600     -0.2044
     12  O15       17.3330   -7.4580   17.3810 O.3   600  LDT600     -0.4636
     13  S16       18.3550   -9.0390   13.7240 S.2   600  LDT600     -0.0331
     14  N17       17.3940   -6.8900   14.7160 N.am  600  LDT600     -0.2257
     15  C20       16.8840   -6.6510   18.4580 C.3   600  LDT600      0.3186
     16  C24       17.1830   -5.5160   12.6310 C.ar  600  LDT600      0.0269
     17  C25       15.6300   -4.3540   10.6170 C.ar  600  LDT600      0.0368
     18  C26       15.8520   -5.9070   12.4390 C.ar  600  LDT600      0.0002
     19  C27       17.7000   -4.5510   11.7660 C.ar  600  LDT600      0.1383
     20  C28       16.9510   -3.9690   10.7740 C.ar  600  LDT600      0.0361
     21  C29       15.0700   -5.3340   11.4510 C.ar  600  LDT600      0.0066
     22  C32       15.6470   -5.8620   18.0420 C.2   600  LDT600      0.4084
     23  O33       14.9420   -5.4070   18.9780 O.co2 600  LDT600     -0.2415
     24  O34       15.4180   -5.6960   16.7990 O.co2 600  LDT600     -0.2415
@<TRIPOS>BOND
     1     7    17    1
     2    17    20   ar
     3    17    21   ar
     4    20    19   ar
     5    21    18   ar
     6    19    11    1
     7    19    16   ar
     8    18    16   ar
     9    16    10    1
    10    13     9    2
    11    10    14    1
    12    14     9    1
    13     9     6    1
    14     2     6   ar
    15     2     5   ar
    16     6     3   ar
    17     5     4   ar
    18    24    22   ar
    19     3    12    1
    20     3     1   ar
    21    12    15    1
    22     4     1   ar
    23     4     8    1
    24    22    15    1
    25    22    23   ar
