@<TRIPOS>MOLECULE
3onc_NAP_A_1.pdb
 48 52 0 0 0
SMALL
GASTEIGER

@<TRIPOS>ATOM
      1  PA        22.6100   -4.6680   26.8900 P.3   500  NAP500      0.2189
      2  O1A       23.5290   -3.6150   26.3770 O.2   500  NAP500     -0.5170
      3  O2A       21.5360   -4.3280   27.8380 O.3   500  NAP500     -0.4371
      4  O5B       23.5440   -5.8370   27.4160 O.3   500  NAP500     -0.3112
      5  C5B       22.9460   -7.0480   27.9340 C.3   500  NAP500      0.1813
      6  C4B       24.1200   -7.9520   28.3260 C.3   500  NAP500      0.1820
      7  O4B       24.8590   -7.3530   29.3900 O.3   500  NAP500     -0.3136
      8  C3B       23.6970   -9.3600   28.7960 C.3   500  NAP500      0.2157
      9  O3B       24.6300  -10.3050   28.2720 O.3   500  NAP500     -0.2175
     10  C2B       23.8360   -9.2300   30.3340 C.3   500  NAP500      0.2314
     11  O2B       24.1590  -10.4720   30.9300 O.3   500  NAP500     -0.2630
     12  C1B       24.9900   -8.2520   30.4830 C.3   500  NAP500      0.3158
     13  N9A       24.9680   -7.5140   31.7060 N.pl3 500  NAP500     -0.1439
     14  C8A       23.8850   -6.8440   32.2670 C.3   500  NAP500      0.3377
     15  N7A       24.1570   -6.2360   33.3890 N.2   500  NAP500     -0.2095
     16  C5A       25.5060   -6.5110   33.5770 C.2   500  NAP500      0.2526
     17  C6A       26.3310   -6.1080   34.6350 C.2   500  NAP500      0.4393
     18  N6A       25.9430   -5.3740   35.6880 N.pl3 500  NAP500      0.2180
     19  N1A       27.6490   -6.5740   34.5570 N.2   500  NAP500      0.0021
     20  C2A       28.0580   -7.3480   33.5060 C.3   500  NAP500      0.5254
     21  N3A       27.2880   -7.7360   32.4570 N.2   500  NAP500     -0.0055
     22  C4A       25.9900   -7.2870   32.5530 C.2   500  NAP500      0.3518
     23  O3        21.9810   -5.3930   25.5830 O.3   500  NAP500     -0.2703
     24  PN        20.5910   -5.4950   24.8100 P.3   500  NAP500      0.2189
     25  O1N       19.7980   -6.6170   25.3760 O.3   500  NAP500     -0.4371
     26  O2N       20.9270   -5.5090   23.3570 O.2   500  NAP500     -0.5170
     27  O5D       19.8590   -4.0920   25.0550 O.3   500  NAP500     -0.3112
     28  C5D       18.9630   -3.8420   26.1770 C.3   500  NAP500      0.1813
     29  C4D       17.5310   -3.9700   25.7530 C.3   500  NAP500      0.1799
     30  O4D       17.2040   -2.9490   24.7550 O.3   500  NAP500     -0.3327
     31  C3D       17.1070   -5.2580   25.0590 C.3   500  NAP500      0.2158
     32  O3D       17.0510   -6.3760   25.9100 O.3   500  NAP500     -0.2175
     33  C2D       15.7620   -4.8150   24.4470 C.3   500  NAP500      0.2309
     34  O2D       14.8110   -4.7920   25.5090 O.3   500  NAP500     -0.2158
     35  C1D       16.1210   -3.4210   23.9780 C.3   500  NAP500      0.2263
     36  N1N       16.5740   -3.3990   22.5390 N.pl3 500  NAP500     -0.2787
     37  C2N       15.7230   -2.8500   21.6100 C.3   500  NAP500      0.1244
     38  C3N       16.0780   -2.8450   20.2660 C.2   500  NAP500      0.0544
     39  C7N       15.2070   -2.1800   19.2350 C.2   500  NAP500      0.2818
     40  O7N       15.4070   -2.4110   18.0480 O.2   500  NAP500     -0.2670
     41  N7N       14.2660   -1.3410   19.6900 N.am  500  NAP500     -0.0839
     42  C4N       17.2790   -3.4500   19.8570 C.2   500  NAP500      0.0033
     43  C5N       18.1640   -3.9410   20.8290 C.2   500  NAP500      0.0157
     44  C6N       17.8240   -3.9000   22.1580 C.2   500  NAP500      0.0633
     45  P2B       23.1060  -11.3900   31.7510 P.3   500  NAP500      0.5328
     46  O1X       23.7000  -12.7720   31.5330 O.3   500  NAP500     -0.1145
     47  O2X       23.2200  -10.9400   33.2070 O.3   500  NAP500     -0.1145
     48  O3X       21.7200  -11.1640   31.1750 O.2   500  NAP500     -0.2224
@<TRIPOS>BOND
     1    40    39    2
     2    39    41   am
     3    39    38    1
     4    42    38    2
     5    42    43    1
     6    38    37    1
     7    43    44    2
     8    37    36    1
     9    44    36    1
    10    36    35    1
    11    26    24    2
    12    35    33    1
    13    35    30    1
    14    33    31    1
    15    33    34    1
    16    30    29    1
    17    24    27    1
    18    24    25    1
    19    24    23    1
    20    27    28    1
    21    31    29    1
    22    31    32    1
    23    23     1    1
    24    29    28    1
    25     2     1    2
    26     1     4    1
    27     1     3    1
    28     4     5    1
    29     5     6    1
    30     9     8    1
    31     6     8    1
    32     6     7    1
    33     8    10    1
    34     7    12    1
    35    10    12    1
    36    10    11    1
    37    12    13    1
    38    11    45    1
    39    48    45    2
    40    46    45    1
    41    13    14    1
    42    13    22    1
    43    45    47    1
    44    14    15    1
    45    21    22    2
    46    21    20    1
    47    22    16    1
    48    15    16    2
    49    20    19    1
    50    16    17    1
    51    19    17    2
    52    17    18    1
