@<TRIPOS>MOLECULE
3ond_NAD_A_1.pdb
 44 48 0 0 0
SMALL
GASTEIGER

@<TRIPOS>ATOM
      1  PA        -4.7840   24.5930    6.7880 P.3   501  NAD501      0.2189
      2  O1A       -5.1430   23.7470    5.6330 O.2   501  NAD501     -0.5170
      3  O2A       -5.7680   25.4540    7.4350 O.3   501  NAD501     -0.4371
      4  O5B       -4.0860   23.6570    7.8550 O.3   501  NAD501     -0.3112
      5  C5B       -3.6700   24.0420    9.1690 C.3   501  NAD501      0.1813
      6  C4B       -4.0730   22.9530   10.1140 C.3   501  NAD501      0.1821
      7  O4B       -3.5640   23.2580   11.4590 O.3   501  NAD501     -0.3135
      8  C3B       -5.5800   22.7830   10.2880 C.3   501  NAD501      0.2184
      9  O3B       -6.0670   21.5330    9.7840 O.3   501  NAD501     -0.2174
     10  C2B       -5.8390   23.0140   11.7800 C.3   501  NAD501      0.2570
     11  O2B       -6.9280   22.2590   12.2960 O.3   501  NAD501     -0.2130
     12  C1B       -4.5160   22.7410   12.3840 C.3   501  NAD501      0.3186
     13  N9A       -4.2860   23.3490   13.6520 N.pl3 501  NAD501     -0.1439
     14  C8A       -4.5630   24.6200   14.0150 C.3   501  NAD501      0.3377
     15  N7A       -4.2090   24.8820   15.2810 N.2   501  NAD501     -0.2095
     16  C5A       -3.6510   23.7080   15.7200 C.2   501  NAD501      0.2526
     17  C6A       -3.0500   23.3720   16.9660 C.2   501  NAD501      0.4393
     18  N6A       -3.0470   24.1770   18.0340 N.pl3 501  NAD501      0.2180
     19  N1A       -2.5240   22.1260   17.0330 N.2   501  NAD501      0.0021
     20  C2A       -2.6120   21.2760   15.9900 C.3   501  NAD501      0.5254
     21  N3A       -3.2120   21.5290   14.8340 N.2   501  NAD501     -0.0055
     22  C4A       -3.6650   22.7830   14.7370 C.2   501  NAD501      0.3518
     23  O3        -3.6080   25.5450    6.3050 O.3   501  NAD501     -0.2703
     24  PN        -2.4270   25.1770    5.2640 P.3   501  NAD501      0.2189
     25  O1N       -2.8110   25.5890    3.8960 O.2   501  NAD501     -0.5170
     26  O2N       -2.0100   23.7840    5.5290 O.3   501  NAD501     -0.4371
     27  O5D       -1.3340   26.2200    5.7180 O.3   501  NAD501     -0.3112
     28  C5D       -0.6710   26.0530    7.0020 C.3   501  NAD501      0.1813
     29  C4D        0.3810   27.1720    7.1080 C.3   501  NAD501      0.1799
     30  O4D        1.3940   26.9360    6.0980 O.3   501  NAD501     -0.3327
     31  C3D       -0.1850   28.5500    6.8450 C.3   501  NAD501      0.2158
     32  O3D        0.4970   29.4470    7.7430 O.3   501  NAD501     -0.2175
     33  C2D        0.2180   28.8090    5.3870 C.3   501  NAD501      0.2309
     34  O2D        0.2810   30.1900    5.0370 O.3   501  NAD501     -0.2158
     35  C1D        1.5990   28.1780    5.3190 C.3   501  NAD501      0.2263
     36  N1N        2.1300   27.7470    4.0730 N.pl3 501  NAD501     -0.2787
     37  C2N        3.4990   27.6070    3.9640 C.3   501  NAD501      0.1244
     38  C3N        4.0660   27.0140    2.8780 C.2   501  NAD501      0.0544
     39  C7N        5.5930   26.9930    2.7790 C.2   501  NAD501      0.2818
     40  O7N        6.1390   26.8610    1.6800 O.2   501  NAD501     -0.2670
     41  N7N        6.3000   27.1450    3.9220 N.am  501  NAD501     -0.0839
     42  C4N        3.2760   26.4550    1.7870 C.2   501  NAD501      0.0033
     43  C5N        1.8710   26.7380    1.9010 C.2   501  NAD501      0.0157
     44  C6N        1.3010   27.2970    3.0230 C.2   501  NAD501      0.0633
@<TRIPOS>BOND
     1    40    39    2
     2    42    43    1
     3    42    38    2
     4    43    44    2
     5    39    38    1
     6    39    41   am
     7    38    37    1
     8    44    36    1
     9    25    24    2
    10    37    36    1
    11    36    35    1
    12    34    33    1
    13    24    26    1
    14    24    27    1
    15    24    23    1
    16    35    33    1
    17    35    30    1
    18    33    31    1
    19     2     1    2
    20    27    28    1
    21    30    29    1
    22    23     1    1
    23     1     3    1
    24     1     4    1
    25    31    29    1
    26    31    32    1
    27    28    29    1
    28     4     5    1
    29     5     6    1
    30     9     8    1
    31     6     8    1
    32     6     7    1
    33     8    10    1
    34     7    12    1
    35    10    11    1
    36    10    12    1
    37    12    13    1
    38    13    14    1
    39    13    22    1
    40    14    15    1
    41    22    21    2
    42    22    16    1
    43    21    20    1
    44    15    16    2
    45    16    17    1
    46    20    19    1
    47    17    19    2
    48    17    18    1
