@<TRIPOS>MOLECULE
3ond_ADN_A_1.pdb
 19 21 0 0 0
SMALL
GASTEIGER

@<TRIPOS>ATOM
      1  O5'        4.7880   32.2150    2.5410 O.3   506  ADN506     -0.2176
      2  C5'        4.2640   30.9190    2.1900 C.3   506  ADN506      0.2143
      3  C4'        4.2410   30.7260    0.7180 C.3   506  ADN506      0.1851
      4  O4'        5.5510   30.4540    0.2350 O.3   506  ADN506     -0.3134
      5  C3'        3.4680   29.4940    0.2420 C.3   506  ADN506      0.2186
      6  O3'        2.0800   29.7460    0.1760 O.3   506  ADN506     -0.2174
      7  C2'        4.0750   29.1240   -1.0490 C.3   506  ADN506      0.2570
      8  O2'        3.2550   29.3840   -2.1630 O.3   506  ADN506     -0.2130
      9  C1'        5.3430   30.0140   -1.0620 C.3   506  ADN506      0.3186
     10  N9         6.5890   29.3910   -1.5930 N.pl3 506  ADN506     -0.1439
     11  C8         7.0700   28.1630   -1.2860 C.3   506  ADN506      0.3377
     12  N7         8.1710   27.9190   -1.9610 N.2   506  ADN506     -0.2095
     13  C5         8.3910   29.0130   -2.7580 C.2   506  ADN506      0.2526
     14  C6         9.3440   29.3370   -3.7390 C.2   506  ADN506      0.4393
     15  N6        10.2980   28.5050   -4.1610 N.pl3 506  ADN506      0.2180
     16  N1         9.2660   30.5830   -4.2690 N.2   506  ADN506      0.0021
     17  C2         8.3270   31.4130   -3.9120 C.3   506  ADN506      0.5254
     18  N3         7.3400   31.1840   -3.0610 N.2   506  ADN506     -0.0055
     19  C4         7.4020   29.9610   -2.5000 C.2   506  ADN506      0.3518
@<TRIPOS>BOND
     1    16    17    1
     2    16    14    2
     3    15    14    1
     4    17    18    1
     5    14    13    1
     6    18    19    2
     7    13    19    1
     8    13    12    2
     9    19    10    1
    10     8     7    1
    11    12    11    1
    12    10    11    1
    13    10     9    1
    14     9     7    1
    15     9     4    1
    16     7     5    1
    17     6     5    1
    18     4     3    1
    19     5     3    1
    20     3     2    1
    21     2     1    1
