@<TRIPOS>MOLECULE
3one_ADE_A_1.pdb
 10 11 0 0 0
SMALL
GASTEIGER

@<TRIPOS>ATOM
      1  N9         6.7580   29.3780   -1.4820 N.2   506  ADE506     -0.1914
      2  C8         7.2270   28.1170   -1.2410 C.3   506  ADE506      0.2618
      3  N7         8.2980   27.8800   -2.0110 N.2   506  ADE506     -0.2267
      4  C5         8.4660   29.0150   -2.7950 C.2   506  ADE506      0.2303
      5  C6         9.3400   29.3470   -3.8180 C.2   506  ADE506      0.4393
      6  N6        10.2890   28.4940   -4.2790 N.pl3 506  ADE506      0.2185
      7  N1         9.2440   30.5890   -4.3530 N.2   506  ADE506     -0.0265
      8  C2         8.3190   31.4510   -3.9430 C.3   506  ADE506      0.4008
      9  N3         7.3990   31.1700   -3.0280 N.2   506  ADE506     -0.1640
     10  C4         7.4770   29.9370   -2.4710 C.1   506  ADE506      0.0579
@<TRIPOS>BOND
     1     7     8    1
     2     7     5    2
     3     6     5    1
     4     8     9    1
     5     5     4    1
     6     9    10    2
     7     4    10    1
     8     4     3    2
     9    10     1    2
    10     3     2    1
    11     1     2    1
