@<TRIPOS>MOLECULE
3one_NAD_A_1.pdb
 44 48 0 0 0
SMALL
GASTEIGER

@<TRIPOS>ATOM
      1  PA        -4.7080   24.6300    6.7920 P.3   501  NAD501      0.2189
      2  O1A       -5.0980   23.8090    5.6420 O.2   501  NAD501     -0.5170
      3  O2A       -5.6790   25.5130    7.4590 O.3   501  NAD501     -0.4371
      4  O5B       -4.0660   23.6540    7.8760 O.3   501  NAD501     -0.3112
      5  C5B       -3.6430   24.0670    9.2010 C.3   501  NAD501      0.1813
      6  C4B       -4.0310   22.9360   10.1190 C.3   501  NAD501      0.1821
      7  O4B       -3.5290   23.2310   11.4220 O.3   501  NAD501     -0.3135
      8  C3B       -5.5490   22.7550   10.2660 C.3   501  NAD501      0.2184
      9  O3B       -6.0400   21.4880    9.7940 O.3   501  NAD501     -0.2174
     10  C2B       -5.8230   23.0370   11.7170 C.3   501  NAD501      0.2570
     11  O2B       -6.8780   22.2580   12.2530 O.3   501  NAD501     -0.2130
     12  C1B       -4.4750   22.7250   12.3440 C.3   501  NAD501      0.3186
     13  N9A       -4.2440   23.3590   13.6370 N.pl3 501  NAD501     -0.1439
     14  C8A       -4.5200   24.6430   13.9810 C.3   501  NAD501      0.3377
     15  N7A       -4.1580   24.9000   15.2570 N.2   501  NAD501     -0.2095
     16  C5A       -3.5910   23.7260   15.6970 C.2   501  NAD501      0.2526
     17  C6A       -2.9830   23.3580   16.9260 C.2   501  NAD501      0.4393
     18  N6A       -2.9430   24.2190   17.9830 N.pl3 501  NAD501      0.2180
     19  N1A       -2.4360   22.1230   17.0100 N.2   501  NAD501      0.0021
     20  C2A       -2.5400   21.3060   15.9890 C.3   501  NAD501      0.5254
     21  N3A       -3.1490   21.5420   14.8330 N.2   501  NAD501     -0.0055
     22  C4A       -3.6310   22.7860   14.6760 C.2   501  NAD501      0.3518
     23  O3        -3.4920   25.5680    6.3420 O.3   501  NAD501     -0.2703
     24  PN        -2.3400   25.1890    5.2950 P.3   501  NAD501      0.2189
     25  O1N       -2.7340   25.5640    3.9140 O.2   501  NAD501     -0.5170
     26  O2N       -1.9060   23.8010    5.5760 O.3   501  NAD501     -0.4371
     27  O5D       -1.2400   26.2810    5.7070 O.3   501  NAD501     -0.3112
     28  C5D       -0.5030   26.0880    6.9630 C.3   501  NAD501      0.1813
     29  C4D        0.5030   27.2240    7.0590 C.3   501  NAD501      0.1799
     30  O4D        1.4960   27.0090    6.0920 O.3   501  NAD501     -0.3327
     31  C3D       -0.0470   28.6210    6.8200 C.3   501  NAD501      0.2158
     32  O3D        0.6510   29.5070    7.6980 O.3   501  NAD501     -0.2175
     33  C2D        0.2670   28.8620    5.3460 C.3   501  NAD501      0.2309
     34  O2D        0.3010   30.2520    5.0620 O.3   501  NAD501     -0.2158
     35  C1D        1.6660   28.2290    5.3300 C.3   501  NAD501      0.2263
     36  N1N        2.1910   27.8350    4.0490 N.pl3 501  NAD501     -0.2787
     37  C2N        3.5730   27.6110    3.9740 C.3   501  NAD501      0.1244
     38  C3N        4.1820   27.1390    2.8240 C.2   501  NAD501      0.0544
     39  C7N        5.6940   27.0360    2.7140 C.2   501  NAD501      0.2818
     40  O7N        6.2070   26.9450    1.6320 O.2   501  NAD501     -0.2670
     41  N7N        6.4050   27.0860    3.8310 N.am  501  NAD501     -0.0839
     42  C4N        3.3590   26.7020    1.7170 C.2   501  NAD501      0.0033
     43  C5N        1.9410   26.8540    1.8350 C.2   501  NAD501      0.0157
     44  C6N        1.3730   27.3660    2.9900 C.2   501  NAD501      0.0633
@<TRIPOS>BOND
     1    40    39    2
     2    42    43    1
     3    42    38    2
     4    43    44    2
     5    39    38    1
     6    39    41   am
     7    38    37    1
     8    44    36    1
     9    25    24    2
    10    37    36    1
    11    36    35    1
    12    34    33    1
    13    24    26    1
    14    24    27    1
    15    24    23    1
    16    35    33    1
    17    35    30    1
    18    33    31    1
    19     2     1    2
    20    27    28    1
    21    30    29    1
    22    23     1    1
    23     1     3    1
    24     1     4    1
    25    31    29    1
    26    31    32    1
    27    28    29    1
    28     4     5    1
    29     5     6    1
    30     9     8    1
    31     6     8    1
    32     6     7    1
    33     8    10    1
    34     7    12    1
    35    10    11    1
    36    10    12    1
    37    12    13    1
    38    13    14    1
    39    13    22    1
    40    14    15    1
    41    22    21    2
    42    22    16    1
    43    21    20    1
    44    15    16    2
    45    16    17    1
    46    20    19    1
    47    17    19    2
    48    17    18    1
