@<TRIPOS>MOLECULE
3onf_3AD_A_1.pdb
 18 20 0 0 0
SMALL
GASTEIGER

@<TRIPOS>ATOM
      1  O5'        4.9210   32.0330    2.6120 O.3   504  3AD504     -0.2177
      2  C5'        4.5210   30.6880    2.3070 C.3   504  3AD504      0.2116
      3  C4'        4.2240   30.5800    0.8050 C.3   504  3AD504      0.1549
      4  O4'        5.5400   30.5940    0.2720 O.3   504  3AD504     -0.3162
      5  C3'        3.6700   29.2250    0.2910 C.3   504  3AD504      0.0723
      6  C2'        4.2310   29.2410   -1.1390 C.3   504  3AD504      0.2270
      7  O2'        3.1910   29.6370   -2.0790 O.3   504  3AD504     -0.2158
      8  C1'        5.4160   30.2600   -1.0820 C.3   504  3AD504      0.3159
      9  N9         6.6640   29.5910   -1.6400 N.pl3 504  3AD504     -0.1439
     10  C8         7.1090   28.3500   -1.3790 C.3   504  3AD504      0.3377
     11  N7         8.2110   28.0750   -2.0670 N.2   504  3AD504     -0.2095
     12  C5         8.4720   29.1480   -2.8090 C.2   504  3AD504      0.2526
     13  C6         9.4640   29.4620   -3.7210 C.2   504  3AD504      0.4393
     14  N6        10.4570   28.6270   -4.0810 N.pl3 504  3AD504      0.2180
     15  N1         9.4200   30.6720   -4.2590 N.2   504  3AD504      0.0021
     16  C2         8.4750   31.5490   -3.9680 C.3   504  3AD504      0.5254
     17  N3         7.5120   31.2900   -3.1070 N.2   504  3AD504     -0.0055
     18  C4         7.4970   30.1110   -2.5110 C.2   504  3AD504      0.3518
@<TRIPOS>BOND
     1    15    16    1
     2    15    13    2
     3    14    13    1
     4    16    17    1
     5    13    12    1
     6    17    18    2
     7    12    18    1
     8    12    11    2
     9    18     9    1
    10     7     6    1
    11    11    10    1
    12     9    10    1
    13     9     8    1
    14     6     8    1
    15     6     5    1
    16     8     4    1
    17     4     3    1
    18     5     3    1
    19     3     2    1
    20     2     1    1
