@<TRIPOS>MOLECULE
3onf_NAD_A_1.pdb
 44 48 0 0 0
SMALL
GASTEIGER

@<TRIPOS>ATOM
      1  PA        -4.7700   24.6660    6.8860 P.3   501  NAD501      0.2189
      2  O1A       -5.2110   23.7980    5.7380 O.2   501  NAD501     -0.5170
      3  O2A       -5.7060   25.5450    7.5850 O.3   501  NAD501     -0.4371
      4  O5B       -4.1020   23.6130    7.9190 O.3   501  NAD501     -0.3112
      5  C5B       -3.8010   24.0340    9.2570 C.3   501  NAD501      0.1813
      6  C4B       -4.0600   22.8750   10.2090 C.3   501  NAD501      0.1821
      7  O4B       -3.5620   23.3110   11.4890 O.3   501  NAD501     -0.3135
      8  C3B       -5.5900   22.7940   10.3350 C.3   501  NAD501      0.2184
      9  O3B       -6.0720   21.4610    9.9230 O.3   501  NAD501     -0.2174
     10  C2B       -5.8290   23.1060   11.8150 C.3   501  NAD501      0.2570
     11  O2B       -6.9090   22.3630   12.4470 O.3   501  NAD501     -0.2130
     12  C1B       -4.4710   22.7720   12.4180 C.3   501  NAD501      0.3186
     13  N9A       -4.2520   23.4730   13.7070 N.pl3 501  NAD501     -0.1439
     14  C8A       -4.6010   24.7010   14.1140 C.3   501  NAD501      0.3377
     15  N7A       -4.2160   24.8840   15.4100 N.2   501  NAD501     -0.2095
     16  C5A       -3.6060   23.7720   15.8120 C.2   501  NAD501      0.2526
     17  C6A       -3.0080   23.3630   17.0020 C.2   501  NAD501      0.4393
     18  N6A       -2.9380   24.1900   18.0750 N.pl3 501  NAD501      0.2180
     19  N1A       -2.4540   22.1320   17.0500 N.2   501  NAD501      0.0021
     20  C2A       -2.5130   21.2910   16.0100 C.3   501  NAD501      0.5254
     21  N3A       -3.1040   21.6540   14.8560 N.2   501  NAD501     -0.0055
     22  C4A       -3.6560   22.8730   14.7370 C.2   501  NAD501      0.3518
     23  O3        -3.5680   25.6030    6.4720 O.3   501  NAD501     -0.2703
     24  PN        -2.4170   25.1840    5.4300 P.3   501  NAD501      0.2189
     25  O1N       -2.7820   25.5640    4.0030 O.2   501  NAD501     -0.5170
     26  O2N       -1.9890   23.8010    5.7690 O.3   501  NAD501     -0.4371
     27  O5D       -1.3540   26.2500    5.8600 O.3   501  NAD501     -0.3112
     28  C5D       -0.6680   26.1940    7.1400 C.3   501  NAD501      0.1813
     29  C4D        0.3510   27.3150    7.2830 C.3   501  NAD501      0.1799
     30  O4D        1.4100   27.0810    6.2700 O.3   501  NAD501     -0.3327
     31  C3D       -0.2150   28.6940    6.9570 C.3   501  NAD501      0.2158
     32  O3D        0.5360   29.5830    7.7420 O.3   501  NAD501     -0.2175
     33  C2D        0.1340   28.8930    5.4910 C.3   501  NAD501      0.2309
     34  O2D        0.2520   30.2420    5.0960 O.3   501  NAD501     -0.2158
     35  C1D        1.5300   28.3140    5.4510 C.3   501  NAD501      0.2263
     36  N1N        2.0570   27.7660    4.1730 N.pl3 501  NAD501     -0.2787
     37  C2N        3.4430   27.5970    4.1230 C.3   501  NAD501      0.1244
     38  C3N        4.0800   27.0450    3.0260 C.2   501  NAD501      0.0544
     39  C7N        5.6070   26.9440    2.9160 C.2   501  NAD501      0.2818
     40  O7N        6.1130   26.7950    1.7950 O.2   501  NAD501     -0.2670
     41  N7N        6.3300   27.1800    4.0450 N.am  501  NAD501     -0.0839
     42  C4N        3.3080   26.6080    1.9480 C.2   501  NAD501      0.0033
     43  C5N        1.9130   26.7500    1.9850 C.2   501  NAD501      0.0157
     44  C6N        1.2640   27.3180    3.0940 C.2   501  NAD501      0.0633
@<TRIPOS>BOND
     1    40    39    2
     2    42    43    1
     3    42    38    2
     4    43    44    2
     5    39    38    1
     6    39    41   am
     7    38    37    1
     8    44    36    1
     9    25    24    2
    10    37    36    1
    11    36    35    1
    12    34    33    1
    13    24    26    1
    14    24    27    1
    15    24    23    1
    16    35    33    1
    17    35    30    1
    18    33    31    1
    19     2     1    2
    20    27    28    1
    21    30    29    1
    22    23     1    1
    23     1     3    1
    24     1     4    1
    25    31    29    1
    26    31    32    1
    27    28    29    1
    28     4     5    1
    29     5     6    1
    30     9     8    1
    31     6     8    1
    32     6     7    1
    33     8    10    1
    34     7    12    1
    35    10    12    1
    36    10    11    1
    37    12    13    1
    38    13    14    1
    39    13    22    1
    40    14    15    1
    41    22    21    2
    42    22    16    1
    43    21    20    1
    44    15    16    2
    45    16    17    1
    46    20    19    1
    47    17    19    2
    48    17    18    1
