@<TRIPOS>MOLECULE
3oni_JQ1_A_1.pdb
 31 34 0 0 0
SMALL
GASTEIGER

@<TRIPOS>ATOM
      1  CAA       41.6760   39.4420   -5.6850 C.3     1  JQ11        0.0742
      2  CAB       47.2250   38.0290   -7.5470 C.3     1  JQ11        0.0379
      3  CAC       46.6130   39.4770  -10.2300 C.3     1  JQ11        0.0313
      4  CAD       45.5630   44.7870  -12.4880 C.3     1  JQ11        0.0437
      5  CAE       46.7870   46.3120  -10.8610 C.3     1  JQ11        0.0437
      6  CAF       47.3580   43.8960  -10.9990 C.3     1  JQ11        0.0437
      7  OAG       43.7120   46.0620  -10.6100 O.2     1  JQ11       -0.2500
      8 CLAH       43.1510   38.5860  -15.3880 Cl      1  JQ11       -0.0822
      9  CAI       43.4740   38.5210  -12.7220 C.ar    1  JQ11        0.0114
     10  CAJ       43.5130   40.6900  -13.7520 C.ar    1  JQ11        0.0114
     11  CAK       43.6690   39.1220  -11.4940 C.ar    1  JQ11        0.0023
     12  CAL       43.7210   41.2730  -12.4970 C.ar    1  JQ11        0.0023
     13  CAM       43.2260   44.5380   -8.8510 C.3     1  JQ11        0.1415
     14  NAN       43.4320   42.3010   -9.9020 N.2     1  JQ11       -0.2640
     15  NAO       41.0850   41.8580   -6.2990 N.ar    1  JQ11       -0.1332
     16  NAP       41.5450   42.7850   -7.0420 N.ar    1  JQ11       -0.1313
     17  OAQ       45.3370   44.6500  -10.0230 O.3     1  JQ11       -0.4557
     18  SAR       44.9000   39.3100   -6.5970 S.2     1  JQ11       -0.0740
     19  CAS       44.1240   45.1620   -9.9100 C.2     1  JQ11        0.3192
     20  CAT       44.0140   41.1250  -10.0590 C.2     1  JQ11        0.0780
     21  CAU       43.4020   39.3160  -13.8370 C.ar    1  JQ11        0.0577
     22  CAV       41.8670   40.7710   -6.3990 C.ar    1  JQ11        0.1477
     23  CAW       43.8170   40.5030  -11.3460 C.ar    1  JQ11        0.0174
     24  CAX       46.0320   38.9350   -7.8080 C.ar    1  JQ11        0.0051
     25  CAY       45.7400   39.5990   -8.9890 C.ar    1  JQ11       -0.0165
     26  CAZ       42.6640   42.3300   -7.6050 C.ar    1  JQ11        0.1702
     27  CBA       44.5770   40.3920   -8.9700 C.ar    1  JQ11        0.0359
     28  CBB       43.9850   40.3290   -7.6570 C.ar    1  JQ11        0.0970
     29  CBC       43.5660   43.0600   -8.6200 C.3     1  JQ11        0.1727
     30  NBD       42.8790   41.0440   -7.2470 N.ar    1  JQ11       -0.2736
     31  CBE       46.2370   44.9240  -11.1230 C.3     1  JQ11        0.1363
@<TRIPOS>BOND
     1     8    21    1
     2    21    10   ar
     3    21     9   ar
     4    10    12   ar
     5     9    11   ar
     6    12    23   ar
     7     4    31    1
     8    11    23   ar
     9    23    20    1
    10    31     6    1
    11    31     5    1
    12    31    17    1
    13     7    19    2
    14     3    25    1
    15    20    14    2
    16    20    27    1
    17    17    19    1
    18    19    13    1
    19    14    29    1
    20    25    27   ar
    21    25    24   ar
    22    27    28   ar
    23    13    29    1
    24    29    26    1
    25    24     2    1
    26    24    18   ar
    27    28    30    1
    28    28    18   ar
    29    26    30   ar
    30    26    16   ar
    31    30    22   ar
    32    16    15   ar
    33    22    15   ar
    34    22     1    1
