@<TRIPOS>MOLECULE
3onw_GDP_A_1.pdb
 28 30 0 0 0
SMALL
GASTEIGER

@<TRIPOS>ATOM
      1  PB        16.3260   32.7950   20.9040 P.3   401  GDP401      0.5373
      2  O1B       15.3250   31.6940   21.0800 O.3   401  GDP401     -0.1143
      3  O2B       16.5850   33.5010   22.2120 O.3   401  GDP401     -0.1143
      4  O3B       17.6340   32.2390   20.3840 O.2   401  GDP401     -0.2221
      5  O3A       15.7560   33.8830   19.8610 O.3   401  GDP401     -0.2261
      6  PA        14.1830   34.0720   19.6460 P.3   401  GDP401      0.2231
      7  O1A       13.4410   33.9890   20.9480 O.3   401  GDP401     -0.4370
      8  O2A       13.6320   33.0500   18.6970 O.2   401  GDP401     -0.5169
      9  O5'       14.0630   35.5390   19.0020 O.3   401  GDP401     -0.3111
     10  C5'       14.4310   36.7140   19.7160 C.3   401  GDP401      0.1813
     11  C4'       13.5160   37.8930   19.3760 C.3   401  GDP401      0.1799
     12  O4'       13.8510   38.3810   18.0880 O.3   401  GDP401     -0.3326
     13  C3'       12.0290   37.5790   19.3130 C.3   401  GDP401      0.2158
     14  O3'       11.3420   38.7590   19.7780 O.3   401  GDP401     -0.2175
     15  C2'       11.7420   37.3260   17.8320 C.3   401  GDP401      0.2310
     16  O2'       10.4300   37.7450   17.4270 O.3   401  GDP401     -0.2158
     17  C1'       12.7570   38.2180   17.1710 C.3   401  GDP401      0.2293
     18  N9        13.3510   37.7160   15.9140 N.pl3 401  GDP401     -0.2354
     19  C8        13.9850   36.5450   15.7040 C.3   401  GDP401      0.2246
     20  N7        14.4540   36.4760   14.4260 N.2   401  GDP401     -0.2322
     21  C5        14.1190   37.6410   13.8160 C.2   401  GDP401      0.2182
     22  C6        14.2960   38.2380   12.4760 C.1   401  GDP401      0.2372
     23  O6        14.9060   37.6130   11.5720 O.2   401  GDP401     -0.2069
     24  N1        13.8190   39.4750   12.2680 N.2   401  GDP401     -0.2485
     25  C2        13.1710   40.1800   13.2170 C.1   401  GDP401      0.2531
     26  N2        12.7020   41.4070   12.9040 N.pl3 401  GDP401     -0.0226
     27  N3        12.9690   39.6980   14.4630 N.2   401  GDP401     -0.3074
     28  C4        13.4200   38.4620   14.8080 C.2   401  GDP401      0.2300
@<TRIPOS>BOND
     1    23    22    2
     2    24    22    2
     3    24    25    2
     4    22    21    1
     5    26    25    1
     6    25    27    2
     7    21    20    2
     8    21    28    1
     9    20    19    1
    10    27    28    2
    11    28    18    1
    12    19    18    1
    13    18    17    1
    14    17    15    1
    15    17    12    1
    16    16    15    1
    17    15    13    1
    18    12    11    1
    19     8     6    2
    20     9     6    1
    21     9    10    1
    22    13    11    1
    23    13    14    1
    24    11    10    1
    25     6     5    1
    26     6     7    1
    27     5     1    1
    28     4     1    2
    29     1     2    1
    30     1     3    1
