@<TRIPOS>MOLECULE
3ony_FUC_A_1.pdb
 11 11 0 0 0
SMALL
GASTEIGER

@<TRIPOS>ATOM
      1  C1        -5.4530    7.6520  -13.5340 C.3     1  FUC1        0.3023
      2  C2        -6.1820    8.0770  -14.8040 C.3     1  FUC1        0.2434
      3  C3        -7.5410    7.4670  -14.7920 C.3     1  FUC1        0.2198
      4  C4        -8.3070    7.7880  -13.5340 C.3     1  FUC1        0.2118
      5  C5        -7.5160    7.4300  -12.3030 C.3     1  FUC1        0.1509
      6  C6        -8.1550    7.8470  -11.0080 C.3     1  FUC1        0.0350
      7  O1        -5.1900    6.2760  -13.6070 O.3     1  FUC1       -0.1869
      8  O2        -5.5120    7.7380  -16.0210 O.3     1  FUC1       -0.2148
      9  O3        -8.2560    7.9510  -15.9450 O.3     1  FUC1       -0.2174
     10  O4        -8.5990    9.1840  -13.5880 O.3     1  FUC1       -0.2177
     11  O5        -6.1930    8.0380  -12.3920 O.3     1  FUC1       -0.3264
@<TRIPOS>BOND
     1     8     2    1
     2     9     3    1
     3     2     3    1
     4     2     1    1
     5     3     4    1
     6     7     1    1
     7    10     4    1
     8     1    11    1
     9     4     5    1
    10    11     5    1
    11     5     6    1
