@<TRIPOS>MOLECULE
3onz_HEM_A_1.pdb
 43 50 0 0 0
SMALL
GASTEIGER

@<TRIPOS>ATOM
      1  CHA       16.3180    0.6950   16.7770 C.2   143  HEM143      0.0000
      2  CHB       13.9800    4.9150   16.1130 C.2   143  HEM143      0.0000
      3  CHC       10.8710    2.7180   13.1160 C.2   143  HEM143      0.0000
      4  CHD       12.6070   -1.5920   14.5270 C.2   143  HEM143      0.0000
      5  C1A       15.9620    2.0340   16.8760 C.2   143  HEM143      0.0000
      6  C2A       16.6280    3.0560   17.6640 C.2   143  HEM143      0.0000
      7  C3A       15.9820    4.2200   17.4750 C.2   143  HEM143      0.0000
      8  C4A       14.8810    3.9760   16.5670 C.2   143  HEM143      0.0000
      9  CMA       16.2920    5.6000   18.1160 C.3   143  HEM143      0.0000
     10  CAA       17.8630    2.8080   18.5600 C.3   143  HEM143      0.0000
     11  CBA       19.0120    3.6260   17.9730 C.3   143  HEM143      0.0000
     12  CGA       20.3360    3.1180   18.4820 C.2   143  HEM143      0.0000
     13  O1A       20.3630    2.1880   19.3410 O.co2 143  HEM143      0.0000
     14  O2A       21.3750    3.6520   18.0140 O.co2 143  HEM143      0.0000
     15  C1B       12.9640    4.7080   15.2030 C.ar  143  HEM143      0.0000
     16  C2B       12.1050    5.7240   14.6250 C.ar  143  HEM143      0.0000
     17  C3B       11.2560    5.1060   13.7840 C.ar  143  HEM143      0.0000
     18  C4B       11.5360    3.6920   13.8270 C.ar  143  HEM143      0.0000
     19  CMB       12.2210    7.2390   14.9480 C.3   143  HEM143      0.0000
     20  CAB       10.1050    5.6690   12.9040 C.2   143  HEM143      0.0000
     21  CBB        9.5130    6.8370   13.1350 C.2   143  HEM143      0.0000
     22  C1C       11.0120    1.3650   13.2910 C.2   143  HEM143      0.0000
     23  C2C       10.1290    0.3410   12.7580 C.2   143  HEM143      0.0000
     24  C3C       10.6230   -0.8470   13.1440 C.2   143  HEM143      0.0000
     25  C4C       11.8140   -0.6130   13.9480 C.2   143  HEM143      0.0000
     26  CMC        8.8800    0.6490   11.8960 C.3   143  HEM143      0.0000
     27  CAC       10.0550   -2.2620   12.8910 C.2   143  HEM143      0.0000
     28  CBC        8.7450   -2.4200   12.7020 C.2   143  HEM143      0.0000
     29  C1D       13.7510   -1.4000   15.2750 C.ar  143  HEM143      0.0000
     30  C2D       14.4910   -2.4580   15.9280 C.ar  143  HEM143      0.0000
     31  C3D       15.6610   -1.7570   16.6190 C.ar  143  HEM143      0.0000
     32  C4D       15.5040   -0.3370   16.3410 C.ar  143  HEM143      0.0000
     33  CMD       14.1850   -3.9780   15.9140 C.3   143  HEM143      0.0000
     34  CAD       16.7410   -2.4600   17.4690 C.3   143  HEM143      0.0000
     35  CBD       16.0780   -2.6910   18.8160 C.3   143  HEM143      0.0000
     36  CGD       17.0770   -3.2360   19.8020 C.2   143  HEM143      0.0000
     37  O1D       17.7710   -4.2390   19.4760 O.co2 143  HEM143      0.0000
     38  O2D       17.1470   -2.6720   20.9210 O.co2 143  HEM143      0.0000
     39  NA        14.9060    2.6430   16.2240 N.2   143  HEM143      0.0000
     40  NB        12.5800    3.4810   14.6940 N.ar  143  HEM143      0.0000
     41  NC        12.0280    0.7450   14.0030 N.2   143  HEM143      0.0000
     42  ND        14.3780   -0.1790   15.5390 N.ar  143  HEM143      0.0000
     43 FE         13.4510    1.6620   15.1110 Fe    143  HEM143      0.0000
@<TRIPOS>BOND
     1    26    23    1
     2    28    27    2
     3    23    24    2
     4    23    22    1
     5    27    24    1
     6    20    21    2
     7    20    17    1
     8     3    22    2
     9     3    18    1
    10    24    25    1
    11    22    41    1
    12    17    18   ar
    13    17    16   ar
    14    18    40   ar
    15    25    41    2
    16    25     4    1
    17    41    43    1
    18     4    29    2
    19    16    19    1
    20    16    15   ar
    21    40    43    1
    22    40    15   ar
    23    43    42    1
    24    43    39    1
    25    15     2    1
    26    29    42   ar
    27    29    30   ar
    28    42    32   ar
    29    33    30    1
    30    30    31   ar
    31     2     8    2
    32    39     8    1
    33    39     5    2
    34    32    31   ar
    35    32     1    2
    36     8     7    1
    37    31    34    1
    38     1     5    1
    39     5     6    1
    40    34    35    1
    41     7     6    2
    42     7     9    1
    43     6    10    1
    44    11    12    1
    45    11    10    1
    46    14    12   ar
    47    12    13   ar
    48    35    36    1
    49    37    36   ar
    50    36    38   ar
