@<TRIPOS>MOLECULE
3oo3_HEM_A_1.pdb
 43 50 0 0 0
SMALL
GASTEIGER

@<TRIPOS>ATOM
      1  CHA      -13.3350   54.7770    7.9420 C.2   400  HEM400      0.0000
      2  CHB      -13.4920   59.5760    7.2440 C.2   400  HEM400      0.0000
      3  CHC      -16.9500   58.9420    3.9130 C.2   400  HEM400      0.0000
      4  CHD      -17.2680   54.2640    5.0900 C.2   400  HEM400      0.0000
      5  C1A      -13.0420   56.1220    8.0170 C.2   400  HEM400      0.0000
      6  C2A      -11.9910   56.7160    8.8190 C.2   400  HEM400      0.0000
      7  C3A      -12.0450   58.0470    8.6270 C.2   400  HEM400      0.0000
      8  C4A      -13.1220   58.3280    7.7020 C.2   400  HEM400      0.0000
      9  CMA      -11.1400   59.1420    9.2470 C.3   400  HEM400      0.0000
     10  CAA      -11.0180   55.9080    9.7270 C.3   400  HEM400      0.0000
     11  CBA      -11.7000   55.6020   11.0640 C.3   400  HEM400      0.0000
     12  CGA      -10.7450   54.9390   12.0480 C.2   400  HEM400      0.0000
     13  O1A      -11.1490   54.7050   13.2240 O.co2 400  HEM400      0.0000
     14  O2A       -9.5730   54.6290   11.6740 O.co2 400  HEM400      0.0000
     15  C1B      -14.4070   59.8310    6.2560 C.ar  400  HEM400      0.0000
     16  C2B      -14.6890   61.1240    5.6510 C.ar  400  HEM400      0.0000
     17  C3B      -15.6540   60.9300    4.7310 C.ar  400  HEM400      0.0000
     18  C4B      -16.0120   59.5270    4.7410 C.ar  400  HEM400      0.0000
     19  CMB      -13.9830   62.4540    6.0320 C.3   400  HEM400      0.0000
     20  CAB      -16.3360   61.9620    3.8050 C.2   400  HEM400      0.0000
     21  CBB      -15.6220   62.8500    3.1090 C.2   400  HEM400      0.0000
     22  C1C      -17.2960   57.6140    3.8700 C.2   400  HEM400      0.0000
     23  C2C      -18.1680   56.9760    2.9050 C.2   400  HEM400      0.0000
     24  C3C      -18.2410   55.6790    3.2550 C.2   400  HEM400      0.0000
     25  C4C      -17.4290   55.4640    4.4320 C.2   400  HEM400      0.0000
     26  CMC      -18.8420   57.6950    1.7020 C.3   400  HEM400      0.0000
     27  CAC      -19.0330   54.5300    2.5950 C.2   400  HEM400      0.0000
     28  CBC      -18.7580   54.1370    1.3580 C.2   400  HEM400      0.0000
     29  C1D      -16.2390   53.9330    5.9410 C.ar  400  HEM400      0.0000
     30  C2D      -15.9610   52.5940    6.4420 C.ar  400  HEM400      0.0000
     31  C3D      -14.7260   52.7750    7.3260 C.ar  400  HEM400      0.0000
     32  C4D      -14.3930   54.1870    7.2840 C.ar  400  HEM400      0.0000
     33  CMD      -16.7330   51.2700    6.1650 C.3   400  HEM400      0.0000
     34  CAD      -14.0070   51.6780    8.1210 C.3   400  HEM400      0.0000
     35  CBD      -12.9450   51.0400    7.2430 C.3   400  HEM400      0.0000
     36  CGD      -12.1100   50.2100    8.1760 C.2   400  HEM400      0.0000
     37  O1D      -12.2590   50.3670    9.4160 O.co2 400  HEM400      0.0000
     38  O2D      -11.3010   49.3850    7.6890 O.co2 400  HEM400      0.0000
     39  NA       -13.7110   57.1330    7.3600 N.2   400  HEM400      0.0000
     40  NB       -15.2300   58.8900    5.6820 N.ar  400  HEM400      0.0000
     41  NC       -16.8700   56.6680    4.7810 N.2   400  HEM400      0.0000
     42  ND       -15.2930   54.8270    6.4500 N.ar  400  HEM400      0.0000
     43 FE        -15.1240   56.8640    5.8810 Fe    400  HEM400      0.0000
@<TRIPOS>BOND
     1    28    27    2
     2    26    23    1
     3    27    24    1
     4    23    24    2
     5    23    22    1
     6    21    20    2
     7    24    25    1
     8    20    17    1
     9    22     3    2
    10    22    41    1
    11     3    18    1
    12    25    41    2
    13    25     4    1
    14    17    18   ar
    15    17    16   ar
    16    18    40   ar
    17    41    43    1
    18     4    29    2
    19    16    19    1
    20    16    15   ar
    21    40    43    1
    22    40    15   ar
    23    43    42    1
    24    43    39    1
    25    29    30   ar
    26    29    42   ar
    27    33    30    1
    28    15     2    1
    29    30    31   ar
    30    42    32   ar
    31    35    34    1
    32    35    36    1
    33     2     8    2
    34    32    31   ar
    35    32     1    2
    36    31    34    1
    37    39     8    1
    38    39     5    2
    39    38    36   ar
    40     8     7    1
    41     1     5    1
    42     5     6    1
    43    36    37   ar
    44     7     6    2
    45     7     9    1
    46     6    10    1
    47    10    11    1
    48    11    12    1
    49    14    12   ar
    50    12    13   ar
