@<TRIPOS>MOLECULE
3oo4_NTE_A_1.pdb
 46 53 0 0 0
SMALL
GASTEIGER

@<TRIPOS>ATOM
      1  N         12.0660    1.3430   13.7760 N.2   142  NTE142      0.0000
      2 FE         13.5570    2.2970   14.8660 Fe    142  NTE142      0.0000
      3  O1         8.4760    8.8640   11.6640 O.2   142  NTE142      0.0000
      4  O2         7.9400    6.8230   11.7930 O.2   142  NTE142      0.0000
      5  NA        14.9540    3.2230   16.0970 N.2   142  NTE142      0.0000
      6  NB        12.7040    4.1510   14.4580 N.ar  142  NTE142      0.0000
      7  NC         8.7010    7.7380   12.0780 N.pl3 142  NTE142      0.0000
      8  ND        14.3360    0.4370   15.3870 N.ar  142  NTE142      0.0000
      9  C1A       15.9500    2.6290   16.7540 C.2   142  NTE142      0.0000
     10  O1A       20.4090    2.9450   19.3860 O.co2 142  NTE142      0.0000
     11  C1B       13.0670    5.3350   14.9550 C.ar  142  NTE142      0.0000
     12  C1C       11.0990    1.9470   13.0790 C.2   142  NTE142      0.0000
     13  C1D       13.8310   -0.7500   15.0470 C.ar  142  NTE142      0.0000
     14  O1D       17.3810   -2.4190   20.4580 O.co2 142  NTE142      0.0000
     15  C2A       16.7170    3.6160   17.5400 C.2   142  NTE142      0.0000
     16  O2A       21.3700    3.8110   17.5760 O.co2 142  NTE142      0.0000
     17  C2B       12.1960    6.4360   14.4630 C.ar  142  NTE142      0.0000
     18  C2C       10.1960    0.9550   12.4540 C.2   142  NTE142      0.0000
     19  C2D       14.6370   -1.8520   15.6290 C.ar  142  NTE142      0.0000
     20  O2D       17.4380   -4.0880   19.0580 O.co2 142  NTE142      0.0000
     21  C3A       16.1090    4.8400   17.2840 C.2   142  NTE142      0.0000
     22  C3B       11.3030    5.7930   13.6320 C.ar  142  NTE142      0.0000
     23  C3C       10.6970   -0.2660   12.8450 C.2   142  NTE142      0.0000
     24  C3D       15.6580   -1.2330   16.3160 C.ar  142  NTE142      0.0000
     25  C4A       14.9960    4.5250   16.3640 C.2   142  NTE142      0.0000
     26  C4B       11.6530    4.3540   13.6640 C.ar  142  NTE142      0.0000
     27  C4C       11.8760    0.0280   13.6780 C.2   142  NTE142      0.0000
     28  C4D       15.4190    0.2250   16.1400 C.ar  142  NTE142      0.0000
     29  CAA       17.9220    3.3280   18.4050 C.3   142  NTE142      0.0000
     30  CAB       10.1470    6.2460   12.8080 C.2   142  NTE142      0.0000
     31  CAC       10.2660   -1.6620   12.5710 C.2   142  NTE142      0.0000
     32  CAD       16.7630   -1.8950   17.1100 C.3   142  NTE142      0.0000
     33  CBA       19.0590    4.2090   17.8980 C.3   142  NTE142      0.0000
     34  CBB        9.7060    7.4960   12.8120 C.2   142  NTE142      0.0000
     35  CBC        8.9790   -1.9830   12.6550 C.2   142  NTE142      0.0000
     36  CBD       16.1190   -2.1770   18.4700 C.3   142  NTE142      0.0000
     37  CGA       20.3780    3.6110   18.3190 C.2   142  NTE142      0.0000
     38  CGD       17.0470   -2.9480   19.3850 C.2   142  NTE142      0.0000
     39  CHA       16.3180    1.2040   16.7720 C.2   142  NTE142      0.0000
     40  CHB       14.1510    5.6210   15.8960 C.2   142  NTE142      0.0000
     41  CHC       10.8650    3.3910   12.8930 C.2   142  NTE142      0.0000
     42  CHD       12.6430   -1.0820   14.2620 C.2   142  NTE142      0.0000
     43  CMA       16.4230    6.2220   17.7960 C.3   142  NTE142      0.0000
     44  CMB       12.3070    7.9120   14.7710 C.3   142  NTE142      0.0000
     45  CMC        8.9970    1.2040   11.5750 C.3   142  NTE142      0.0000
     46  CMD       14.3920   -3.3220   15.4650 C.3   142  NTE142      0.0000
@<TRIPOS>BOND
     1    45    18    1
     2     3     7    2
     3     4     7    2
     4     7    34    1
     5    18    23    2
     6    18    12    1
     7    31    35    2
     8    31    23    1
     9    30    34    2
    10    30    22    1
    11    23    27    1
    12    41    12    2
    13    41    26    1
    14    12     1    1
    15    22    26   ar
    16    22    17   ar
    17    26     6   ar
    18    27     1    2
    19    27    42    1
    20     1     2    1
    21    42    13    2
    22     6     2    1
    23     6    11   ar
    24    17    44    1
    25    17    11   ar
    26     2     8    1
    27     2     5    1
    28    11    40    1
    29    13     8   ar
    30    13    19   ar
    31     8    28   ar
    32    46    19    1
    33    19    24   ar
    34    40    25    2
    35     5    25    1
    36     5     9    2
    37    28    24   ar
    38    28    39    2
    39    24    32    1
    40    25    21    1
    41     9    39    1
    42     9    15    1
    43    32    36    1
    44    21    15    2
    45    21    43    1
    46    15    29    1
    47    16    37   ar
    48    33    37    1
    49    33    29    1
    50    37    10   ar
    51    36    38    1
    52    20    38   ar
    53    38    14   ar
