@<TRIPOS>MOLECULE
3oo4_HEM_B_1.pdb
 43 50 0 0 0
SMALL
GASTEIGER

@<TRIPOS>ATOM
      1  CHA      -20.1810    8.1440   -1.5770 C.2   147  HEM147      0.0000
      2  CHB      -19.0320    5.3770    2.2180 C.2   147  HEM147      0.0000
      3  CHC      -14.3160    5.9320    1.2160 C.2   147  HEM147      0.0000
      4  CHD      -15.4250    8.9210   -2.4650 C.2   147  HEM147      0.0000
      5  C1A      -20.2780    7.3640   -0.4610 C.2   147  HEM147      0.0000
      6  C2A      -21.5010    7.0220    0.2280 C.2   147  HEM147      0.0000
      7  C3A      -21.1860    6.2470    1.2750 C.2   147  HEM147      0.0000
      8  C4A      -19.7490    6.0980    1.2940 C.2   147  HEM147      0.0000
      9  CMA      -22.1290    5.6180    2.3260 C.3   147  HEM147      0.0000
     10  CAA      -22.9050    7.4820   -0.2210 C.3   147  HEM147      0.0000
     11  CBA      -23.3520    6.5470   -1.3390 C.3   147  HEM147      0.0000
     12  CGA      -24.8260    6.7770   -1.5760 C.2   147  HEM147      0.0000
     13  O1A      -25.5880    5.7730   -1.6630 O.co2 147  HEM147      0.0000
     14  O2A      -25.2340    7.9660   -1.6580 O.co2 147  HEM147      0.0000
     15  C1B      -17.6630    5.2410    2.2570 C.ar  147  HEM147      0.0000
     16  C2B      -16.9210    4.3940    3.1650 C.ar  147  HEM147      0.0000
     17  C3B      -15.6230    4.5370    2.8940 C.ar  147  HEM147      0.0000
     18  C4B      -15.4830    5.4940    1.8070 C.ar  147  HEM147      0.0000
     19  CMB      -17.5060    3.4630    4.2600 C.3   147  HEM147      0.0000
     20  CAB      -14.5200    3.7810    3.6650 C.2   147  HEM147      0.0000
     21  CBB      -13.2540    3.8180    3.2540 C.2   147  HEM147      0.0000
     22  C1C      -14.1970    6.8550    0.1950 C.2   147  HEM147      0.0000
     23  C2C      -12.9780    7.5130   -0.2470 C.2   147  HEM147      0.0000
     24  C3C      -13.2910    8.3260   -1.2770 C.2   147  HEM147      0.0000
     25  C4C      -14.7190    8.2360   -1.4940 C.2   147  HEM147      0.0000
     26  CMC      -11.5950    7.2540    0.3820 C.3   147  HEM147      0.0000
     27  CAC      -12.4070    9.2830   -2.1110 C.2   147  HEM147      0.0000
     28  CBC      -11.2150    9.7120   -1.6730 C.2   147  HEM147      0.0000
     29  C1D      -16.7990    9.0120   -2.5610 C.ar  147  HEM147      0.0000
     30  C2D      -17.5190    9.8790   -3.4720 C.ar  147  HEM147      0.0000
     31  C3D      -18.9960    9.6250   -3.1770 C.ar  147  HEM147      0.0000
     32  C4D      -19.0230    8.6390   -2.1280 C.ar  147  HEM147      0.0000
     33  CMD      -16.9340   10.8420   -4.5230 C.3   147  HEM147      0.0000
     34  CAD      -20.2140   10.2620   -3.8650 C.3   147  HEM147      0.0000
     35  CBD      -20.4360    9.4400   -5.1310 C.3   147  HEM147      0.0000
     36  CGD      -21.7310    9.8200   -5.8110 C.2   147  HEM147      0.0000
     37  O1D      -21.8850    9.4970   -7.0220 O.co2 147  HEM147      0.0000
     38  O2D      -22.5990   10.4470   -5.1450 O.co2 147  HEM147      0.0000
     39  NA       -19.2310    6.7960    0.2210 N.2   147  HEM147      0.0000
     40  NB       -16.7590    5.8950    1.4400 N.ar  147  HEM147      0.0000
     41  NC       -15.2260    7.3200   -0.5950 N.2   147  HEM147      0.0000
     42  ND       -17.7150    8.3030   -1.7870 N.ar  147  HEM147      0.0000
     43 FE        -17.2410    7.0720   -0.1850 Fe    147  HEM147      0.0000
@<TRIPOS>BOND
     1    37    36   ar
     2    36    38   ar
     3    36    35    1
     4    35    34    1
     5    33    30    1
     6    34    31    1
     7    30    31   ar
     8    30    29   ar
     9    31    32   ar
    10    29     4    2
    11    29    42   ar
    12     4    25    1
    13    32    42   ar
    14    32     1    2
    15    27    28    2
    16    27    24    1
    17    42    43    1
    18    13    12   ar
    19    14    12   ar
    20     1     5    1
    21    12    11    1
    22    25    24    1
    23    25    41    2
    24    11    10    1
    25    24    23    2
    26    41    43    1
    27    41    22    1
    28     5    39    2
    29     5     6    1
    30    23    22    1
    31    23    26    1
    32    10     6    1
    33    43    39    1
    34    43    40    1
    35    22     3    2
    36    39     8    1
    37     6     7    2
    38     3    18    1
    39     7     8    1
    40     7     9    1
    41     8     2    2
    42    40    18   ar
    43    40    15   ar
    44    18    17   ar
    45     2    15    1
    46    15    16   ar
    47    17    16   ar
    48    17    20    1
    49    16    19    1
    50    21    20    2
