@<TRIPOS>MOLECULE
3oo5_NTE_A_1.pdb
 46 53 0 0 0
SMALL
GASTEIGER

@<TRIPOS>ATOM
      1  N         12.0130    0.8350   13.8960 N.2   142  NTE142      0.0000
      2 FE         13.5080    1.7780   15.0020 Fe    142  NTE142      0.0000
      3  O1         8.4660    8.4330   11.8940 O.2   142  NTE142      0.0000
      4  O2         7.9440    6.3790   11.7140 O.2   142  NTE142      0.0000
      5  NA        14.8990    2.7360   16.2420 N.2   142  NTE142      0.0000
      6  NB        12.6260    3.6390   14.6120 N.ar  142  NTE142      0.0000
      7  NC         8.6910    7.2610   12.1350 N.pl3 142  NTE142      0.0000
      8  ND        14.3210   -0.0810   15.5040 N.ar  142  NTE142      0.0000
      9  C1A       15.9140    2.1390   16.8740 C.2   142  NTE142      0.0000
     10  O1A       20.1500    2.3850   19.8700 O.co2 142  NTE142      0.0000
     11  C1B       12.9750    4.8300   15.1450 C.ar  142  NTE142      0.0000
     12  C1C       11.0690    1.4550   13.1790 C.2   142  NTE142      0.0000
     13  C1D       13.8110   -1.2740   15.1790 C.ar  142  NTE142      0.0000
     14  O1D       17.2740   -2.6390   20.6370 O.co2 142  NTE142      0.0000
     15  C2A       16.6830    3.1160   17.6930 C.2   142  NTE142      0.0000
     16  O2A       21.4980    3.0260   18.2450 O.co2 142  NTE142      0.0000
     17  C2B       12.1160    5.9230   14.6290 C.ar  142  NTE142      0.0000
     18  C2C       10.1550    0.4740   12.5340 C.2   142  NTE142      0.0000
     19  C2D       14.6430   -2.3690   15.7390 C.ar  142  NTE142      0.0000
     20  O2D       17.7700   -4.2890   19.2590 O.co2 142  NTE142      0.0000
     21  C3A       16.0400    4.3220   17.5060 C.2   142  NTE142      0.0000
     22  C3B       11.2570    5.2940   13.7490 C.ar  142  NTE142      0.0000
     23  C3C       10.6260   -0.7650   12.9680 C.2   142  NTE142      0.0000
     24  C3D       15.6840   -1.7430   16.3960 C.ar  142  NTE142      0.0000
     25  C4A       14.9170    4.0320   16.5730 C.2   142  NTE142      0.0000
     26  C4B       11.6150    3.8550   13.7780 C.ar  142  NTE142      0.0000
     27  C4C       11.8130   -0.4830   13.8100 C.2   142  NTE142      0.0000
     28  C4D       15.4190   -0.2830   16.2280 C.ar  142  NTE142      0.0000
     29  CAA       17.8930    2.8060   18.5570 C.3   142  NTE142      0.0000
     30  CAB       10.1290    5.7380   12.8960 C.2   142  NTE142      0.0000
     31  CAC       10.1980   -2.1710   12.7120 C.2   142  NTE142      0.0000
     32  CAD       16.8170   -2.3970   17.1750 C.3   142  NTE142      0.0000
     33  CBA       19.1630    3.3430   17.9040 C.3   142  NTE142      0.0000
     34  CBB        9.6840    6.9690   12.8650 C.2   142  NTE142      0.0000
     35  CBC        8.9560   -2.5390   12.9780 C.2   142  NTE142      0.0000
     36  CBD       16.1930   -2.6730   18.5330 C.3   142  NTE142      0.0000
     37  CGA       20.3520    2.8860   18.7330 C.2   142  NTE142      0.0000
     38  CGD       17.1600   -3.2310   19.5410 C.2   142  NTE142      0.0000
     39  CHA       16.3100    0.7190   16.8380 C.2   142  NTE142      0.0000
     40  CHB       14.0270    5.1290   16.1490 C.2   142  NTE142      0.0000
     41  CHC       10.8700    2.8950   12.9500 C.2   142  NTE142      0.0000
     42  CHD       12.5840   -1.5880   14.4210 C.2   142  NTE142      0.0000
     43  CMA       16.3650    5.6750   18.0900 C.3   142  NTE142      0.0000
     44  CMB       12.1940    7.3830   14.9840 C.3   142  NTE142      0.0000
     45  CMC        8.9860    0.8110   11.6480 C.3   142  NTE142      0.0000
     46  CMD       14.3860   -3.8420   15.5870 C.3   142  NTE142      0.0000
@<TRIPOS>BOND
     1    45    18    1
     2     4     7    2
     3     3     7    2
     4     7    34    1
     5    18    23    2
     6    18    12    1
     7    31    23    1
     8    31    35    2
     9    34    30    2
    10    30    22    1
    11    41    12    2
    12    41    26    1
    13    23    27    1
    14    12     1    1
    15    22    26   ar
    16    22    17   ar
    17    26     6   ar
    18    27     1    2
    19    27    42    1
    20     1     2    1
    21    42    13    2
    22     6     2    1
    23     6    11   ar
    24    17    44    1
    25    17    11   ar
    26     2     8    1
    27     2     5    1
    28    11    40    1
    29    13     8   ar
    30    13    19   ar
    31     8    28   ar
    32    46    19    1
    33    19    24   ar
    34    40    25    2
    35    28    24   ar
    36    28    39    2
    37     5    25    1
    38     5     9    2
    39    24    32    1
    40    25    21    1
    41    39     9    1
    42     9    15    1
    43    32    36    1
    44    21    15    2
    45    21    43    1
    46    15    29    1
    47    33    29    1
    48    33    37    1
    49    16    37   ar
    50    36    38    1
    51    37    10   ar
    52    20    38   ar
    53    38    14   ar
