@<TRIPOS>MOLECULE
3oo6_GAL_A_1.pdb
 12 12 0 0 0
SMALL
GASTEIGER

@<TRIPOS>ATOM
      1  C1        20.6740    1.4750   16.7810 C.3   405  GAL405      0.3024
      2  C2        19.6310    2.4320   16.1960 C.3   405  GAL405      0.2434
      3  C3        19.4000    3.5570   17.2010 C.3   405  GAL405      0.2199
      4  C4        19.1320    3.0520   18.6240 C.3   405  GAL405      0.2144
      5  C5        20.2500    2.0640   18.9850 C.3   405  GAL405      0.1836
      6  C6        20.1140    1.4890   20.3790 C.3   405  GAL405      0.2142
      7  O1        20.9530    0.3880   15.9220 O.3   405  GAL405     -0.1869
      8  O2        20.0990    3.0230   14.9870 O.3   405  GAL405     -0.2148
      9  O3        18.3770    4.3950   16.7270 O.3   405  GAL405     -0.2174
     10  O4        17.8420    2.4370   18.7540 O.3   405  GAL405     -0.2176
     11  O5        20.2270    1.0220   18.0500 O.3   405  GAL405     -0.3236
     12  O6        21.0960    0.4970   20.5810 O.3   405  GAL405     -0.2176
@<TRIPOS>BOND
     1     8     2    1
     2     7     1    1
     3     2     1    1
     4     2     3    1
     5     9     3    1
     6     1    11    1
     7     3     4    1
     8    11     5    1
     9     4    10    1
    10     4     5    1
    11     5     6    1
    12     6    12    1
