@<TRIPOS>MOLECULE
3oob_KDH_A_1.pdb
 33 36 0 0 0
SMALL
GASTEIGER

@<TRIPOS>ATOM
      1  O1        35.1000    2.5920   43.3990 O.3   402  KDH402     -0.2830
      2  C3        33.9200    2.0050   43.0530 C.ar  402  KDH402      0.2373
      3  C6        33.9050    0.7270   42.5090 C.ar  402  KDH402      0.2727
      4  O7        35.0730    0.0700   42.3240 O.3   402  KDH402     -0.2797
      5  C9        32.7110    0.1160   42.1720 C.ar  402  KDH402      0.2373
      6  O10       32.6970   -1.1450   41.6540 O.3   402  KDH402     -0.2830
      7  C12       31.5140    0.7940   42.3700 C.ar  402  KDH402      0.0449
      8  C14       31.5270    2.0790   42.9200 C.ar  402  KDH402      0.0274
      9  C15       30.2590    2.8090   43.1290 C.3   402  KDH402      0.2283
     10  C20       27.9930    2.5680   42.2880 C.ar  402  KDH402      0.1414
     11  C21       27.1700    2.2730   41.2150 C.ar  402  KDH402      0.0788
     12  C24       25.8020    2.4850   41.3310 C.ar  402  KDH402      0.2019
     13  C26       25.2630    2.9880   42.5090 C.ar  402  KDH402      0.0839
     14  C29       26.0990    3.2740   43.5870 C.ar  402  KDH402      0.1979
     15  C31       27.4660    3.0590   43.4800 C.ar  402  KDH402      0.0546
     16  C33       29.6680    2.5930   44.5200 C.3   402  KDH402      0.2175
     17  C36       29.8470    0.5350   45.8240 C.2   402  KDH402      0.3414
     18  C38       29.7490   -0.9640   45.8290 C.ar  402  KDH402      0.0822
     19  C39       30.2400   -1.6740   46.9090 C.ar  402  KDH402      0.0520
     20  C41       29.1620   -1.6470   44.7630 C.ar  402  KDH402      0.0520
     21  C01       28.3760    3.3810   44.6500 C.3   402  KDH402      0.0805
     22  O01       29.3340    2.3470   42.1540 O.3   402  KDH402     -0.4711
     23  O02       24.9990    2.1940   40.2740 O.3   402  KDH402     -0.2864
     24  O03       25.5770    3.7730   44.7410 O.3   402  KDH402     -0.2867
     25  C4        32.7300    2.6850   43.2580 C.ar  402  KDH402      0.0449
     26  O35       29.3290    1.2160   44.6630 O.3   402  KDH402     -0.4447
     27  O37       30.3310    1.1430   46.7720 O.2   402  KDH402     -0.2449
     28  C43       29.0830   -3.0470   44.7770 C.ar  402  KDH402      0.2377
     29  O44       28.5150   -3.7030   43.7220 O.3   402  KDH402     -0.2830
     30  C46       29.5750   -3.7560   45.8640 C.ar  402  KDH402      0.2727
     31  O47       29.5130   -5.1320   45.9260 O.3   402  KDH402     -0.2797
     32  C49       30.1540   -3.0650   46.9230 C.ar  402  KDH402      0.2377
     33  O50       30.6630   -3.7260   47.9930 O.3   402  KDH402     -0.2830
@<TRIPOS>BOND
     1    23    12    1
     2    11    12   ar
     3    11    10   ar
     4    12    13   ar
     5     6     5    1
     6    22    10    1
     7    22     9    1
     8     5     7   ar
     9     5     3   ar
    10    10    15   ar
    11     4     3    1
    12     7     8   ar
    13    13    14   ar
    14     3     2   ar
    15     8     9    1
    16     8    25   ar
    17     2    25   ar
    18     2     1    1
    19     9    16    1
    20    15    14   ar
    21    15    21    1
    22    14    24    1
    23    29    28    1
    24    16    21    1
    25    16    26    1
    26    26    17    1
    27    20    28   ar
    28    20    18   ar
    29    28    30   ar
    30    17    18    1
    31    17    27    2
    32    18    19   ar
    33    30    31    1
    34    30    32   ar
    35    19    32   ar
    36    32    33    1
