@<TRIPOS>MOLECULE
3ood_EPL_A_1.pdb
 17 17 0 0 0
SMALL
GASTEIGER

@<TRIPOS>ATOM
      1  O1        27.6400   19.6300   -0.9580 O.2   702  EPL702     -0.2152
      2  P         28.3990   20.2390    0.3110 P.3   702  EPL702      0.5346
      3  O2        30.0040   20.0350    0.1840 O.3   702  EPL702     -0.2637
      4  C8        30.8390   19.4570    1.1940 C.3   702  EPL702      0.1548
      5  C9        31.3110   18.0730    0.7950 C.3   702  EPL702      0.0353
      6  O4        28.1580   21.8220    0.5070 O.3   702  EPL702     -0.2637
      7  C10       29.2290   22.7420    0.7070 C.3   702  EPL702      0.1548
      8  C11       29.3210   23.6980   -0.4600 C.3   702  EPL702      0.0353
      9  O3        27.9420   19.5270    1.6850 O.3   702  EPL702     -0.4025
     10  C4        26.6390   19.4560    2.1160 C.ar  702  EPL702      0.1491
     11  C2        26.0210   18.2100    2.2210 C.ar  702  EPL702      0.0405
     12  C3        24.7050   18.1140    2.6630 C.ar  702  EPL702      0.0400
     13  C1        24.0010   19.2690    3.0140 C.ar  702  EPL702      0.1389
     14  O5        22.7000   19.1900    3.4590 O.3   702  EPL702     -0.4714
     15  C7        21.6620   18.6270    2.6530 C.3   702  EPL702      0.2525
     16  C5        24.6250   20.5120    2.9210 C.ar  702  EPL702      0.0400
     17  C6        25.9420   20.6080    2.4760 C.ar  702  EPL702      0.0405
@<TRIPOS>BOND
     1     1     2    2
     2     8     7    1
     3     3     2    1
     4     3     4    1
     5     2     6    1
     6     2     9    1
     7     6     7    1
     8     5     4    1
     9     9    10    1
    10    10    11   ar
    11    10    17   ar
    12    11    12   ar
    13    17    16   ar
    14    15    14    1
    15    12    13   ar
    16    16    13   ar
    17    13    14    1
