@<TRIPOS>MOLECULE
3oof_OOF_A_1.pdb
 37 41 0 0 0
SMALL
GASTEIGER

@<TRIPOS>ATOM
      1  N1        22.7090   11.0990   52.2500 N.pl3   1  OOF1       -0.2686
      2  C2        23.2350   11.8720   53.3320 C.2     1  OOF1        0.1837
      3  N3        23.9980   11.1550   54.1430 N.2     1  OOF1       -0.3892
      4  C4        23.1190    9.7900   52.4530 C.3     1  OOF1        0.1526
      5  C5        23.9120    9.8260   53.6590 C.2     1  OOF1        0.1352
      6  C6        20.6490   10.7520   50.9510 C.2     1  OOF1        0.2636
      7  C7        21.9730   11.5760   51.1060 C.3     1  OOF1        0.1540
      8  C8        22.8970    8.6180   51.7310 C.2     1  OOF1        0.0324
      9  C9        24.4390    8.6320   54.1800 C.2     1  OOF1        0.0616
     10  N10       19.9250   10.5460   52.1210 N.am    1  OOF1       -0.1778
     11  C11       23.4790    7.4490   52.2330 C.2     1  OOF1        0.1652
     12  C12       23.0210   13.3100   53.4270 C.ar    1  OOF1        0.0440
     13  C13       24.1950    7.4600   53.4640 C.2     1  OOF1        0.1694
     14  C14       14.9520    7.7890   52.5180 C.2     1  OOF1        0.3878
     15  O15       20.3030   10.3030   49.8470 O.2     1  OOF1       -0.2712
     16  C16       16.2170    8.5390   52.4880 C.ar    1  OOF1        0.0799
     17  O17       14.1300    7.6380   51.6140 O.co2   1  OOF1       -0.2406
     18  C18       22.7980   11.5070   49.7860 C.3     1  OOF1        0.0272
     19  C19       24.1170   14.1900   53.3660 C.ar    1  OOF1        0.0047
     20  C20       21.7340   13.8120   53.5660 C.ar    1  OOF1        0.0047
     21  C21       18.6900    9.8850   52.2810 C.ar    1  OOF1        0.0734
     22  C22       16.7080    9.2730   53.5720 C.ar    1  OOF1        0.0079
     23  C23       16.9540    8.4980   51.2990 C.ar    1  OOF1        0.0079
     24  F24       23.3280    6.2520   51.6160 F       1  OOF1       -0.2021
     25  F25       24.7460    6.2900   53.8320 F       1  OOF1       -0.2017
     26  O26       14.6540    7.1190   53.6640 O.co2   1  OOF1       -0.2406
     27  C27       22.5810   16.0550   53.5150 C.ar    1  OOF1        0.0577
     28  C28       17.9320    9.9280   53.4740 C.ar    1  OOF1        0.0168
     29  C29       18.1710    9.1400   51.1950 C.ar    1  OOF1        0.0168
     30  C30       23.8940   15.5730   53.4190 C.ar    1  OOF1        0.0115
     31  C31       21.4950   15.1790   53.5930 C.ar    1  OOF1        0.0115
     32 CL32       22.2810   17.7160   53.5200 Cl      1  OOF1       -0.0822
     33  C33       22.1720   12.4180   48.7310 C.3     1  OOF1        0.0021
     34  C34       24.2830   11.8530   49.9860 C.3     1  OOF1        0.0021
     35  C35       25.0630   11.8220   48.6830 C.3     1  OOF1        0.0001
     36  C36       22.9620   12.3550   47.4350 C.3     1  OOF1        0.0001
     37  C37       24.4160   12.7310   47.6480 C.3     1  OOF1        0.0000
@<TRIPOS>BOND
     1    36    37    1
     2    36    33    1
     3    37    35    1
     4    35    34    1
     5    33    18    1
     6    18    34    1
     7    18     7    1
     8    15     6    2
     9     6     7    1
    10     6    10   am
    11     7     1    1
    12    29    23   ar
    13    29    21   ar
    14    23    16   ar
    15    17    14   ar
    16    24    11    1
    17     8    11    2
    18     8     4    1
    19    10    21    1
    20    11    13    1
    21     1     4    1
    22     1     2    1
    23    21    28   ar
    24     4     5    1
    25    16    14    1
    26    16    22   ar
    27    14    26   ar
    28     2    12    1
    29     2     3    2
    30    19    30   ar
    31    19    12   ar
    32    30    27   ar
    33    12    20   ar
    34    13    25    1
    35    13     9    2
    36    28    22   ar
    37    27    32    1
    38    27    31   ar
    39    20    31   ar
    40     5     3    2
    41     5     9    1
