@<TRIPOS>MOLECULE
3oog_YTP_A_1.pdb
 11 11 0 0 0
SMALL
GASTEIGER

@<TRIPOS>ATOM
      1  C1        32.4220   10.1740   -2.7970 C.ar  2001  YTP2001     0.1917
      2  C2        32.2020   10.0400   -1.4260 C.ar  2001  YTP2001     0.0418
      3  C3        30.8940    9.9940   -0.9240 C.ar  2001  YTP2001     0.0061
      4  C4        29.8120   10.0850   -1.8130 C.ar  2001  YTP2001     0.0346
      5  C5        30.0360   10.2240   -3.1890 C.ar  2001  YTP2001     0.0017
      6  C6        31.3410   10.2620   -3.6820 C.ar  2001  YTP2001     0.0172
      7  C7        28.3890    9.9840   -1.3040 C.2   2001  YTP2001     0.1735
      8  O8        28.1670    9.9160   -0.1100 O.2   2001  YTP2001    -0.2913
      9  C9        27.2370    9.9640   -2.2730 C.3   2001  YTP2001     0.0773
     10  C10       31.5910   10.4000   -5.1870 C.3   2001  YTP2001     0.0344
     11  O11       33.7180   10.2260   -3.3140 O.3   2001  YTP2001    -0.2869
@<TRIPOS>BOND
     1    10     6    1
     2     6     5   ar
     3     6     1   ar
     4    11     1    1
     5     5     4   ar
     6     1     2   ar
     7     9     7    1
     8     4     7    1
     9     4     3   ar
    10     2     3   ar
    11     7     8    2
