@<TRIPOS>MOLECULE
3ooi_SAM_A_1.pdb
 27 29 0 0 0
SMALL
GASTEIGER

@<TRIPOS>ATOM
      1  N          1.3930   -1.5670   -8.9250 N.3   237  SAM237     -0.1208
      2  CA         1.5310   -1.4820   -7.4420 C.3   237  SAM237      0.1952
      3  C          2.1830   -2.7520   -6.8830 C.2   237  SAM237      0.3819
      4  O          2.7240   -3.6170   -7.6080 O.co2 237  SAM237     -0.2441
      5  OXT        2.1900   -2.9310   -5.6680 O.co2 237  SAM237     -0.2441
      6  CB         0.1830   -1.1370   -6.7890 C.3   237  SAM237      0.0414
      7  CG        -0.1390    0.3710   -6.9050 C.3   237  SAM237      0.0503
      8  SD         0.9700    1.3680   -5.8470 S.3   237  SAM237     -0.1761
      9  CE        -0.1740    2.4090   -4.9090 C.3   237  SAM237      0.0590
     10  C5'        1.5940    2.6330   -6.9820 C.3   237  SAM237      0.0806
     11  C4'        2.7300    2.1810   -7.8760 C.3   237  SAM237      0.1622
     12  O4'        2.2750    1.3850   -8.9670 O.3   237  SAM237     -0.3153
     13  C3'        3.4130    3.3840   -8.4830 C.3   237  SAM237      0.2168
     14  O3'        4.4250    3.8750   -7.6270 O.3   237  SAM237     -0.2175
     15  C2'        3.9250    2.8520   -9.8050 C.3   237  SAM237      0.2569
     16  O2'        5.1660    2.1800   -9.6170 O.3   237  SAM237     -0.2130
     17  C1'        2.8840    1.8080  -10.1750 C.3   237  SAM237      0.3185
     18  N9         1.8340    2.3470  -11.0740 N.pl3 237  SAM237     -0.1439
     19  C8         0.5010    2.4850  -10.7580 C.3   237  SAM237      0.3377
     20  N7        -0.1610    2.9690  -11.8360 N.2   237  SAM237     -0.2095
     21  C5         0.7460    3.1160  -12.8420 C.2   237  SAM237      0.2526
     22  C6         0.6180    3.5620  -14.1560 C.2   237  SAM237      0.4393
     23  N6        -0.5440    3.9580  -14.6550 N.pl3 237  SAM237      0.2180
     24  N1         1.7330    3.6070  -14.9460 N.2   237  SAM237      0.0021
     25  C2         2.9630    3.2060  -14.4690 C.3   237  SAM237      0.5254
     26  N3         3.1050    2.7550  -13.1710 N.2   237  SAM237     -0.0055
     27  C4         1.9920    2.7070  -12.3780 C.2   237  SAM237      0.3518
@<TRIPOS>BOND
     1    24    25    1
     2    24    22    2
     3    23    22    1
     4    25    26    1
     5    22    21    1
     6    26    27    2
     7    21    27    1
     8    21    20    2
     9    27    18    1
    10    20    19    1
    11    18    19    1
    12    18    17    1
    13    17    15    1
    14    17    12    1
    15    15    16    1
    16    15    13    1
    17    12    11    1
    18     1     2    1
    19    13    11    1
    20    13    14    1
    21    11    10    1
    22     4     3   ar
    23     2     3    1
    24     2     6    1
    25    10     8    1
    26     7     6    1
    27     7     8    1
    28     3     5   ar
    29     8     9    1
