@<TRIPOS>MOLECULE
3ooj_G6P_A_1.pdb
 16 16 0 0 0
SMALL
GASTEIGER

@<TRIPOS>ATOM
      1  C1       -28.6360  -39.2840  -68.5100 C.3   611  G6P611      0.3024
      2  C2       -28.8240  -40.3160  -67.3540 C.3   611  G6P611      0.2434
      3  C3       -28.8470  -41.7470  -67.9150 C.3   611  G6P611      0.2199
      4  C4       -29.8930  -41.8950  -69.0480 C.3   611  G6P611      0.2143
      5  C5       -29.6330  -40.8190  -70.1400 C.3   611  G6P611      0.1808
      6  C6       -30.8250  -40.9040  -71.1480 C.3   611  G6P611      0.1859
      7  O1       -27.3140  -39.3590  -68.9920 O.3   611  G6P611     -0.1869
      8  O2       -27.8010  -40.2250  -66.4010 O.3   611  G6P611     -0.2148
      9  O3       -28.9690  -42.7010  -66.8860 O.3   611  G6P611     -0.2174
     10  O4       -29.8150  -43.1670  -69.6360 O.3   611  G6P611     -0.2176
     11  O5       -29.5980  -39.4900  -69.5800 O.3   611  G6P611     -0.3237
     12  O6       -31.9380  -40.3990  -70.4490 O.3   611  G6P611     -0.2675
     13  P        -33.4500  -41.0160  -70.7020 P.3   611  G6P611      0.5327
     14  O1P      -33.8810  -40.7200  -72.2520 O.2   611  G6P611     -0.2224
     15  O2P      -34.4870  -40.2750  -69.6680 O.3   611  G6P611     -0.1145
     16  O3P      -33.4630  -42.4480  -70.4860 O.3   611  G6P611     -0.1145
@<TRIPOS>BOND
     1    14    13    2
     2     6    12    1
     3     6     5    1
     4    13    16    1
     5    13    12    1
     6    13    15    1
     7     5    11    1
     8     5     4    1
     9    10     4    1
    10    11     1    1
    11     4     3    1
    12     7     1    1
    13     1     2    1
    14     3     2    1
    15     3     9    1
    16     2     8    1
