@<TRIPOS>MOLECULE
3ooj_G6Q_A_1.pdb
 16 15 0 0 0
SMALL
GASTEIGER

@<TRIPOS>ATOM
      1  C1       -27.6630  -65.2290  -75.2410 C.2   610  G6Q610      0.2427
      2  C2       -28.7300  -65.6640  -76.2170 C.3   610  G6Q610      0.2486
      3  C3       -28.3100  -65.4710  -77.6560 C.3   610  G6Q610      0.2225
      4  C4       -29.3120  -65.9040  -78.7030 C.3   610  G6Q610      0.2178
      5  C5       -28.6470  -66.7830  -79.7300 C.3   610  G6Q610      0.2145
      6  C6       -29.4130  -66.8060  -81.0270 C.3   610  G6Q610      0.1814
      7  O1       -27.8900  -64.4070  -74.3460 O.2   610  G6Q610     -0.2854
      8  O2       -28.9970  -66.9820  -75.9420 O.3   610  G6Q610     -0.2118
      9  O3       -27.1230  -66.1340  -77.9020 O.3   610  G6Q610     -0.2171
     10  O4       -30.3500  -66.6170  -78.1540 O.3   610  G6Q610     -0.2175
     11  O5       -27.3630  -66.3300  -79.9760 O.3   610  G6Q610     -0.2176
     12  O6       -28.9350  -65.9960  -82.0340 O.3   610  G6Q610     -0.3422
     13  P        -29.6210  -65.9390  -83.4410 P.3   610  G6Q610      0.0265
     14  O1P      -28.7200  -66.6560  -84.4200 O.co2 610  G6Q610     -0.8499
     15  O2P      -29.8110  -64.4800  -83.8570 O.co2 610  G6Q610     -0.7986
     16  O3P      -30.9680  -66.6230  -83.3720 O.3   610  G6Q610     -0.2139
@<TRIPOS>UNITY_ATOM_ATTR
14 1
charge -1
15 1
charge -1
@<TRIPOS>BOND
     1    14    13    2
     2    15    13    1
     3    13    16    1
     4    13    12    1
     5    12     6    1
     6     6     5    1
     7    11     5    1
     8     5     4    1
     9     4    10    1
    10     4     3    1
    11     9     3    1
    12     3     2    1
    13     2     8    1
    14     2     1    1
    15     1     7    2
