@<TRIPOS>MOLECULE
3ooj_GLU_A_1.pdb
 10 9 0 0 0
SMALL
GASTEIGER

@<TRIPOS>ATOM
      1  N        -41.6660  -72.1710  -58.7180 N.3   701  GLU701     -0.1208
      2  CA       -42.6070  -72.1860  -57.6010 C.3   701  GLU701      0.1949
      3  C        -44.0550  -72.2320  -58.0760 C.2   701  GLU701      0.3819
      4  O        -44.3370  -72.0450  -59.2600 O.co2 701  GLU701     -0.2441
      5  CB       -42.3950  -70.9700  -56.6850 C.3   701  GLU701      0.0424
      6  CG       -42.9080  -69.6640  -57.2400 C.3   701  GLU701      0.1161
      7  CD       -42.4660  -68.4620  -56.4180 C.2   701  GLU701      0.3649
      8  OE1      -41.2370  -68.3010  -56.1980 O.co2 701  GLU701     -0.2457
      9  OE2      -43.3510  -67.6780  -55.9940 O.co2 701  GLU701     -0.2457
     10  OXT      -44.9720  -72.4570  -57.2800 O.co2 701  GLU701     -0.2441
@<TRIPOS>BOND
     1     4     3   ar
     2     1     2    1
     3     3     2    1
     4     3    10   ar
     5     2     5    1
     6     6     5    1
     7     6     7    1
     8     7     8   ar
     9     7     9   ar
