@<TRIPOS>MOLECULE
3ook_OOK_A_1.pdb
 39 43 0 0 0
SMALL
GASTEIGER

@<TRIPOS>ATOM
      1  N1        23.4380   17.7780    3.4490 N.pl3   1  OOK1       -0.2686
      2  C2        22.5910   17.0860    2.6230 C.2     1  OOK1        0.1837
      3  N3        23.2210   16.1010    2.0480 N.2     1  OOK1       -0.3892
      4  C4        24.6660   17.1810    3.3450 C.3     1  OOK1        0.1526
      5  C5        24.5080   16.1040    2.4500 C.2     1  OOK1        0.1352
      6  C6        23.9840   20.0800    3.9250 C.2     1  OOK1        0.2638
      7  N7        24.2200   20.2790    2.6050 N.am    1  OOK1       -0.1733
      8  C8        25.0320   21.3030    2.1230 C.ar    1  OOK1        0.1281
      9  C9        23.0970   18.9150    4.3110 C.3     1  OOK1        0.1540
     10  C10       25.8960   17.4370    3.9330 C.2     1  OOK1        0.0324
     11  C11       24.5290   22.6000    1.9610 C.ar    1  OOK1        0.1577
     12  C12       26.3870   21.0220    1.8610 C.ar    1  OOK1        0.1577
     13  C13       26.7320   23.3130    1.2330 C.ar    1  OOK1        0.0843
     14  C14       25.6130   15.3210    2.1050 C.2     1  OOK1        0.0616
     15  C15       27.6600   24.3830    0.7890 C.2     1  OOK1        0.3879
     16  C16       26.9640   16.6330    3.6250 C.2     1  OOK1        0.1652
     17  C17       21.1560   17.3880    2.4650 C.ar    1  OOK1        0.0440
     18  C18       26.8210   15.6010    2.6950 C.2     1  OOK1        0.1694
     19  C19       27.2220   22.0190    1.4080 C.ar    1  OOK1        0.0377
     20  C20       25.3790   23.6030    1.5200 C.ar    1  OOK1        0.0377
     21  O21       24.4480   20.8220    4.7580 O.2     1  OOK1       -0.2712
     22  O22       28.8040   24.1430    0.4560 O.co2   1  OOK1       -0.2406
     23  C23       23.1710   18.4730    5.7910 C.3     1  OOK1        0.0272
     24  C24       20.7860   18.6440    1.9850 C.ar    1  OOK1        0.0047
     25  C25       20.1930   16.4700    2.9040 C.ar    1  OOK1        0.0047
     26  F26       26.9030   19.7930    2.0700 F       1  OOK1       -0.2027
     27  F27       23.2290   22.8740    2.2280 F       1  OOK1       -0.2027
     28  F28       28.1590   16.8710    4.1960 F       1  OOK1       -0.2021
     29  F29       27.8620   14.7940    2.4670 F       1  OOK1       -0.2017
     30  O30       27.2470   25.6510    0.8020 O.co2   1  OOK1       -0.2406
     31  C31       18.4940   18.0240    2.2360 C.ar    1  OOK1        0.0577
     32  C32       18.8560   16.7850    2.7540 C.ar    1  OOK1        0.0115
     33  C33       19.4590   18.9390    1.8480 C.ar    1  OOK1        0.0115
     34 CL34       16.8290   18.4710    2.0700 Cl      1  OOK1       -0.0822
     35  C35       22.4620   19.5060    6.6800 C.3     1  OOK1        0.0021
     36  C36       22.5100   17.0840    5.9650 C.3     1  OOK1        0.0021
     37  C37       22.4290   19.0510    8.1470 C.3     1  OOK1        0.0001
     38  C38       22.5790   16.6150    7.4310 C.3     1  OOK1        0.0001
     39  C39       21.8130   17.6350    8.2920 C.3     1  OOK1        0.0000
@<TRIPOS>BOND
     1    22    15   ar
     2    15    30   ar
     3    15    13    1
     4    13    19   ar
     5    13    20   ar
     6    19    12   ar
     7    20    11   ar
     8    33    24   ar
     9    33    31   ar
    10    12    26    1
    11    12     8   ar
    12    11     8   ar
    13    11    27    1
    14    24    17   ar
    15     3     5    2
    16     3     2    2
    17    34    31    1
    18    14     5    1
    19    14    18    2
    20     8     7    1
    21    31    32   ar
    22     5     4    1
    23    17     2    1
    24    17    25   ar
    25    29    18    1
    26     7     6   am
    27     2     1    1
    28    18    16    1
    29    32    25   ar
    30     4     1    1
    31     4    10    1
    32     1     9    1
    33    16    10    2
    34    16    28    1
    35     6     9    1
    36     6    21    2
    37     9    23    1
    38    23    36    1
    39    23    35    1
    40    36    38    1
    41    35    37    1
    42    38    39    1
    43    37    39    1
