@<TRIPOS>MOLECULE
3oom_507_A_1.pdb
 25 28 0 0 0
SMALL
GASTEIGER

@<TRIPOS>ATOM
      1  CAA        8.2680   22.3900   16.9180 C.3   500  507500      0.0773
      2  OAB        7.3150   21.9680   19.0770 O.2   500  507500     -0.2913
      3  CAC        5.6590   25.7690   19.6530 C.ar  500  507500      0.0001
      4  CAD        6.2090   24.5090   19.4690 C.ar  500  507500      0.0028
      5  CAE        5.8080   26.7370   18.6620 C.ar  500  507500      0.0015
      6  CAF        5.7870   27.9120   12.5500 C.ar  500  507500      0.0407
      7  CAG        6.2780   28.9540   13.3160 C.ar  500  507500      0.0418
      8  CAH        7.0260   28.7440   16.7800 C.ar  500  507500      0.1197
      9  CAI        7.0330   25.1790   17.3090 C.ar  500  507500      0.0044
     10  CAJ        4.4870   21.9490   12.1580 C.3   500  507500      0.1439
     11  CAK        6.4420   22.3220   13.5270 C.3   500  507500      0.1439
     12  CAL        4.1400   23.4200   12.3750 C.3   500  507500      0.0537
     13  CAM        6.3880   23.8540   13.4690 C.3   500  507500      0.0537
     14  NAN        6.9690   29.4760   15.6540 N.ar  500  507500     -0.2234
     15  NAO        5.8170   26.5180   14.4690 N.ar  500  507500     -0.1472
     16  NAP        5.0570   25.6950   12.4110 N.pl3 500  507500     -0.2205
     17  OAQ        5.9070   21.7330   12.3300 O.3   500  507500     -0.3537
     18  CAR        7.4810   22.7840   18.1620 C.2   500  507500      0.1735
     19  CAS        6.8940   24.2050   18.2990 C.ar  500  507500      0.0348
     20  CAT        6.4870   26.4520   17.4810 C.ar  500  507500      0.0194
     21  CAU        5.5750   26.6770   13.1600 C.ar  500  507500      0.1677
     22  CAV        6.6060   27.4960   16.5390 C.ar  500  507500      0.1036
     23  CAW        6.5060   28.7090   14.6630 C.ar  500  507500      0.1640
     24  CAX        5.4220   24.2730   12.3610 C.3   500  507500      0.0991
     25  NAY        6.2590   27.4260   15.1790 N.ar  500  507500     -0.2095
@<TRIPOS>BOND
     1    10    17    1
     2    10    12    1
     3    17    11    1
     4    24    12    1
     5    24    16    1
     6    24    13    1
     7    16    21    1
     8     6    21   ar
     9     6     7   ar
    10    21    15   ar
    11     7    23   ar
    12    13    11    1
    13    15    25   ar
    14    23    25   ar
    15    23    14   ar
    16    25    22   ar
    17    14     8   ar
    18    22     8   ar
    19    22    20    1
    20     1    18    1
    21     9    20   ar
    22     9    19   ar
    23    20     5   ar
    24    18    19    1
    25    18     2    2
    26    19     4   ar
    27     5     3   ar
    28     4     3   ar
