@<TRIPOS>MOLECULE
3oot_SSR_A_1.pdb
 34 38 0 0 0
SMALL
GASTEIGER

@<TRIPOS>ATOM
      1  C1       -10.2150  -26.5600   -4.2730 C.ar  327  SSR327      0.0432
      2  C2       -10.8680  -25.3810   -3.8750 C.ar  327  SSR327      0.0208
      3  C3       -10.3670  -24.6140   -2.8160 C.ar  327  SSR327      0.0637
      4  C4        -9.1960  -25.0380   -2.1490 C.ar  327  SSR327      0.0207
      5  C5        -8.5340  -26.2340   -2.5470 C.ar  327  SSR327      0.0187
      6  C6        -9.0430  -26.9720   -3.6320 C.ar  327  SSR327      0.1918
      7  N9       -10.8640  -23.5790   -2.0970 N.ar  327  SSR327     -0.3094
      8  C10      -10.0370  -23.0660   -1.1400 C.ar  327  SSR327      0.0501
      9  C11       -9.0640  -24.0430   -1.0300 C.ar  327  SSR327      0.0670
     10  C12       -7.2040  -26.6400   -1.9550 C.3   327  SSR327      0.0344
     11  O16       -8.4270  -28.1100   -4.0710 O.3   327  SSR327     -0.2869
     12  C17       -7.8500  -24.0570   -0.1560 C.2   327  SSR327      0.2502
     13  N18       -7.7340  -24.9960    0.7990 N.am  327  SSR327     -0.2731
     14  C19       -8.7840  -26.0250    1.0000 C.3   327  SSR327      0.1125
     15  C20       -9.0730  -26.1330    2.4860 C.3   327  SSR327      0.1102
     16  N21       -7.8360  -26.3140    3.2190 N.3   327  SSR327     -0.2144
     17  C22       -6.8150  -25.2970    3.0790 C.3   327  SSR327      0.1102
     18  C23       -6.5030  -25.0600    1.6100 C.3   327  SSR327      0.1125
     19  O32       -6.9970  -23.1910   -0.3320 O.2   327  SSR327     -0.2699
     20  C35      -11.9210  -22.8690   -2.5760 C.ar  327  SSR327      0.0637
     21  C36      -11.8130  -21.5400   -3.0560 C.ar  327  SSR327      0.0175
     22  C37      -12.9130  -20.8120   -3.5040 C.ar  327  SSR327      0.0015
     23  C38      -14.1770  -21.3970   -3.5430 C.ar  327  SSR327      0.0001
     24  C39      -14.3380  -22.7120   -3.1040 C.ar  327  SSR327      0.0015
     25  C40      -13.2300  -23.4110   -2.6190 C.ar  327  SSR327      0.0175
     26  C46      -10.2240  -21.8300   -0.2710 C.3   327  SSR327      0.0703
     27  C47      -10.0920  -22.1380    1.1980 C.ar  327  SSR327     -0.0181
     28  C50      -10.9980  -22.9680    1.9060 C.ar  327  SSR327      0.0020
     29  C51      -10.8170  -23.1560    3.2720 C.ar  327  SSR327      0.1359
     30  C52       -9.7180  -22.5810    3.9320 C.ar  327  SSR327      0.0293
     31  C53       -8.8330  -21.7490    3.2280 C.ar  327  SSR327      0.0020
     32  C54       -9.0390  -21.5060    1.8660 C.ar  327  SSR327     -0.0041
     33  C58      -12.1960  -23.6560    1.2820 C.3   327  SSR327      0.0331
     34  F62      -11.6920  -23.9260    3.9420 F     327  SSR327     -0.2045
@<TRIPOS>BOND
     1     1     2   ar
     2     1     6   ar
     3    11     6    1
     4     2     3   ar
     5     6     5   ar
     6    23    22   ar
     7    23    24   ar
     8    22    21   ar
     9    24    25   ar
    10    21    20   ar
    11     3     4   ar
    12     3     7   ar
    13    25    20   ar
    14    20     7    1
    15     5     4   ar
    16     5    10    1
    17     4     9   ar
    18     7     8   ar
    19     8     9   ar
    20     8    26    1
    21     9    12    1
    22    19    12    2
    23    26    27    1
    24    12    13   am
    25    13    14    1
    26    13    18    1
    27    14    15    1
    28    27    32   ar
    29    27    28   ar
    30    33    28    1
    31    18    17    1
    32    32    31   ar
    33    28    29   ar
    34    15    16    1
    35    17    16    1
    36    31    30   ar
    37    29    30   ar
    38    29    34    1
