@<TRIPOS>MOLECULE
3ooy_TDP_A_1.pdb
 26 27 0 0 0
SMALL
GASTEIGER

@<TRIPOS>ATOM
      1  N1'       50.2690  -18.8530  -32.4130 N.2     1  TDP1       -0.1861
      2  C2'       49.7590  -19.9600  -31.8610 C.1     1  TDP1        0.0663
      3  C2A       49.1130  -21.0100  -32.7670 C.3     1  TDP1        0.1291
      4  N3'       49.8110  -20.1370  -30.5180 N.2     1  TDP1       -0.3368
      5  C4'       50.3680  -19.2120  -29.7120 C.2     1  TDP1        0.2292
      6  N4'       50.4250  -19.4350  -28.3780 N.pl3   1  TDP1       -0.0925
      7  C5'       50.9030  -18.0330  -30.2590 C.2     1  TDP1        0.0654
      8  C6'       50.8180  -17.9050  -31.6550 C.2     1  TDP1        0.1115
      9  C35       51.5630  -16.8770  -29.4500 C.3     1  TDP1        0.1237
     10  N3        50.5590  -16.3010  -28.5160 N.pl3   1  TDP1       -0.2970
     11  C2        50.4560  -16.6880  -27.2250 C.3     1  TDP1        0.1543
     12  S1        49.0740  -15.8340  -26.4870 S.3     1  TDP1       -0.0951
     13  C5        48.8080  -14.9230  -27.9330 C.2     1  TDP1        0.0164
     14  C4        49.6940  -15.3500  -28.9050 C.2     1  TDP1        0.0279
     15  C4A       49.6600  -14.7590  -30.2880 C.3     1  TDP1        0.0473
     16  C5A       47.7030  -13.9130  -28.0890 C.3     1  TDP1        0.0661
     17  C5B       46.3510  -14.5400  -27.8590 C.3     1  TDP1        0.1544
     18  O5G       45.3980  -13.4300  -27.7810 O.3     1  TDP1       -0.3134
     19  P1        43.9130  -13.7930  -27.4290 P.3     1  TDP1        0.2230
     20  O11       43.8840  -14.1740  -25.9140 O.3     1  TDP1       -0.2261
     21  O12       43.0380  -12.5160  -27.7580 O.3     1  TDP1       -0.4370
     22  O13       43.3970  -14.9430  -28.1890 O.2     1  TDP1       -0.5169
     23  P2        43.8340  -13.2520  -24.5800 P.3     1  TDP1        0.5373
     24  O21       45.2430  -13.3870  -23.9910 O.3     1  TDP1       -0.1143
     25  O22       43.6930  -11.7750  -24.9160 O.2     1  TDP1       -0.2221
     26  O23       42.7150  -13.7480  -23.6940 O.3     1  TDP1       -0.1143
@<TRIPOS>BOND
     1     3     2    1
     2     1     2    2
     3     1     8    1
     4     2     4    2
     5     8     7    2
     6     4     5    2
     7    15    14    1
     8     7     5    1
     9     7     9    1
    10     5     6    1
    11     9    10    1
    12    14    10    1
    13    14    13    2
    14    10    11    1
    15    22    19    2
    16    16    13    1
    17    16    17    1
    18    13    12    1
    19    17    18    1
    20    18    19    1
    21    21    19    1
    22    19    20    1
    23    11    12    1
    24    20    23    1
    25    25    23    2
    26    23    24    1
    27    23    26    1
