@<TRIPOS>MOLECULE
3ooz_ZOO_A_1.pdb
 31 33 0 0 0
SMALL
GASTEIGER

@<TRIPOS>ATOM
      1  C1        15.9290   -4.1890   17.8560 C.3     1  ZOO1        0.2162
      2  F1        17.9220  -14.2740   16.7700 F       1  ZOO1       -0.1550
      3  N1        15.4130   -5.3580   17.1410 N.am    1  ZOO1       -0.1363
      4  O1        14.4670   -6.4710   18.9600 O.2     1  ZOO1       -0.2520
      5  C2        14.7540   -6.3850   17.7700 C.2     1  ZOO1        0.3315
      6  F2        16.1050  -14.0330   15.5840 F       1  ZOO1       -0.1550
      7  N2        14.9450   -6.7540   15.4550 N.2     1  ZOO1       -0.0835
      8  O2        16.4020  -12.7320   17.3670 O.3     1  ZOO1       -0.4236
      9  C3        14.3690   -7.3970   16.6730 C.3     1  ZOO1        0.2671
     10  F3        10.4870   -2.2670   12.8620 F       1  ZOO1       -0.2343
     11  N3        16.1290   -4.8280   14.9070 N.pl3   1  ZOO1        0.1440
     12  C4        15.5010   -5.6370   15.8100 C.2     1  ZOO1        0.4499
     13  F4         8.6900   -7.4760   16.6500 F       1  ZOO1       -0.2035
     14  C5        14.9330   -8.8190   16.8930 C.ar    1  ZOO1        0.0275
     15  C6        15.3700   -9.3200   18.1340 C.ar    1  ZOO1        0.0029
     16  C7        15.8530  -10.6310   18.2420 C.ar    1  ZOO1        0.0369
     17  C8        15.9110  -11.4680   17.1280 C.ar    1  ZOO1        0.1443
     18  C9        15.4820  -10.9800   15.8890 C.ar    1  ZOO1        0.0369
     19  C10       15.0040   -9.6670   15.7760 C.ar    1  ZOO1        0.0029
     20  C11       17.0590  -13.3640   16.2820 C.3     1  ZOO1        0.5087
     21  C12       12.8390   -7.4460   16.6410 C.ar    1  ZOO1        0.0281
     22  C13       12.1120   -8.4730   17.2900 C.ar    1  ZOO1        0.0021
     23  C14       10.7140   -8.4860   17.2900 C.ar    1  ZOO1        0.0301
     24  C15       10.0320   -7.4600   16.6440 C.ar    1  ZOO1        0.1477
     25  C16       10.7270   -6.4200   16.0030 C.ar    1  ZOO1        0.0689
     26  C17       12.1200   -6.4080   16.0010 C.ar    1  ZOO1        0.0103
     27  C18       10.0130   -5.3800   15.3460 C.1     1  ZOO1       -0.0621
     28  C19        9.3920   -4.5170   14.7960 C.1     1  ZOO1       -0.0863
     29  C20        8.6400   -3.4480   14.1320 C.3     1  ZOO1        0.0793
     30  C21        9.0380   -2.0710   14.6770 C.3     1  ZOO1        0.0521
     31  C22       10.3510   -1.6130   14.0590 C.3     1  ZOO1        0.1943
@<TRIPOS>BOND
     1    10    31    1
     2    31    30    1
     3    29    30    1
     4    29    28    1
     5    28    27    3
     6    11    12    1
     7    27    25    1
     8     7    12    2
     9     7     9    1
    10     6    20    1
    11    19    18   ar
    12    19    14   ar
    13    12     3    1
    14    18    17   ar
    15    26    25   ar
    16    26    21   ar
    17    25    24   ar
    18    20     2    1
    19    20     8    1
    20    21     9    1
    21    21    22   ar
    22    24    13    1
    23    24    23   ar
    24     9    14    1
    25     9     5    1
    26    14    15   ar
    27    17     8    1
    28    17    16   ar
    29     3     5   am
    30     3     1    1
    31    22    23   ar
    32     5     4    2
    33    15    16   ar
