@<TRIPOS>MOLECULE
3op2_AKG_A_1.pdb
 10 9 0 0 0
SMALL
GASTEIGER

@<TRIPOS>ATOM
      1  C1        31.6180   44.4530  -33.6760 C.2   501  AKG501      0.4219
      2  O1        30.3810   44.5830  -33.7590 O.co2 501  AKG501     -0.2373
      3  O2        32.3750   45.4300  -33.4510 O.co2 501  AKG501     -0.2373
      4  C2        32.2230   43.1280  -33.8110 C.2   501  AKG501      0.2526
      5  O5        33.4360   43.0340  -33.6850 O.2   501  AKG501     -0.2843
      6  C3        31.4010   41.8780  -34.0520 C.3   501  AKG501      0.0881
      7  C4        30.6840   41.9250  -35.4000 C.3   501  AKG501      0.1224
      8  C5        30.3360   40.5350  -35.9200 C.2   501  AKG501      0.3653
      9  O3        29.8790   39.6570  -35.1450 O.co2 501  AKG501     -0.2456
     10  O4        30.5000   40.3030  -37.1400 O.co2 501  AKG501     -0.2456
@<TRIPOS>BOND
     1    10     8   ar
     2     8     7    1
     3     8     9   ar
     4     7     6    1
     5     6     4    1
     6     4     5    2
     7     4     1    1
     8     2     1   ar
     9     1     3   ar
