@<TRIPOS>MOLECULE
3op4_NAP_A_1.pdb
 48 52 0 0 0
SMALL
GASTEIGER

@<TRIPOS>ATOM
      1  PA        32.6240    7.7050   23.1410 P.3   249  NAP249      0.2189
      2  O1A       33.5400    8.8170   22.9460 O.2   249  NAP249     -0.5170
      3  O2A       33.0920    6.3320   23.5590 O.3   249  NAP249     -0.4371
      4  O5B       31.4700    8.1690   24.0510 O.3   249  NAP249     -0.3112
      5  C5B       30.4730    7.2810   24.5190 C.3   249  NAP249      0.1813
      6  C4B       29.3700    7.9420   25.3240 C.3   249  NAP249      0.1820
      7  O4B       28.3860    6.9690   25.7070 O.3   249  NAP249     -0.3136
      8  C3B       29.9280    8.4690   26.6440 C.3   249  NAP249      0.2157
      9  O3B       29.2510    9.6310   27.0340 O.3   249  NAP249     -0.2175
     10  C2B       29.6410    7.3400   27.6420 C.3   249  NAP249      0.2314
     11  O2B       29.5760    7.7320   29.0280 O.3   249  NAP249     -0.2630
     12  C1B       28.3110    6.8620   27.1280 C.3   249  NAP249      0.3158
     13  N9A       28.0720    5.4760   27.4860 N.pl3 249  NAP249     -0.1439
     14  C8A       28.8480    4.3930   27.2500 C.3   249  NAP249      0.3377
     15  N7A       28.2310    3.3210   27.7960 N.2   249  NAP249     -0.2095
     16  C5A       27.0790    3.7340   28.3660 C.2   249  NAP249      0.2526
     17  C6A       26.0680    3.1130   29.1140 C.2   249  NAP249      0.4393
     18  N6A       26.0760    1.7820   29.3850 N.pl3 249  NAP249      0.2180
     19  N1A       24.9970    3.8540   29.5810 N.2   249  NAP249      0.0021
     20  C2A       24.9280    5.2180   29.3230 C.3   249  NAP249      0.5254
     21  N3A       25.9460    5.8520   28.6620 N.2   249  NAP249     -0.0055
     22  C4A       26.9790    5.1260   28.1960 C.2   249  NAP249      0.3518
     23  O3        31.7860    7.4030   21.7900 O.3   249  NAP249     -0.2703
     24  PN        31.4610    8.1890   20.4490 P.3   249  NAP249      0.2189
     25  O1N       31.2230    9.6070   20.7260 O.3   249  NAP249     -0.4371
     26  O2N       32.5020    7.8620   19.4550 O.2   249  NAP249     -0.5170
     27  O5D       30.0820    7.4670   20.1150 O.3   249  NAP249     -0.3112
     28  C5D       28.7650    7.9370   20.3130 C.3   249  NAP249      0.1813
     29  C4D       27.8780    7.0550   19.4610 C.3   249  NAP249      0.1799
     30  O4D       28.2400    7.1860   18.0810 O.3   249  NAP249     -0.3327
     31  C3D       27.8920    5.5590   19.7840 C.3   249  NAP249      0.2158
     32  O3D       26.5590    5.0220   19.6740 O.3   249  NAP249     -0.2175
     33  C2D       28.7760    5.0000   18.6860 C.3   249  NAP249      0.2309
     34  O2D       28.5340    3.6230   18.4290 O.3   249  NAP249     -0.2158
     35  C1D       28.3730    5.8850   17.5410 C.3   249  NAP249      0.2263
     36  N1N       29.3530    5.9840   16.4890 N.pl3 249  NAP249     -0.2787
     37  C2N       30.6450    6.3880   16.6610 C.3   249  NAP249      0.1244
     38  C3N       31.4940    6.4990   15.6060 C.2   249  NAP249      0.0544
     39  C7N       32.8780    6.9590   15.7240 C.2   249  NAP249      0.2818
     40  O7N       33.3220    7.5020   16.9150 O.2   249  NAP249     -0.2670
     41  N7N       33.6590    6.8800   14.7260 N.am  249  NAP249     -0.0839
     42  C4N       31.0820    6.1480   14.3140 C.2   249  NAP249      0.0033
     43  C5N       29.7730    5.7490   14.1580 C.2   249  NAP249      0.0157
     44  C6N       28.8960    5.6300   15.2060 C.2   249  NAP249      0.0633
     45  P2B       30.9680    7.8560   29.8510 P.3   249  NAP249      0.5328
     46  O1X       31.7090    9.1020   29.4180 O.2   249  NAP249     -0.2224
     47  O2X       31.7980    6.6200   29.6570 O.3   249  NAP249     -0.1145
     48  O3X       30.4650    8.0200   31.2430 O.3   249  NAP249     -0.1145
@<TRIPOS>BOND
     1    43    42    1
     2    43    44    2
     3    42    38    2
     4    41    39   am
     5    44    36    1
     6    38    39    1
     7    38    37    1
     8    39    40    2
     9    36    37    1
    10    36    35    1
    11    35    30    1
    12    35    33    1
    13    30    29    1
    14    34    33    1
    15    33    31    1
    16    26    24    2
    17    29    31    1
    18    29    28    1
    19    32    31    1
    20    27    28    1
    21    27    24    1
    22    24    25    1
    23    24    23    1
    24    23     1    1
    25     2     1    2
    26     1     3    1
    27     1     4    1
    28     4     5    1
    29     5     6    1
    30     6     7    1
    31     6     8    1
    32     7    12    1
    33     8     9    1
    34     8    10    1
    35    12    13    1
    36    12    10    1
    37    14    13    1
    38    14    15    1
    39    13    22    1
    40    10    11    1
    41    15    16    2
    42    22    16    1
    43    22    21    2
    44    16    17    1
    45    21    20    1
    46    11    45    1
    47    17    18    1
    48    17    19    2
    49    20    19    1
    50    46    45    2
    51    47    45    1
    52    45    48    1
