@<TRIPOS>MOLECULE
3op5_REB_A_1.pdb
 25 28 0 0 0
SMALL
GASTEIGER

@<TRIPOS>ATOM
      1  C10       28.4450    3.7350   12.5810 C.3   365  REB365      0.1690
      2  N12       28.8980    5.3660   11.2880 N.2   365  REB365     -0.0426
      3  C15       31.8200    4.6960   13.4100 C.3   365  REB365      0.0061
      4  C20       29.6700    1.4950   17.1840 C.ar  365  REB365     -0.0019
      5  C21       29.5990    2.9120   17.1890 C.ar  365  REB365     -0.0070
      6  C22       28.4820    3.6230   16.4990 C.ar  365  REB365     -0.0019
      7  C24       30.7380    3.5640   17.9680 C.3   365  REB365      0.1316
      8  C02       24.7070    1.0180   11.6040 C.2   365  REB365      0.1010
      9  C03       24.3600   -0.0280   12.4620 C.2   365  REB365      0.1183
     10  N04       25.0630   -0.2230   13.6790 N.2   365  REB365     -0.1681
     11  C05       26.0590    0.5320   14.0400 C.1   365  REB365      0.1730
     12  N06       26.4230    1.5380   13.1550 N.2   365  REB365     -0.2928
     13  C07       25.8070    1.8170   11.9790 C.2   365  REB365      0.3272
     14  N08       26.3920    2.9670   11.2820 N.pl3 365  REB365      0.0264
     15  C09       27.4710    3.8240   11.4990 C.2   365  REB365      0.3771
     16  C11       29.2990    4.7660   12.3490 C.2   365  REB365      0.0951
     17  N13       27.7980    4.8070   10.7490 N.2   365  REB365      0.0793
     18  C14       30.4900    5.2170   13.0730 C.3   365  REB365      0.0406
     19  C16       30.8110    4.9270   14.4880 C.3   365  REB365      0.0061
     20  N17       26.7840    0.4500   15.1780 N.pl3 365  REB365     -0.1357
     21  C18       27.6670    1.3300   15.8490 C.ar  365  REB365      0.0826
     22  C19       28.7130    0.7170   16.5240 C.ar  365  REB365      0.0171
     23  C23       27.5070    2.7720   15.8130 C.ar  365  REB365      0.0171
     24  C25       31.9770    3.3330   17.2010 C.1   365  REB365      0.0780
     25  N26       32.9010    2.9570   16.6380 N.1   365  REB365     -0.1955
@<TRIPOS>BOND
     1    17     2    1
     2    17    15    2
     3    14    15    1
     4    14    13    1
     5     2    16    2
     6    15     1    1
     7     8    13    1
     8     8     9    2
     9    13    12    2
    10    16     1    1
    11    16    18    1
    12     9    10    1
    13    18     3    1
    14    18    19    1
    15    12    11    2
    16     3    19    1
    17    10    11    2
    18    11    20    1
    19    20    21    1
    20    23    21   ar
    21    23     6   ar
    22    21    22   ar
    23     6     5   ar
    24    22     4   ar
    25    25    24    3
    26     4     5   ar
    27     5     7    1
    28    24     7    1
