@<TRIPOS>MOLECULE
3opd_HIE_A_1.pdb
 33 36 0 0 0
SMALL
GASTEIGER

@<TRIPOS>ATOM
      1  C8         1.1060   14.5310   13.7980 C.3   214  HIE214      0.0926
      2  C5         1.0990   16.2220   12.0950 C.ar  214  HIE214      0.0712
      3  C6         1.8220   17.0210   11.0000 C.ar  214  HIE214      0.0716
      4  N1         3.9150   17.4350    9.6370 N.am  214  HIE214     -0.0837
      5  C2        -0.2520   18.3470   10.6400 C.ar  214  HIE214      0.0194
      6  O2         3.6830   15.7540   11.0860 O.2   214  HIE214     -0.2666
      7  N2         1.7360   15.2600   12.7640 N.pl3 214  HIE214     -0.2392
      8  N3        -2.1790   17.8170   11.9670 N.ar  214  HIE214     -0.2336
      9  C3        -0.9020   17.6120   11.6470 C.ar  214  HIE214      0.0837
     10  C4        -0.2220   16.5860   12.3450 C.ar  214  HIE214      0.0354
     11  N4        -2.6220   18.2720   13.2190 N.ar  214  HIE214     -0.1613
     12  C10        0.1360   12.2730   14.5020 C.3   214  HIE214      0.0346
     13  C11        0.4830   12.6670   15.9960 C.3   214  HIE214      0.1521
     14  C12        1.8190   13.4500   16.0860 C.3   214  HIE214      0.0346
     15  C13        1.9810   14.6290   15.0160 C.3   214  HIE214      0.0242
     16  C14       -3.9910   18.3160   13.0350 C.ar  214  HIE214      0.1763
     17  C15       -4.3550   17.8680   11.6830 C.ar  214  HIE214      0.0716
     18  C16       -3.1480   17.5430   10.9950 C.ar  214  HIE214      0.0646
     19  C19       -5.6750   17.2460    9.6050 C.3   214  HIE214      0.0696
     20  C21       -4.5440   16.2350    7.7030 C.3   214  HIE214      0.0008
     21  C1         1.1050   18.1240   10.3570 C.ar  214  HIE214      0.0075
     22  F1        -5.5790   17.6590   14.5050 F     214  HIE214     -0.1643
     23  O1        -6.7090   18.0280   11.6280 O.2   214  HIE214     -0.2913
     24  F2        -5.5660   19.8400   13.7720 F     214  HIE214     -0.1643
     25  F3        -4.1890   18.7730   15.3360 F     214  HIE214     -0.1643
     26  O3         0.5680   11.4840   16.8430 O.3   214  HIE214     -0.2231
     27  C7         3.2270   16.7180   10.5700 C.2   214  HIE214      0.2854
     28  C9         1.0070   13.0150   13.4250 C.3   214  HIE214      0.0242
     29  C17       -3.1520   17.0740    9.5550 C.3   214  HIE214      0.0464
     30  C18       -4.4930   16.4210    9.2250 C.3   214  HIE214      0.0128
     31  C20       -5.6650   17.7300   11.0060 C.2   214  HIE214      0.1757
     32  C22       -4.6580   15.0810    9.8760 C.3   214  HIE214      0.0008
     33  C23       -4.8400   18.7390   14.1800 C.3   214  HIE214      0.4366
@<TRIPOS>BOND
     1    20    30    1
     2    30    29    1
     3    30    19    1
     4    30    32    1
     5    29    18    1
     6    19    31    1
     7     4    27   am
     8    21     5   ar
     9    21     3   ar
    10    27     3    1
    11    27     6    2
    12     5     9   ar
    13    18    17   ar
    14    18     8   ar
    15     3     2   ar
    16    31    23    2
    17    31    17    1
    18     9     8    1
    19     9    10   ar
    20    17    16   ar
    21     8    11   ar
    22     2    10   ar
    23     2     7    1
    24     7     1    1
    25    16    11   ar
    26    16    33    1
    27    28     1    1
    28    28    12    1
    29    24    33    1
    30     1    15    1
    31    33    22    1
    32    33    25    1
    33    12    13    1
    34    15    14    1
    35    13    14    1
    36    13    26    1
