@<TRIPOS>MOLECULE
3ope_SAM_A_1.pdb
 27 29 0 0 0
SMALL
GASTEIGER

@<TRIPOS>ATOM
      1  N        -11.0350   10.9150   29.5920 N.3     7  SAM7       -0.1208
      2  CA       -10.3610   10.3360   28.3810 C.3     7  SAM7        0.1952
      3  C         -8.8500   10.6210   28.4280 C.2     7  SAM7        0.3819
      4  O         -8.1050   10.3230   27.4720 O.co2   7  SAM7       -0.2441
      5  OXT       -8.2940   11.1630   29.4230 O.co2   7  SAM7       -0.2441
      6  CB       -11.1410   10.7400   27.1120 C.3     7  SAM7        0.0414
      7  CG       -12.4520    9.9360   26.8490 C.3     7  SAM7        0.0503
      8  SD       -11.8740    8.2510   26.4250 S.3     7  SAM7       -0.1761
      9  CE       -12.3960    7.9990   24.7330 C.3     7  SAM7        0.0590
     10  C5'      -12.9690    7.1410   27.3410 C.3     7  SAM7        0.0806
     11  C4'      -12.4410    6.8450   28.7460 C.3     7  SAM7        0.1622
     12  O4'      -12.4310    7.9300   29.6280 O.3     7  SAM7       -0.3153
     13  C3'      -13.2240    5.7940   29.5020 C.3     7  SAM7        0.2168
     14  O3'      -12.7860    4.5430   28.9780 O.3     7  SAM7       -0.2175
     15  C2'      -12.8560    6.0810   30.9460 C.3     7  SAM7        0.2569
     16  O2'      -11.5350    5.5100   31.1740 O.3     7  SAM7       -0.2130
     17  C1'      -12.8460    7.5890   30.9020 C.3     7  SAM7        0.3185
     18  N9       -14.2250    8.1830   31.0310 N.pl3   7  SAM7       -0.1439
     19  C8       -14.9580    8.8470   30.0980 C.3     7  SAM7        0.3377
     20  N7       -16.1550    9.1950   30.6340 N.2     7  SAM7       -0.2095
     21  C5       -16.1860    8.7620   31.9370 C.2     7  SAM7        0.2526
     22  C6       -17.0740    8.7950   33.0290 C.2     7  SAM7        0.4393
     23  N6       -18.2850    9.3480   33.0360 N.pl3   7  SAM7        0.2180
     24  N1       -16.7320    8.1710   34.2160 N.2     7  SAM7        0.0021
     25  C2       -15.5280    7.5900   34.3820 C.3     7  SAM7        0.5254
     26  N3       -14.6450    7.5370   33.3670 N.2     7  SAM7       -0.0055
     27  C4       -14.9590    8.1310   32.1660 C.2     7  SAM7        0.3518
@<TRIPOS>BOND
     1     9     8    1
     2     8     7    1
     3     8    10    1
     4     7     6    1
     5     6     2    1
     6    10    11    1
     7     4     3   ar
     8     2     3    1
     9     2     1    1
    10     3     5   ar
    11    11    13    1
    12    11    12    1
    13    14    13    1
    14    13    15    1
    15    12    17    1
    16    19    20    1
    17    19    18    1
    18    20    21    2
    19    17    15    1
    20    17    18    1
    21    15    16    1
    22    18    27    1
    23    21    27    1
    24    21    22    1
    25    27    26    2
    26    22    23    1
    27    22    24    2
    28    26    25    1
    29    24    25    1
