@<TRIPOS>MOLECULE
3oph_MA4_A_1.pdb
 35 37 0 0 0
SMALL
GASTEIGER

@<TRIPOS>ATOM
      1  C1        56.1430   63.3970    5.1330 C.3     1  MA41        0.2695
      2  C2        57.6070   63.3090    5.6140 C.3     1  MA41        0.2406
      3  C3        58.0410   64.5370    6.4240 C.3     1  MA41        0.2198
      4  C4        57.0970   64.8140    7.5970 C.3     1  MA41        0.2144
      5  C5        55.6360   64.4770    7.2680 C.3     1  MA41        0.1835
      6  C6        54.7040   65.5360    7.8460 C.3     1  MA41        0.2142
      7  O2        57.8310   62.1200    6.3930 O.3     1  MA41       -0.2149
      8  O3        58.1220   65.6960    5.5790 O.3     1  MA41       -0.2174
      9  O5        55.4040   64.4020    5.8520 O.3     1  MA41       -0.3256
     10  O6        54.9250   65.7000    9.2560 O.3     1  MA41       -0.2176
     11  O1        55.4500   62.1390    5.2040 O.3     1  MA41       -0.3257
     12  O4        57.5300   64.0640    8.7430 O.3     1  MA41       -0.2176
     13  C10       54.5610   58.9790    2.6130 C.3     1  MA41        0.2695
     14  C20       56.0380   59.1820    2.9390 C.3     1  MA41        0.2404
     15  C30       56.2010   60.1060    4.1400 C.3     1  MA41        0.2167
     16  C40       55.4210   61.4120    3.9690 C.3     1  MA41        0.1804
     17  C50       53.9690   61.1320    3.5390 C.3     1  MA41        0.1803
     18  C60       53.2410   62.4180    3.1520 C.3     1  MA41        0.2141
     19  O10       54.4420   58.2320    1.4050 O.3     1  MA41       -0.3286
     20  O20       56.6100   57.9100    3.2580 O.3     1  MA41       -0.2149
     21  O30       57.5970   60.3910    4.3230 O.3     1  MA41       -0.2175
     22  O50       53.8960   60.2300    2.4250 O.3     1  MA41       -0.3257
     23  O60       53.8840   62.9950    2.0030 O.3     1  MA41       -0.2176
     24  C11       53.7540   56.9930    1.5750 C.3     1  MA41        0.1449
     25  C21       52.3760   57.2290    2.1800 C.3     1  MA41        0.0322
     26  C31       52.1170   56.2270    3.2920 C.3     1  MA41        0.0026
     27  C41       50.6190   56.0540    3.4790 C.3     1  MA41        0.0001
     28  C51       50.3610   55.0450    4.5800 C.3     1  MA41        0.0000
     29  C61       48.8890   54.6670    4.6130 C.3     1  MA41        0.0000
     30  C12       48.3940   54.5560    6.0460 C.3     1  MA41        0.0000
     31  C22       47.5890   53.2670    6.2010 C.3     1  MA41        0.0000
     32  C32       46.9270   53.1240    7.5740 C.3     1  MA41        0.0000
     33  C42       46.1700   54.3800    8.0030 C.3     1  MA41        0.0000
     34  C52       46.9710   55.6640    7.7820 C.3     1  MA41        0.0000
     35  C62       47.5070   55.7530    6.3570 C.3     1  MA41        0.0000
@<TRIPOS>BOND
     1    19    24    1
     2    19    13    1
     3    24    25    1
     4    23    18    1
     5    25    26    1
     6    22    13    1
     7    22    17    1
     8    13    14    1
     9    14    20    1
    10    14    15    1
    11    18    17    1
    12    26    27    1
    13    27    28    1
    14    17    16    1
    15    16    15    1
    16    16    11    1
    17    15    21    1
    18    28    29    1
    19    29    30    1
    20     1    11    1
    21     1     2    1
    22     1     9    1
    23     8     3    1
    24     2     7    1
    25     2     3    1
    26     9     5    1
    27    30    31    1
    28    30    35    1
    29    31    32    1
    30    35    34    1
    31     3     4    1
    32     5     4    1
    33     5     6    1
    34    32    33    1
    35     4    12    1
    36    34    33    1
    37     6    10    1
