@<TRIPOS>MOLECULE
3opl_MA4_A_1.pdb
 24 25 0 0 0
SMALL
GASTEIGER

@<TRIPOS>ATOM
      1  O1        55.9090   62.4600    5.2100 O.3   400  MA4400     -0.2176
      2  C10       54.0290   59.5640    2.8520 C.3   400  MA4400      0.2695
      3  C20       55.5550   59.4980    2.8960 C.3   400  MA4400      0.2406
      4  C30       56.0480   60.2860    4.1110 C.3   400  MA4400      0.2198
      5  C40       55.5410   61.7300    4.0350 C.3   400  MA4400      0.2144
      6  C50       54.0210   61.7770    3.8300 C.3   400  MA4400      0.1835
      7  C60       53.5530   63.2120    3.5860 C.3   400  MA4400      0.2142
      8  O10       53.5260   58.7840    1.7610 O.3   400  MA4400     -0.3286
      9  O20       56.0010   58.1380    2.9450 O.3   400  MA4400     -0.2149
     10  O30       57.4800   60.2690    4.1600 O.3   400  MA4400     -0.2174
     11  O50       53.6280   60.9360    2.7290 O.3   400  MA4400     -0.3256
     12  O60       52.7300   63.2820    2.4140 O.3   400  MA4400     -0.2176
     13  C11       52.3410   58.0570    2.1070 C.3   400  MA4400      0.1449
     14  C21       52.6580   56.6480    2.6160 C.3   400  MA4400      0.0322
     15  C31       51.7950   56.2630    3.8110 C.3   400  MA4400      0.0026
     16  C41       50.5100   55.5400    3.4080 C.3   400  MA4400      0.0001
     17  C51       49.3450   55.8590    4.3500 C.3   400  MA4400      0.0000
     18  C61       49.0540   54.7170    5.3280 C.3   400  MA4400      0.0000
     19  C12       47.6600   54.7640    5.9560 C.3   400  MA4400      0.0000
     20  C22       47.6470   55.6900    7.1730 C.3   400  MA4400      0.0000
     21  C32       46.3790   55.6200    8.0250 C.3   400  MA4400      0.0000
     22  C42       45.8290   54.2060    8.2190 C.3   400  MA4400      0.0000
     23  C52       46.8170   53.1290    7.7770 C.3   400  MA4400      0.0000
     24  C62       47.2430   53.3350    6.3200 C.3   400  MA4400      0.0000
@<TRIPOS>BOND
     1     8    13    1
     2     8     2    1
     3    13    14    1
     4    12     7    1
     5    14    15    1
     6    11     2    1
     7    11     6    1
     8     2     3    1
     9     3     9    1
    10     3     4    1
    11    16    15    1
    12    16    17    1
    13     7     6    1
    14     6     5    1
    15     5     4    1
    16     5     1    1
    17     4    10    1
    18    17    18    1
    19    18    19    1
    20    19    24    1
    21    19    20    1
    22    24    23    1
    23    20    21    1
    24    23    22    1
    25    21    22    1
