@<TRIPOS>MOLECULE
3opm_LUI_A_1.pdb
 28 30 0 0 0
SMALL
GASTEIGER

@<TRIPOS>ATOM
      1  C4        18.3500  -32.8510   13.6900 C.ar  800  LUI800      0.0371
      2  C5        17.7940  -31.6790   13.1880 C.ar  800  LUI800      0.1393
      3  C6        16.6670  -31.1300   13.8180 C.ar  800  LUI800      0.0371
      4  C7        16.1030  -33.6310   16.6280 C.ar  800  LUI800      0.2606
      5  C10       18.3430  -34.7130   15.3530 C.ar  800  LUI800      0.0135
      6  C13       21.9730  -35.3770   14.8280 C.ar  800  LUI800      0.0000
      7  C15       20.7560  -36.6580   13.1920 C.ar  800  LUI800      0.0000
      8  C17       18.3450  -36.5980   17.0620 C.3   800  LUI800      0.1528
      9  C20       14.6300  -36.0250   17.9110 C.3   800  LUI800      0.0227
     10  C21       14.2800  -37.1710   18.8440 C.3   800  LUI800      0.0020
     11  C22       14.6120  -36.5640   16.4910 C.3   800  LUI800      0.0020
     12  C26       18.2630  -29.9640    9.9490 C.2   800  LUI800      0.3052
     13  O28       17.7190  -29.1570    9.1940 O.2   800  LUI800     -0.2676
     14  N27       19.4270  -30.5810    9.7230 N.am  800  LUI800     -0.0845
     15  C25       17.5750  -30.2850   11.2390 C.3   800  LUI800      0.2929
     16  O24       18.3800  -31.1050   12.0830 O.3   800  LUI800     -0.4655
     17  C1        16.1120  -31.7600   14.9310 C.ar  800  LUI800      0.0078
     18  C3        17.7820  -33.4660   14.8090 C.ar  800  LUI800      0.0087
     19  C9        17.7180  -35.3250   16.5490 C.ar  800  LUI800      0.0590
     20  N18       19.4800  -36.2540   17.8830 N.3   800  LUI800     -0.1246
     21  N8        16.6320  -34.7610   17.1180 N.ar  800  LUI800     -0.2978
     22  C19       15.9640  -35.3520   18.2920 C.3   800  LUI800      0.1087
     23  O23       15.1040  -33.1420   17.1930 O.2   800  LUI800     -0.2670
     24  C2        16.6700  -32.9340   15.4340 C.ar  800  LUI800      0.0564
     25  C11       19.5600  -35.2890   14.7420 C.ar  800  LUI800      0.0011
     26  C16       19.5480  -36.1680   13.6760 C.ar  800  LUI800      0.0000
     27  C14       21.9630  -36.2640   13.7630 C.ar  800  LUI800      0.0000
     28  C12       20.7690  -34.8900   15.3100 C.ar  800  LUI800      0.0000
@<TRIPOS>BOND
     1    13    12    2
     2    14    12   am
     3    12    15    1
     4    15    16    1
     5    16     2    1
     6     2     1   ar
     7     2     3   ar
     8     7    26   ar
     9     7    27   ar
    10    26    25   ar
    11     1    18   ar
    12    27     6   ar
    13     3    17   ar
    14    25    28   ar
    15    25     5    1
    16    18     5   ar
    17    18    24   ar
    18     6    28   ar
    19    17    24   ar
    20     5    19   ar
    21    24     4   ar
    22    11     9    1
    23    19     8    1
    24    19    21   ar
    25     4    21   ar
    26     4    23    2
    27     8    20    1
    28    21    22    1
    29     9    22    1
    30     9    10    1
