@<TRIPOS>MOLECULE
3opp_MA4_A_1.pdb
 35 37 0 0 0
SMALL
GASTEIGER

@<TRIPOS>ATOM
      1  C1        60.2990   52.7970    2.1540 C.3   293  MA4293      0.2695
      2  C2        60.8580   52.1510    0.8950 C.3   293  MA4293      0.2406
      3  C3        60.4910   50.6710    0.8340 C.3   293  MA4293      0.2198
      4  C4        60.8070   49.9220    2.1330 C.3   293  MA4293      0.2144
      5  C5        60.2450   50.6880    3.3420 C.3   293  MA4293      0.1835
      6  C6        60.6410   50.0540    4.6690 C.3   293  MA4293      0.2142
      7  O2        60.2450   52.8040   -0.2180 O.3   293  MA4293     -0.2149
      8  O3        61.1370   50.0690   -0.3000 O.3   293  MA4293     -0.2174
      9  O5        60.7080   52.0550    3.3030 O.3   293  MA4293     -0.3256
     10  O6        62.0650   50.0450    4.7800 O.3   293  MA4293     -0.2176
     11  O1        58.8630   52.7610    2.0440 O.3   293  MA4293     -0.3257
     12  O4        60.3120   48.5650    2.1170 O.3   293  MA4293     -0.2176
     13  C10       55.6560   55.3060    2.6010 C.3   293  MA4293      0.2695
     14  C20       56.4320   55.5600    1.3170 C.3   293  MA4293      0.2404
     15  C30       57.3240   54.3410    1.0840 C.3   293  MA4293      0.2167
     16  C40       58.2050   54.0110    2.2870 C.3   293  MA4293      0.1804
     17  C50       57.3820   53.8930    3.5670 C.3   293  MA4293      0.1803
     18  C60       58.2920   53.8060    4.7890 C.3   293  MA4293      0.2141
     19  O10       54.8040   56.4280    2.8830 O.3   293  MA4293     -0.3286
     20  O20       55.5410   55.7210    0.2030 O.3   293  MA4293     -0.2149
     21  O30       58.1440   54.5600   -0.0610 O.3   293  MA4293     -0.2175
     22  O50       56.5650   55.0650    3.6900 O.3   293  MA4293     -0.3257
     23  O60       59.1630   54.9620    4.7790 O.3   293  MA4293     -0.2176
     24  C11       53.7990   56.0820    3.8460 C.3   293  MA4293      0.1449
     25  C21       52.4660   55.9620    3.1320 C.3   293  MA4293      0.0322
     26  C31       51.4200   55.2530    3.9840 C.3   293  MA4293      0.0026
     27  C41       50.0930   55.9920    3.8210 C.3   293  MA4293      0.0001
     28  C51       48.8890   55.2760    4.4190 C.3   293  MA4293      0.0000
     29  C61       49.1610   54.7270    5.8040 C.3   293  MA4293      0.0000
     30  C12       47.8790   54.6430    6.6030 C.3   293  MA4293      0.0000
     31  C22       47.9980   55.5710    7.8240 C.3   293  MA4293      0.0000
     32  C32       47.4310   55.0490    9.1490 C.3   293  MA4293      0.0000
     33  C42       46.4600   53.8880    8.9590 C.3   293  MA4293      0.0000
     34  C52       47.2190   52.7640    8.2770 C.3   293  MA4293      0.0000
     35  C62       47.6550   53.1520    6.8680 C.3   293  MA4293      0.0000
@<TRIPOS>BOND
     1     8     3    1
     2     7     2    1
     3    21    15    1
     4    20    14    1
     5     3     2    1
     6     3     4    1
     7     2     1    1
     8    15    14    1
     9    15    16    1
    10    14    13    1
    11    11     1    1
    12    11    16    1
    13    12     4    1
    14     4     5    1
    15     1     9    1
    16    16    17    1
    17    13    19    1
    18    13    22    1
    19    19    24    1
    20    25    24    1
    21    25    26    1
    22     9     5    1
    23     5     6    1
    24    17    22    1
    25    17    18    1
    26    27    26    1
    27    27    28    1
    28    28    29    1
    29     6    10    1
    30    23    18    1
    31    29    30    1
    32    30    35    1
    33    30    31    1
    34    35    34    1
    35    31    32    1
    36    34    33    1
    37    33    32    1
