@<TRIPOS>MOLECULE
3opp_SA2_A_1.pdb
 24 23 0 0 0
SMALL
GASTEIGER

@<TRIPOS>ATOM
      1  O23       34.8670   59.6410    3.8500 O.co2   1  SA21       -0.2457
      2  C20       35.5410   60.5830    3.3800 C.2     1  SA21        0.3649
      3  O22       36.7680   60.7070    3.5580 O.co2   1  SA21       -0.2457
      4  C19       34.8180   61.6370    2.5660 C.3     1  SA21        0.1146
      5  C18       35.0860   61.4070    1.0820 C.3     1  SA21        0.0235
      6  C17       34.0350   62.0680    0.1970 C.3     1  SA21        0.1101
      7  C16       34.0720   63.5580    0.4390 C.2     1  SA21        0.3170
      8  O24       34.9950   64.2290   -0.0040 O.2     1  SA21       -0.2501
      9  O15       33.0160   64.1740    1.2170 O.3     1  SA21       -0.4466
     10  C14       33.0580   65.5680    1.5320 C.3     1  SA21        0.2322
     11  C2        31.8050   66.0000    2.2690 C.3     1  SA21        0.1791
     12  S1        31.9820   67.5950    2.7880 S.3     1  SA21       -0.0156
     13  O13       33.0580   67.6480    3.7500 O.3     1  SA21       -0.0781
     14  O12       32.4380   68.3830    1.6810 O.3     1  SA21       -0.0781
     15  C21       30.6390   65.9090    1.2890 C.3     1  SA21        0.0298
     16  C3        31.6140   65.0320    3.4610 C.3     1  SA21        0.2286
     17  C9        30.4290   65.3380    4.3470 C.2     1  SA21        0.3884
     18  O10       30.5260   66.1630    5.2800 O.co2   1  SA21       -0.2434
     19  O11       29.3740   64.7160    4.1570 O.co2   1  SA21       -0.2434
     20  N4        32.8530   64.9270    4.2350 N.2     1  SA21       -0.2618
     21  C5        33.2090   63.8400    4.9260 C.2     1  SA21        0.0757
     22  C6        32.4110   62.7870    5.1400 C.3     1  SA21        0.1186
     23  C7        32.9190   61.6620    5.9130 C.2     1  SA21        0.2138
     24  O8        33.9140   61.8160    6.6100 O.2     1  SA21       -0.2879
@<TRIPOS>BOND
     1     8     7    2
     2     6     7    1
     3     6     5    1
     4     7     9    1
     5     5     4    1
     6     9    10    1
     7    15    11    1
     8    10    11    1
     9    14    12    1
    10    11    12    1
    11    11    16    1
    12     4     2    1
    13    12    13    1
    14     2     3   ar
    15     2     1   ar
    16    16    20    1
    17    16    17    1
    18    19    17   ar
    19    20    21    2
    20    17    18   ar
    21    21    22    1
    22    22    23    1
    23    23    24    2
