@<TRIPOS>MOLECULE
3opq_F6R_G_1.pdb
 16 15 0 0 0
SMALL
GASTEIGER

@<TRIPOS>ATOM
      1  C1        45.8130   58.6090  101.9220 C.3   167  F6R167      0.2486
      2  C2        44.3050   58.6200  102.1140 C.2   167  F6R167      0.2165
      3  C3        43.3880   59.2860  101.0910 C.3   167  F6R167      0.2440
      4  C4        41.9260   58.8050  100.8840 C.3   167  F6R167      0.2220
      5  C5        41.6380   57.7650   99.7610 C.3   167  F6R167      0.2151
      6  C6        40.8860   58.3220   98.5270 C.3   167  F6R167      0.1892
      7  O1        46.2450   57.8460  100.7820 O.3   167  F6R167     -0.2118
      8  O2        43.8840   58.1310  103.1350 O.2   167  F6R167     -0.2905
      9  O3        43.3030   60.6290  101.5740 O.3   167  F6R167     -0.2122
     10  O4        41.1760   60.0020  100.5920 O.3   167  F6R167     -0.2171
     11  O5        40.9130   56.5960  100.2240 O.3   167  F6R167     -0.2176
     12  O6        39.4450   58.3510   98.6480 O.3   167  F6R167     -0.2674
     13  P         38.4460   58.6090   97.3730 P.3   167  F6R167      0.5327
     14  O1P       37.7590   57.2820   97.1710 O.3   167  F6R167     -0.1145
     15  O2P       37.5180   59.7020   97.8480 O.3   167  F6R167     -0.1145
     16  O3P       39.2960   59.0170   96.1900 O.2   167  F6R167     -0.2224
@<TRIPOS>BOND
     1    16    13    2
     2    14    13    1
     3    13    15    1
     4    13    12    1
     5     6    12    1
     6     6     5    1
     7     5    11    1
     8     5     4    1
     9    10     4    1
    10     7     1    1
    11     4     3    1
    12     3     9    1
    13     3     2    1
    14     1     2    1
    15     2     8    2
