@<TRIPOS>MOLECULE
3opr_MA4_A_1.pdb
 35 37 0 0 0
SMALL
GASTEIGER

@<TRIPOS>ATOM
      1  C1        60.0320   52.9820    1.9920 C.3   400  MA4400      0.2695
      2  C2        60.5710   52.3370    0.7310 C.3   400  MA4400      0.2406
      3  C3        60.2250   50.8580    0.7290 C.3   400  MA4400      0.2198
      4  C4        60.6210   50.1120    2.0140 C.3   400  MA4400      0.2144
      5  C5        60.4320   50.8800    3.3340 C.3   400  MA4400      0.1835
      6  C6        61.6820   50.5850    4.1720 C.3   400  MA4400      0.2142
      7  O2        59.9250   52.9270   -0.4010 O.3   400  MA4400     -0.2149
      8  O3        60.8660   50.2690   -0.4170 O.3   400  MA4400     -0.2174
      9  O5        60.4750   52.3120    3.1860 O.3   400  MA4400     -0.3256
     10  O6        61.3740   49.7450    5.2740 O.3   400  MA4400     -0.2176
     11  O1        58.6020   52.9530    1.9060 O.3   400  MA4400     -0.3257
     12  O4        59.9440   48.8360    2.0540 O.3   400  MA4400     -0.2176
     13  C10       55.3820   55.5110    2.4730 C.3   400  MA4400      0.2695
     14  C20       56.1650   55.7750    1.1970 C.3   400  MA4400      0.2404
     15  C30       57.0740   54.5730    0.9160 C.3   400  MA4400      0.2167
     16  C40       57.9730   54.2300    2.1080 C.3   400  MA4400      0.1804
     17  C50       57.1640   54.1660    3.4050 C.3   400  MA4400      0.1803
     18  C60       58.0130   54.0800    4.6680 C.3   400  MA4400      0.2141
     19  O10       54.5550   56.6470    2.7520 O.3   400  MA4400     -0.3286
     20  O20       55.2840   56.0120    0.0940 O.3   400  MA4400     -0.2149
     21  O30       57.8660   54.8610   -0.2430 O.3   400  MA4400     -0.2175
     22  O50       56.3330   55.3360    3.5290 O.3   400  MA4400     -0.3257
     23  O60       58.9300   55.1940    4.6620 O.3   400  MA4400     -0.2176
     24  C11       53.5840   56.3640    3.7600 C.3   400  MA4400      0.1449
     25  C21       52.2580   56.1400    3.0650 C.3   400  MA4400      0.0322
     26  C31       51.2480   55.5590    4.0390 C.3   400  MA4400      0.0026
     27  C41       49.8540   55.7080    3.4420 C.3   400  MA4400      0.0001
     28  C51       48.7770   55.9330    4.4960 C.3   400  MA4400      0.0000
     29  C61       48.9370   54.9560    5.6480 C.3   400  MA4400      0.0000
     30  C12       47.6910   54.8990    6.5080 C.3   400  MA4400      0.0000
     31  C22       47.9440   55.7140    7.7810 C.3   400  MA4400      0.0000
     32  C32       46.8740   55.5320    8.8540 C.3   400  MA4400      0.0000
     33  C42       46.2740   54.1290    8.9170 C.3   400  MA4400      0.0000
     34  C52       47.1600   53.0830    8.2430 C.3   400  MA4400      0.0000
     35  C62       47.4110   53.4170    6.7770 C.3   400  MA4400      0.0000
@<TRIPOS>BOND
     1     8     3    1
     2     7     2    1
     3    21    15    1
     4    20    14    1
     5     3     2    1
     6     3     4    1
     7     2     1    1
     8    15    14    1
     9    15    16    1
    10    14    13    1
    11    11     1    1
    12    11    16    1
    13     1     9    1
    14     4    12    1
    15     4     5    1
    16    16    17    1
    17    13    19    1
    18    13    22    1
    19    19    24    1
    20    25    24    1
    21    25    26    1
    22     9     5    1
    23     5     6    1
    24    17    22    1
    25    17    18    1
    26    27    26    1
    27    27    28    1
    28     6    10    1
    29    28    29    1
    30    23    18    1
    31    29    30    1
    32    30    35    1
    33    30    31    1
    34    35    34    1
    35    31    32    1
    36    34    33    1
    37    32    33    1
