@<TRIPOS>MOLECULE
3opr_SA2_A_1.pdb
 24 23 0 0 0
SMALL
GASTEIGER

@<TRIPOS>ATOM
      1  O23       34.8600   59.8770    3.7490 O.co2   1  SA21       -0.2457
      2  C20       35.5130   60.8500    3.3170 C.2     1  SA21        0.3649
      3  O22       36.7470   60.9900    3.4470 O.co2   1  SA21       -0.2457
      4  C19       34.7560   61.9250    2.5800 C.3     1  SA21        0.1146
      5  C18       35.0110   61.6570    1.0960 C.3     1  SA21        0.0235
      6  C17       33.9440   62.2840    0.2130 C.3     1  SA21        0.1101
      7  C16       33.9920   63.7840    0.3680 C.2     1  SA21        0.3170
      8  O24       34.9310   64.4430   -0.0590 O.2     1  SA21       -0.2501
      9  O15       32.9090   64.4450    1.0510 O.3     1  SA21       -0.4466
     10  C14       32.9830   65.8370    1.3660 C.3     1  SA21        0.2322
     11  C2        31.7520   66.2670    2.1490 C.3     1  SA21        0.1791
     12  S1        31.9860   67.8570    2.6580 S.3     1  SA21       -0.0156
     13  O13       33.0780   67.9040    3.6040 O.3     1  SA21       -0.0781
     14  O12       32.3460   68.6550    1.5190 O.3     1  SA21       -0.0781
     15  C21       30.5530   66.1820    1.2080 C.3     1  SA21        0.0298
     16  C3        31.5340   65.3000    3.3350 C.3     1  SA21        0.2286
     17  C9        30.3720   65.6630    4.2210 C.2     1  SA21        0.3884
     18  O10       30.5330   66.4910    5.1380 O.co2   1  SA21       -0.2434
     19  O11       29.2770   65.1070    4.0250 O.co2   1  SA21       -0.2434
     20  N4        32.7380   65.1560    4.1480 N.2     1  SA21       -0.2618
     21  C5        33.0540   64.0670    4.8390 C.2     1  SA21        0.0757
     22  C6        32.2560   63.0190    5.0560 C.3     1  SA21        0.1186
     23  C7        32.7940   61.9110    5.8350 C.2     1  SA21        0.2138
     24  O8        33.8380   62.0580    6.4500 O.2     1  SA21       -0.2879
@<TRIPOS>BOND
     1     8     7    2
     2     6     7    1
     3     6     5    1
     4     7     9    1
     5     9    10    1
     6     5     4    1
     7    15    11    1
     8    10    11    1
     9    14    12    1
    10    11    12    1
    11    11    16    1
    12     4     2    1
    13    12    13    1
    14     2     3   ar
    15     2     1   ar
    16    16    20    1
    17    16    17    1
    18    19    17   ar
    19    20    21    2
    20    17    18   ar
    21    21    22    1
    22    22    23    1
    23    23    24    2
