@<TRIPOS>MOLECULE
3opt_AKG_A_1.pdb
 10 9 0 0 0
SMALL
GASTEIGER

@<TRIPOS>ATOM
      1  C1       -52.4290   37.5050    3.1040 C.2   501  AKG501      0.4219
      2  O1       -52.4740   36.7020    2.1550 O.co2 501  AKG501     -0.2373
      3  O2       -53.0810   37.3170    4.1600 O.co2 501  AKG501     -0.2373
      4  C2       -51.7390   38.8090    2.8940 C.2   501  AKG501      0.2526
      5  O5       -52.4030   39.8560    2.8210 O.2   501  AKG501     -0.2843
      6  C3       -50.2480   38.8380    2.6900 C.3   501  AKG501      0.0881
      7  C4       -49.7030   40.0830    2.0870 C.3   501  AKG501      0.1224
      8  C5       -49.4080   40.0940    0.6190 C.2   501  AKG501      0.3653
      9  O3       -49.4640   39.0260   -0.0640 O.co2 501  AKG501     -0.2456
     10  O4       -49.0460   41.1790    0.0610 O.co2 501  AKG501     -0.2456
@<TRIPOS>BOND
     1     9     8   ar
     2    10     8   ar
     3     8     7    1
     4     7     6    1
     5     2     1   ar
     6     6     4    1
     7     5     4    2
     8     4     1    1
     9     1     3   ar
