@<TRIPOS>MOLECULE
3opx_U5P_A_1.pdb
 14 14 0 0 0
SMALL
GASTEIGER

@<TRIPOS>ATOM
      1  N1         7.0440   -6.0860  -28.1820 N.3   265  U5P265     -0.0972
      2  C1'        7.8060   -5.9690  -26.9650 C.3   265  U5P265      0.2397
      3  C2'        8.8260   -4.8370  -27.0140 C.3   265  U5P265      0.2298
      4  O2'        9.9580   -5.1800  -27.7920 O.3   265  U5P265     -0.2160
      5  C3'        9.1170   -4.5950  -25.5340 C.3   265  U5P265      0.2156
      6  C4'        7.8220   -5.0030  -24.8190 C.3   265  U5P265      0.1799
      7  O3'       10.1790   -5.4670  -25.1480 O.3   265  U5P265     -0.2176
      8  O4'        7.0330   -5.7380  -25.8000 O.3   265  U5P265     -0.3336
      9  C5'        6.9970   -3.8820  -24.2210 C.3   265  U5P265      0.1859
     10  O5'        6.3880   -4.2670  -22.9840 O.3   265  U5P265     -0.2675
     11  P          5.2920   -3.4290  -22.2270 P.3   265  U5P265      0.5327
     12  O1P        4.5670   -4.4090  -21.3660 O.3   265  U5P265     -0.1145
     13  O2P        4.3520   -2.8060  -23.2230 O.2   265  U5P265     -0.2224
     14  O3P        5.9170   -2.3420  -21.4490 O.3   265  U5P265     -0.1145
@<TRIPOS>BOND
     1     1     2    1
     2     4     3    1
     3     3     2    1
     4     3     5    1
     5     2     8    1
     6     8     6    1
     7     5     7    1
     8     5     6    1
     9     6     9    1
    10     9    10    1
    11    13    11    2
    12    10    11    1
    13    11    14    1
    14    11    12    1
