@<TRIPOS>MOLECULE
3opy_ATP_B_1.pdb
 31 33 0 0 0
SMALL
GASTEIGER

@<TRIPOS>ATOM
      1  PG         6.6410  -37.4480  -15.2130 P.3   942  ATP942      0.5373
      2  O1G        6.7040  -37.8160  -16.7150 O.2   942  ATP942     -0.2221
      3  O2G        8.0070  -37.5570  -14.4760 O.3   942  ATP942     -0.1143
      4  O3G        5.5230  -38.1280  -14.3400 O.3   942  ATP942     -0.1143
      5  PB         5.2570  -35.0160  -15.8970 P.3   942  ATP942      0.2277
      6  O1B        4.7190  -35.7270  -17.1810 O.2   942  ATP942     -0.5168
      7  O2B        4.0910  -34.6240  -14.9060 O.3   942  ATP942     -0.4368
      8  O3B        6.2910  -35.9160  -15.1470 O.3   942  ATP942     -0.2258
      9  PA         6.9060  -32.7440  -15.4230 P.3   942  ATP942      0.2189
     10  O1A        7.7970  -33.3840  -14.2950 O.3   942  ATP942     -0.4371
     11  O2A        7.8260  -31.9360  -16.3940 O.2   942  ATP942     -0.5170
     12  O3A        6.1590  -33.8020  -16.3340 O.3   942  ATP942     -0.2700
     13  O5'        5.8340  -31.7050  -14.7520 O.3   942  ATP942     -0.3112
     14  C5'        5.3860  -30.6300  -15.5950 C.3   942  ATP942      0.1813
     15  C4'        4.6370  -29.6310  -14.8090 C.3   942  ATP942      0.1821
     16  O4'        3.6020  -30.3820  -14.2450 O.3   942  ATP942     -0.3135
     17  C3'        5.4460  -29.2390  -13.6200 C.3   942  ATP942      0.2184
     18  O3'        6.4730  -28.3030  -13.8310 O.3   942  ATP942     -0.2174
     19  C2'        4.3990  -28.7920  -12.6540 C.3   942  ATP942      0.2570
     20  O2'        4.1180  -27.3500  -12.8070 O.3   942  ATP942     -0.2130
     21  C1'        3.3300  -29.9180  -12.9170 C.3   942  ATP942      0.3186
     22  N9         3.4980  -31.0380  -11.9880 N.pl3 942  ATP942     -0.1439
     23  C8         3.8890  -32.3220  -12.2200 C.3   942  ATP942      0.3377
     24  N7         3.9600  -33.0690  -11.1160 N.2   942  ATP942     -0.2095
     25  C5         3.5900  -32.2110  -10.1180 C.2   942  ATP942      0.2526
     26  C6         3.4250  -32.3590   -8.7060 C.2   942  ATP942      0.4393
     27  N6         3.6270  -33.5490   -8.0360 N.pl3 942  ATP942      0.2180
     28  N1         3.0230  -31.2580   -7.9570 N.2   942  ATP942      0.0021
     29  C2         2.7860  -30.0700   -8.5620 C.3   942  ATP942      0.5254
     30  N3         2.8880  -29.8590   -9.9000 N.2   942  ATP942     -0.0055
     31  C4         3.2990  -30.9530  -10.6340 C.2   942  ATP942      0.3518
@<TRIPOS>BOND
     1     6     5    2
     2     2     1    2
     3    11     9    2
     4    12     5    1
     5    12     9    1
     6     5     8    1
     7     5     7    1
     8    14    15    1
     9    14    13    1
    10     9    13    1
    11     9    10    1
    12     1     8    1
    13     1     3    1
    14     1     4    1
    15    15    16    1
    16    15    17    1
    17    16    21    1
    18    18    17    1
    19    17    19    1
    20    21    19    1
    21    21    22    1
    22    20    19    1
    23    23    22    1
    24    23    24    1
    25    22    31    1
    26    24    25    2
    27    31    25    1
    28    31    30    2
    29    25    26    1
    30    30    29    1
    31    26    27    1
    32    26    28    2
    33    29    28    1
