@<TRIPOS>MOLECULE
3oq1_NAP_A_1.pdb
 48 52 0 0 0
SMALL
GASTEIGER

@<TRIPOS>ATOM
      1  PA        37.4600   21.1630  -10.9300 P.3     1  NAP1        0.2189
      2  O1A       38.6070   20.3800  -11.4640 O.2     1  NAP1       -0.5170
      3  O2A       37.9700   22.2910  -10.1220 O.3     1  NAP1       -0.4371
      4  O5B       36.5330   21.7550  -12.1010 O.3     1  NAP1       -0.3112
      5  C5B       35.6950   22.8330  -11.7720 C.3     1  NAP1        0.1813
      6  C4B       34.9750   23.2900  -13.0200 C.3     1  NAP1        0.1820
      7  O4B       34.0590   24.2910  -12.6440 O.3     1  NAP1       -0.3136
      8  C3B       35.9360   23.8980  -14.0270 C.3     1  NAP1        0.2157
      9  O3B       35.5460   23.5000  -15.3200 O.3     1  NAP1       -0.2175
     10  C2B       35.7300   25.3830  -13.8550 C.3     1  NAP1        0.2314
     11  O2B       35.8930   26.0660  -15.0710 O.3     1  NAP1       -0.2630
     12  C1B       34.2870   25.4410  -13.4110 C.3     1  NAP1        0.3158
     13  N9A       34.0060   26.6540  -12.6470 N.pl3   1  NAP1       -0.1439
     14  C8A       34.7170   27.2050  -11.6120 C.3     1  NAP1        0.3377
     15  N7A       34.0580   28.3320  -11.2330 N.2     1  NAP1       -0.2095
     16  C5A       32.9600   28.5010  -12.0180 C.2     1  NAP1        0.2526
     17  C6A       31.9490   29.4620  -12.0690 C.2     1  NAP1        0.4393
     18  N6A       31.9510   30.4990  -11.2170 N.pl3   1  NAP1        0.2180
     19  N1A       30.9410   29.3300  -13.0150 N.2     1  NAP1        0.0021
     20  C2A       30.9200   28.2700  -13.8910 C.3     1  NAP1        0.5254
     21  N3A       31.9220   27.3260  -13.8350 N.2     1  NAP1       -0.0055
     22  C4A       32.9180   27.4420  -12.9140 C.2     1  NAP1        0.3518
     23  O3        36.3770   20.1760  -10.2300 O.3     1  NAP1       -0.2703
     24  PN        36.0450   18.6000  -10.3730 P.3     1  NAP1        0.2189
     25  O1N       35.8110   18.1670  -11.7740 O.2     1  NAP1       -0.5170
     26  O2N       36.9960   17.8490   -9.5050 O.3     1  NAP1       -0.4371
     27  O5D       34.6090   18.5310   -9.6840 O.3     1  NAP1       -0.3112
     28  C5D       33.4390   18.5700  -10.4500 C.3     1  NAP1        0.1813
     29  C4D       32.3460   18.0380   -9.5480 C.3     1  NAP1        0.1799
     30  O4D       32.8630   16.8840   -8.9250 O.3     1  NAP1       -0.3327
     31  C3D       31.9760   19.0040   -8.4250 C.3     1  NAP1        0.2158
     32  O3D       30.5870   18.9750   -8.1920 O.3     1  NAP1       -0.2175
     33  C2D       32.6670   18.4240   -7.2120 C.3     1  NAP1        0.2309
     34  O2D       31.9630   18.7330   -6.0480 O.3     1  NAP1       -0.2158
     35  C1D       32.5740   16.9490   -7.5430 C.3     1  NAP1        0.2263
     36  N1N       33.4920   16.1340   -6.7490 N.pl3   1  NAP1       -0.2787
     37  C2N       34.7760   15.9780   -7.1510 C.3     1  NAP1        0.1244
     38  C3N       35.6370   15.1940   -6.4030 C.2     1  NAP1        0.0544
     39  C7N       37.0910   15.4180   -6.5680 C.2     1  NAP1        0.2818
     40  O7N       37.9300   14.8680   -5.5790 O.2     1  NAP1       -0.2670
     41  N7N       37.5150   16.1230   -7.6290 N.am    1  NAP1       -0.0839
     42  C4N       35.1900   14.5720   -5.2430 C.2     1  NAP1        0.0033
     43  C5N       33.8680   14.7450   -4.8260 C.2     1  NAP1        0.0157
     44  C6N       33.0250   15.5280   -5.6130 C.2     1  NAP1        0.0633
     45  P2B       36.4900   27.5560  -15.0920 P.3     1  NAP1        0.5328
     46  O1X       36.9290   27.7500  -16.5290 O.2     1  NAP1       -0.2224
     47  O2X       35.3880   28.5190  -14.7420 O.3     1  NAP1       -0.1145
     48  O3X       37.6810   27.7500  -14.1580 O.3     1  NAP1       -0.1145
@<TRIPOS>BOND
     1    46    45    2
     2     9     8    1
     3    45    11    1
     4    45    47    1
     5    45    48    1
     6    11    10    1
     7     8    10    1
     8     8     6    1
     9    20    21    1
    10    20    19    1
    11    10    12    1
    12    21    22    2
    13    12    13    1
    14    12     7    1
    15     6     7    1
    16     6     5    1
    17    19    17    2
    18    22    13    1
    19    22    16    1
    20    13    14    1
    21     4     5    1
    22     4     1    1
    23    17    16    1
    24    17    18    1
    25    16    15    2
    26    25    24    2
    27    14    15    1
    28     2     1    2
    29     1    23    1
    30     1     3    1
    31    28    27    1
    32    28    29    1
    33    24    23    1
    34    24    27    1
    35    24    26    1
    36    29    30    1
    37    29    31    1
    38    30    35    1
    39    31    32    1
    40    31    33    1
    41    41    39   am
    42    35    33    1
    43    35    36    1
    44    33    34    1
    45    37    36    1
    46    37    38    1
    47    36    44    1
    48    39    38    1
    49    39    40    2
    50    38    42    2
    51    44    43    2
    52    42    43    1
