@<TRIPOS>MOLECULE
3oq1_3OQ_A_1.pdb
 27 28 0 0 0
SMALL
GASTEIGER

@<TRIPOS>ATOM
      1  C4        37.5810   12.0290    1.5590 C.ar  293  3OQ293      0.0682
      2  C5        38.5090   11.1290    2.1320 C.1   293  3OQ293      0.1004
      3  C7        37.3380   13.3100    2.0730 C.ar  293  3OQ293      0.0074
      4  C8        36.3900   14.1410    1.4480 C.ar  293  3OQ293     -0.0012
      5  C10       37.1980   16.5460    1.6690 C.3   293  3OQ293      0.1979
      6  C15       35.3140   15.7810   -1.4520 C.ar  293  3OQ293      0.1103
      7  C17       35.4130   18.1280   -1.9970 C.ar  293  3OQ293     -0.0003
      8  C21       35.8680   19.9240   -4.1870 C.3   293  3OQ293      0.0465
      9  C22       37.9890   19.8790   -2.8050 C.3   293  3OQ293      0.4263
     10  C26       36.9180   16.5710   -3.0540 C.ar  293  3OQ293     -0.0003
     11  F23       38.6310   20.7680   -3.5870 F     293  3OQ293     -0.1671
     12  F24       38.7940   19.0150   -2.2170 F     293  3OQ293     -0.1671
     13  F25       37.3750   20.5340   -1.8380 F     293  3OQ293     -0.1671
     14  C19       37.0300   19.0550   -3.6610 C.3   293  3OQ293      0.2317
     15  O20       37.7690   18.5030   -4.7510 O.3   293  3OQ293     -0.2124
     16  C18       36.4460   17.8790   -2.8800 C.ar  293  3OQ293      0.0132
     17  C27       36.3540   15.5100   -2.3380 C.ar  293  3OQ293      0.0185
     18  C16       34.8570   17.0740   -1.2880 C.ar  293  3OQ293      0.0185
     19  S12       34.5480   14.5470   -0.5330 S.O2  293  3OQ293      0.0271
     20  O13       33.5720   15.1180    0.4370 O.2   293  3OQ293     -0.1643
     21  O14       33.7810   13.6440   -1.4630 O.2   293  3OQ293     -0.1643
     22  C1        35.7230   13.6310    0.3200 C.ar  293  3OQ293      0.1064
     23  C2        35.9760   12.3580   -0.1820 C.ar  293  3OQ293      0.0191
     24  C3        36.9120   11.5530    0.4420 C.ar  293  3OQ293      0.0116
     25  N6        39.2430   10.3600    2.5330 N.1   293  3OQ293     -0.1908
     26  C9        36.1240   15.5370    2.0380 C.3   293  3OQ293      0.0658
     27  F11       38.1210   16.6500    2.7050 F     293  3OQ293     -0.2340
@<TRIPOS>BOND
     1    15    14    1
     2     8    14    1
     3    14    16    1
     4    14     9    1
     5    11     9    1
     6    10    16   ar
     7    10    17   ar
     8    16     7   ar
     9     9    12    1
    10     9    13    1
    11    17     6   ar
    12     7    18   ar
    13    21    19    2
    14     6    18   ar
    15     6    19    1
    16    19    22    1
    17    19    20    2
    18    23    22   ar
    19    23    24   ar
    20    22     4   ar
    21    24     1   ar
    22     4    26    1
    23     4     3   ar
    24     1     3   ar
    25     1     2    1
    26     5    26    1
    27     5    27    1
    28     2    25    3
