@<TRIPOS>MOLECULE
3oq5_LYS_D_1.pdb
 10 9 0 0 0
SMALL
GASTEIGER

@<TRIPOS>ATOM
      1  N         27.8520   11.8810   26.0450 N.3   382  LYS382     -0.1245
      2  CA        29.1470   11.5920   26.7280 C.3   382  LYS382      0.1561
      3  CB        29.2980   10.0880   26.9250 C.3   382  LYS382      0.0271
      4  CG        28.0680    9.3690   26.3860 C.3   382  LYS382      0.0034
      5  CD        28.2450    7.8570   26.4850 C.3   382  LYS382      0.0189
      6  CE        26.9020    7.1370   26.5050 C.3   382  LYS382      0.0888
      7  NZ        27.0470    5.6970   26.5740 N.3   382  LYS382     -0.2165
      8  CM        25.8770    4.8780   26.8260 C.3   382  LYS382      0.1075
      9  C         30.3100   12.1610   25.9630 C.2   382  LYS382      0.2260
     10  O         31.4090   11.6090   25.9360 O.2   382  LYS382     -0.2867
@<TRIPOS>BOND
     1    10     9    2
     2     9     2    1
     3     1     2    1
     4     4     5    1
     5     4     3    1
     6     5     6    1
     7     6     7    1
     8     7     8    1
     9     2     3    1
