@<TRIPOS>MOLECULE
3oq6_NAJ_A_1.pdb
 44 48 0 0 0
SMALL
GASTEIGER

@<TRIPOS>ATOM
      1  PA        14.5820  -25.9970   -1.4320 P.3   377  NAJ377      0.2189
      2  O1A       15.9260  -26.5540   -1.1280 O.2   377  NAJ377     -0.5170
      3  O2A       13.4550  -26.2920   -0.5450 O.3   377  NAJ377     -0.4371
      4  O5B       14.1400  -26.4350   -2.8720 O.3   377  NAJ377     -0.3112
      5  C5B       15.0830  -26.7390   -3.9420 C.3   377  NAJ377      0.1813
      6  C4B       14.5970  -27.9300   -4.6900 C.3   377  NAJ377      0.1821
      7  O4B       15.5290  -28.1340   -5.7490 O.3   377  NAJ377     -0.3135
      8  C3B       14.5070  -29.2240   -3.8640 C.3   377  NAJ377      0.2184
      9  O3B       13.2080  -29.7530   -3.8350 O.3   377  NAJ377     -0.2174
     10  C2B       15.5590  -30.1230   -4.5430 C.3   377  NAJ377      0.2570
     11  O2B       15.2740  -31.5030   -4.5620 O.3   377  NAJ377     -0.2130
     12  C1B       15.6050  -29.5130   -5.9470 C.3   377  NAJ377      0.3186
     13  N9A       16.7950  -29.8350   -6.6880 N.pl3 377  NAJ377     -0.1439
     14  C8A       18.0800  -29.9000   -6.2200 C.3   377  NAJ377      0.3377
     15  N7A       18.9290  -30.1730   -7.1950 N.2   377  NAJ377     -0.2095
     16  C5A       18.1830  -30.3150   -8.3340 C.2   377  NAJ377      0.2526
     17  C6A       18.5200  -30.6590   -9.6700 C.2   377  NAJ377      0.4393
     18  N6A       19.7390  -30.8980  -10.0950 N.pl3 377  NAJ377      0.2180
     19  N1A       17.4290  -30.6350  -10.4870 N.2   377  NAJ377      0.0021
     20  C2A       16.1460  -30.3990  -10.1330 C.3   377  NAJ377      0.5254
     21  N3A       15.7970  -30.1620   -8.8650 N.2   377  NAJ377     -0.0055
     22  C4A       16.8480  -30.1240   -8.0300 C.2   377  NAJ377      0.3518
     23  O3        14.8470  -24.4360   -1.5610 O.3   377  NAJ377     -0.2703
     24  PN        13.8780  -23.1320   -1.5590 P.3   377  NAJ377      0.2189
     25  O1N       13.8050  -22.5520   -0.2060 O.3   377  NAJ377     -0.4371
     26  O2N       12.6830  -23.4210   -2.3420 O.2   377  NAJ377     -0.5170
     27  O5D       14.8600  -22.1770   -2.3710 O.3   377  NAJ377     -0.3112
     28  C5D       15.1800  -22.4940   -3.7560 C.3   377  NAJ377      0.1813
     29  C4D       16.2940  -21.5680   -4.2010 C.3   377  NAJ377      0.1799
     30  O4D       15.8100  -20.2070   -4.3090 O.3   377  NAJ377     -0.3327
     31  C3D       17.5100  -21.5260   -3.2780 C.3   377  NAJ377      0.2158
     32  O3D       18.7160  -21.3920   -4.0220 O.3   377  NAJ377     -0.2175
     33  C2D       17.3220  -20.2150   -2.5200 C.3   377  NAJ377      0.2309
     34  O2D       18.5090  -19.7010   -1.9900 O.3   377  NAJ377     -0.2158
     35  C1D       16.6610  -19.3630   -3.5800 C.3   377  NAJ377      0.2263
     36  N1N       15.8550  -18.2070   -3.1390 N.pl3 377  NAJ377     -0.2787
     37  C2N       15.9820  -17.0690   -3.8490 C.3   377  NAJ377      0.1244
     38  C3N       15.1420  -16.0030   -3.5840 C.2   377  NAJ377      0.0544
     39  C7N       15.1620  -14.7710   -4.3990 C.2   377  NAJ377      0.2818
     40  O7N       14.7460  -13.6980   -3.8980 O.2   377  NAJ377     -0.2670
     41  N7N       15.6500  -14.8180   -5.6600 N.am  377  NAJ377     -0.0839
     42  C4N       14.1900  -16.1490   -2.4840 C.2   377  NAJ377      0.0033
     43  C5N       14.0720  -17.3380   -1.8210 C.2   377  NAJ377      0.0157
     44  C6N       14.8740  -18.3670   -2.1750 C.2   377  NAJ377      0.0633
@<TRIPOS>BOND
     1    19    20    1
     2    19    17    2
     3    20    21    1
     4    18    17    1
     5    17    16    1
     6    21    22    2
     7    16    22    1
     8    16    15    2
     9    22    13    1
    10    15    14    1
    11    13    14    1
    12    13    12    1
    13    12     7    1
    14    12    10    1
    15     7     6    1
    16    41    39   am
    17     6     5    1
    18     6     8    1
    19    11    10    1
    20    10     8    1
    21    39    40    2
    22    39    38    1
    23    30    29    1
    24    30    35    1
    25    29    28    1
    26    29    31    1
    27    32    31    1
    28     5     4    1
    29     8     9    1
    30    37    38    1
    31    37    36    1
    32    28    27    1
    33    38    42    2
    34    35    36    1
    35    35    33    1
    36    31    33    1
    37    36    44    1
    38     4     1    1
    39    33    34    1
    40    42    43    1
    41    27    24    1
    42    26    24    2
    43    44    43    2
    44    23    24    1
    45    23     1    1
    46    24    25    1
    47     1     2    2
    48     1     3    1
