@<TRIPOS>MOLECULE
3oq6_PFB_A_1.pdb
 13 13 0 0 0
SMALL
GASTEIGER

@<TRIPOS>ATOM
      1  C1        17.7670  -14.4840   -0.5200 C.ar  378  PFB378      0.0701
      2  C2        18.2650  -14.1840   -1.7880 C.ar  378  PFB378      0.1704
      3  C3        19.5900  -13.8560   -2.0000 C.ar  378  PFB378      0.1968
      4  C4        20.4310  -13.7500   -0.9250 C.ar  378  PFB378      0.1991
      5  C5        19.9810  -14.0530    0.3390 C.ar  378  PFB378      0.1968
      6  C6        18.6590  -14.3910    0.5290 C.ar  378  PFB378      0.1704
      7  C7        16.3140  -14.8310   -0.2990 C.3   378  PFB378      0.2132
      8  F2        17.4930  -14.2870   -2.8640 F     378  PFB378     -0.2019
      9  F3        20.0280  -13.5680   -3.2370 F     378  PFB378     -0.1993
     10  F4        21.7250  -13.4020   -1.1160 F     378  PFB378     -0.1993
     11  F5        20.8010  -13.9510    1.3890 F     378  PFB378     -0.1993
     12  F6        18.2670  -14.6710    1.7630 F     378  PFB378     -0.2019
     13  O1        16.0750  -16.1800    0.0600 O.3   378  PFB378     -0.2150
@<TRIPOS>BOND
     1     9     3    1
     2     8     2    1
     3     3     2   ar
     4     3     4   ar
     5     2     1   ar
     6    10     4    1
     7     4     5   ar
     8     1     7    1
     9     1     6   ar
    10     7    13    1
    11     5     6   ar
    12     5    11    1
    13     6    12    1
