@<TRIPOS>MOLECULE
3oqf_S51_A_1.pdb
 30 34 0 0 0
SMALL
GASTEIGER

@<TRIPOS>ATOM
      1  C1       -14.0100  -20.9970   -3.4290 C.ar  328  S51328      0.0001
      2  C2       -14.3230  -22.2560   -2.9180 C.ar  328  S51328      0.0015
      3  C3       -13.3080  -23.0620   -2.3930 C.ar  328  S51328      0.0175
      4  C4       -11.9460  -22.6930   -2.3780 C.ar  328  S51328      0.0637
      5  C5       -11.6870  -21.4160   -2.9250 C.ar  328  S51328      0.0175
      6  C6       -12.6820  -20.5730   -3.4280 C.ar  328  S51328      0.0015
      7  N12      -10.9880  -23.5190   -1.8630 N.ar  328  S51328     -0.3094
      8  C13      -10.5860  -24.6160   -2.5460 C.ar  328  S51328      0.0638
      9  C14       -9.3880  -25.0210   -1.9440 C.ar  328  S51328      0.0216
     10  C15       -9.1460  -24.1290   -0.8980 C.ar  328  S51328      0.0672
     11  C16      -10.0560  -23.0620   -0.9880 C.ar  328  S51328      0.0501
     12  C17      -11.1540  -25.4340   -3.5380 C.ar  328  S51328      0.0175
     13  C18      -10.4960  -26.6000   -3.9520 C.ar  328  S51328      0.0015
     14  C19       -9.2870  -26.9790   -3.3580 C.ar  328  S51328      0.0001
     15  C20       -8.7250  -26.1910   -2.3460 C.ar  328  S51328      0.0016
     16  C26      -10.1430  -22.2540    1.3540 C.ar  328  S51328     -0.0163
     17  C29       -9.1280  -21.7680    2.1720 C.ar  328  S51328     -0.0039
     18  C30       -9.0790  -22.2000    3.4990 C.ar  328  S51328     -0.0003
     19  C31      -10.0300  -23.1090    3.9790 C.ar  328  S51328     -0.0000
     20  C32      -11.0410  -23.6050    3.1480 C.ar  328  S51328     -0.0003
     21  C33      -11.0950  -23.1710    1.8260 C.ar  328  S51328     -0.0039
     22  C39       -7.8200  -24.1770   -0.1650 C.2   328  S51328      0.2502
     23  N40       -7.4560  -25.1750    0.6780 N.am  328  S51328     -0.2731
     24  O41       -7.0630  -23.2280   -0.3400 O.2   328  S51328     -0.2699
     25  C42       -8.2680  -26.3600    0.9650 C.3   328  S51328      0.1125
     26  C43       -8.4540  -26.4300    2.4800 C.3   328  S51328      0.1102
     27  N44       -7.1950  -26.3650    3.1960 N.3   328  S51328     -0.2144
     28  C45       -6.3000  -25.2770    2.8500 C.3   328  S51328      0.1102
     29  C46       -6.1310  -25.1660    1.3330 C.3   328  S51328      0.1125
     30  C60      -10.1630  -21.8320   -0.0830 C.3   328  S51328      0.0705
@<TRIPOS>BOND
     1    13    12   ar
     2    13    14   ar
     3    12     8   ar
     4     1     6   ar
     5     1     2   ar
     6     6     5   ar
     7    14    15   ar
     8     5     4   ar
     9     2     3   ar
    10     8     9   ar
    11     8     7   ar
    12     3     4   ar
    13     4     7    1
    14    15     9   ar
    15     9    10   ar
    16     7    11   ar
    17    11    10   ar
    18    11    30    1
    19    10    22    1
    20    24    22    2
    21    22    23   am
    22    30    16    1
    23    23    25    1
    24    23    29    1
    25    25    26    1
    26    29    28    1
    27    16    21   ar
    28    16    17   ar
    29    21    20   ar
    30    17    18   ar
    31    26    27    1
    32    28    27    1
    33    20    19   ar
    34    18    19   ar
