@<TRIPOS>MOLECULE
3oqi_NHE_A_1.pdb
 13 13 0 0 0
SMALL
GASTEIGER

@<TRIPOS>ATOM
      1  C3'       15.2640   -2.6030   42.5770 C.3   258  NHE258      0.0014
      2  C2'       14.2010   -2.5350   41.5200 C.3   258  NHE258      0.0174
      3  C1'       14.7820   -2.6850   40.1520 C.3   258  NHE258      0.0728
      4  C6'       15.5330   -3.9710   40.0330 C.3   258  NHE258      0.0174
      5  N         13.7190   -2.6280   39.1590 N.3   258  NHE258     -0.2177
      6  C1        13.3540   -1.2430   38.9330 C.3   258  NHE258      0.1101
      7  C2        12.2980   -1.0280   37.8850 C.3   258  NHE258      0.1240
      8  S         11.6130    0.5910   37.7650 S.3   258  NHE258     -0.1946
      9  O1        12.5870    1.4220   37.1160 O.3   258  NHE258     -0.3074
     10  O2        11.2370    1.0630   39.0690 O.3   258  NHE258     -0.3074
     11  O3        10.3960    0.4160   36.9520 O.3   258  NHE258     -0.3074
     12  C5'       16.6200   -4.0370   41.0710 C.3   258  NHE258      0.0014
     13  C4'       16.0660   -3.8540   42.4460 C.3   258  NHE258      0.0001
@<TRIPOS>BOND
     1    11     8    1
     2     9     8    1
     3     8     7    1
     4     8    10    1
     5     7     6    1
     6     6     5    1
     7     5     3    1
     8     4     3    1
     9     4    12    1
    10     3     2    1
    11    12    13    1
    12     2     1    1
    13    13     1    1
