@<TRIPOS>MOLECULE
3oqj_3CX_A_1.pdb
 15 15 0 0 0
SMALL
GASTEIGER

@<TRIPOS>ATOM
      1  OAA       -3.3230   -7.1020  -33.1340 O.3   258  3CX258     -0.3071
      2  OAB       -3.5970   -8.6680  -34.9510 O.3   258  3CX258     -0.3071
      3  OAC       -2.7430  -10.8740  -33.2100 O.2   258  3CX258     -0.2928
      4  OAD       -5.5600   -7.4220  -34.1560 O.3   258  3CX258     -0.3071
      5  CAE       -3.5840  -12.4170  -26.3700 C.3   258  3CX258      0.0001
      6  CAF       -2.3210  -11.9050  -27.0020 C.3   258  3CX258      0.0014
      7  CAG       -4.8260  -11.6200  -26.6460 C.3   258  3CX258      0.0014
      8  CAH       -2.4990  -11.4210  -28.4020 C.3   258  3CX258      0.0174
      9  CAI       -4.9270  -11.1660  -28.0640 C.3   258  3CX258      0.0174
     10  CAJ       -2.9980  -10.5770  -30.8400 C.3   258  3CX258      0.1545
     11  CAK       -4.5440   -9.4710  -32.6190 C.3   258  3CX258      0.1707
     12  NAL       -3.8160   -9.9410  -29.8770 N.3   258  3CX258     -0.2116
     13  CAM       -3.3950  -10.3410  -32.2980 C.2   258  3CX258      0.1881
     14  CAN       -3.6660  -10.4990  -28.5010 C.3   258  3CX258      0.0733
     15  SAO       -4.2530   -8.1030  -33.7620 S.3   258  3CX258     -0.1887
@<TRIPOS>BOND
     1     2    15    1
     2     4    15    1
     3    15     1    1
     4    15    11    1
     5     3    13    2
     6    11    13    1
     7    13    10    1
     8    10    12    1
     9    12    14    1
    10    14     8    1
    11    14     9    1
    12     8     6    1
    13     9     7    1
    14     6     5    1
    15     7     5    1
