@<TRIPOS>MOLECULE
3oqk_S52_A_1.pdb
 30 34 0 0 0
SMALL
GASTEIGER

@<TRIPOS>ATOM
      1  C1       -13.5620  -20.8620   -2.8560 C.ar  327  S52327      0.0001
      2  O1        -9.6150  -21.9180    0.1330 O.3   327  S52327     -0.4373
      3  C2       -13.7190  -22.2560   -2.9000 C.ar  327  S52327      0.0015
      4  C3       -12.6670  -23.0820   -2.4690 C.ar  327  S52327      0.0176
      5  C4       -11.4240  -22.5600   -2.0040 C.ar  327  S52327      0.0667
      6  C5       -11.3210  -21.1370   -2.0160 C.ar  327  S52327      0.0176
      7  C6       -12.3590  -20.2990   -2.4110 C.ar  327  S52327      0.0015
      8  N12      -10.3430  -23.3090   -1.6350 N.ar  327  S52327     -0.2778
      9  C13       -9.8820  -24.3720   -2.3460 C.ar  327  S52327      0.0669
     10  C14       -8.6550  -24.7560   -1.7310 C.ar  327  S52327      0.0251
     11  C15       -8.4260  -23.8700   -0.6780 C.ar  327  S52327      0.1070
     12  C16       -9.4510  -22.9570   -0.7190 C.ar  327  S52327      0.2194
     13  C17      -10.3900  -25.1190   -3.4180 C.ar  327  S52327      0.0176
     14  C18       -9.6650  -26.2290   -3.8680 C.ar  327  S52327      0.0015
     15  C19       -8.4580  -26.6010   -3.2470 C.ar  327  S52327      0.0001
     16  C20       -7.9390  -25.8640   -2.1780 C.ar  327  S52327      0.0017
     17  C26       -9.3580  -22.0380    1.4670 C.ar  327  S52327      0.1471
     18  C29       -8.5240  -21.0750    2.0650 C.ar  327  S52327      0.0376
     19  C30       -8.2510  -21.1990    3.4350 C.ar  327  S52327      0.0031
     20  C31       -8.7810  -22.2610    4.1920 C.ar  327  S52327      0.0002
     21  C32       -9.5950  -23.2000    3.5660 C.ar  327  S52327      0.0031
     22  C33       -9.8940  -23.1010    2.2040 C.ar  327  S52327      0.0376
     23  C39       -7.1890  -23.8150    0.1810 C.2   327  S52327      0.2537
     24  N40       -6.7020  -24.8170    0.9520 N.am  327  S52327     -0.2730
     25  O41       -6.6030  -22.7020    0.1160 O.2   327  S52327     -0.2697
     26  C42       -7.2860  -26.1540    1.1000 C.3   327  S52327      0.1125
     27  C43       -7.5970  -26.3810    2.5760 C.3   327  S52327      0.1102
     28  N44       -6.5550  -25.9060    3.4560 N.3   327  S52327     -0.2144
     29  C45       -5.9190  -24.6280    3.1800 C.3   327  S52327      0.1102
     30  C46       -5.4770  -24.5800    1.7220 C.3   327  S52327      0.1125
@<TRIPOS>BOND
     1    14    13   ar
     2    14    15   ar
     3    13     9   ar
     4    15    16   ar
     5     3     1   ar
     6     3     4   ar
     7     1     7   ar
     8     4     5   ar
     9     7     6   ar
    10     9    10   ar
    11     9     8   ar
    12    16    10   ar
    13     6     5   ar
    14     5     8    1
    15    10    11   ar
    16     8    12   ar
    17    12    11   ar
    18    12     2    1
    19    11    23    1
    20    25    23    2
    21     2    17    1
    22    23    24   am
    23    24    26    1
    24    24    30    1
    25    26    27    1
    26    17    18   ar
    27    17    22   ar
    28    30    29    1
    29    18    19   ar
    30    22    21   ar
    31    27    28    1
    32    29    28    1
    33    19    20   ar
    34    21    20   ar
