@<TRIPOS>MOLECULE
3oqu_A8S_A_1.pdb
 19 19 0 0 0
SMALL
GASTEIGER

@<TRIPOS>ATOM
      1  C1         1.2900   45.0180   -0.2710 C.2   191  A8S191      0.3876
      2  C2         1.4070   43.9680    0.7770 C.2   191  A8S191      0.0819
      3  C3         0.4160   43.0970    1.0670 C.2   191  A8S191     -0.0155
      4  C4        -0.8800   43.1270    0.3400 C.2   191  A8S191     -0.0059
      5  C5        -1.9260   42.4580    0.8340 C.2   191  A8S191      0.0069
      6  C6         0.6190   42.0720    2.1530 C.3   191  A8S191      0.0312
      7  C7        -3.2750   42.4550    0.1500 C.3   191  A8S191      0.1605
      8  O7        -3.3790   43.6050   -0.7200 O.3   191  A8S191     -0.2170
      9  C8        -3.3840   41.2050   -0.7100 C.2   191  A8S191     -0.0101
     10  C9        -3.9100   40.0630   -0.2180 C.2   191  A8S191      0.0316
     11  C10       -4.5270   40.0020    1.1350 C.2   191  A8S191      0.1727
     12  O10       -4.9750   38.9370    1.5700 O.2   191  A8S191     -0.2914
     13  C11       -4.6020   41.2480    1.9930 C.3   191  A8S191      0.0721
     14  O11        0.5300   44.8650   -1.2690 O.co2 191  A8S191     -0.2406
     15  C12       -4.3840   42.5480    1.2170 C.3   191  A8S191      0.0401
     16  O12        1.9640   46.0690   -0.1380 O.co2 191  A8S191     -0.2406
     17  C13       -2.8940   41.2230   -2.1340 C.3   191  A8S191      0.0292
     18  C14       -4.0700   43.6200    2.2620 C.3   191  A8S191      0.0036
     19  C15       -5.6810   42.9590    0.5220 C.3   191  A8S191      0.0036
@<TRIPOS>BOND
     1    17     9    1
     2    14     1   ar
     3     8     7    1
     4     9    10    2
     5     9     7    1
     6     1    16   ar
     7     1     2    1
     8    10    11    1
     9     7     5    1
    10     7    15    1
    11     4     5    2
    12     4     3    1
    13    19    15    1
    14     2     3    2
    15     3     6    1
    16    11    12    2
    17    11    13    1
    18    15    13    1
    19    15    18    1
