@<TRIPOS>MOLECULE
3ord_HEM_A_1.pdb
 43 50 0 0 0
SMALL
GASTEIGER

@<TRIPOS>ATOM
      1  CHA       -7.4710   -4.6440  -11.5620 C.2   139  HEM139      0.0000
      2  CHB       -8.6960   -0.2060  -10.0080 C.2   139  HEM139      0.0000
      3  CHC       -4.8830    1.7780  -12.2320 C.2   139  HEM139      0.0000
      4  CHD       -3.3710   -2.6700  -13.4630 C.2   139  HEM139      0.0000
      5  C1A       -8.1980   -3.6030  -11.0290 C.2   139  HEM139      0.0000
      6  C2A       -9.5560   -3.6650  -10.5080 C.2   139  HEM139      0.0000
      7  C3A       -9.8720   -2.4290  -10.0700 C.2   139  HEM139      0.0000
      8  C4A       -8.7320   -1.5590  -10.3080 C.2   139  HEM139      0.0000
      9  CMA      -11.1980   -1.9560   -9.4140 C.3   139  HEM139      0.0000
     10  CAA      -10.4290   -4.9480  -10.4560 C.3   139  HEM139      0.0000
     11  CBA      -11.5750   -4.9770  -11.4770 C.3   139  HEM139      0.0000
     12  CGA      -12.4800   -6.1820  -11.2470 C.2   139  HEM139      0.0000
     13  O1A      -12.9620   -6.7710  -12.2520 O.co2 139  HEM139      0.0000
     14  O2A      -12.7300   -6.5710  -10.0680 O.co2 139  HEM139      0.0000
     15  C1B       -7.8380    0.7430  -10.5430 C.ar  139  HEM139      0.0000
     16  C2B       -7.9750    2.1830  -10.4660 C.ar  139  HEM139      0.0000
     17  C3B       -6.9210    2.7370  -11.0800 C.ar  139  HEM139      0.0000
     18  C4B       -6.0720    1.6590  -11.5590 C.ar  139  HEM139      0.0000
     19  CMB       -9.1450    2.9220   -9.8000 C.3   139  HEM139      0.0000
     20  CAB       -6.6170    4.2470  -11.2860 C.2   139  HEM139      0.0000
     21  CBB       -6.9290    5.1740  -10.3860 C.2   139  HEM139      0.0000
     22  C1C       -4.1500    0.7410  -12.7680 C.2   139  HEM139      0.0000
     23  C2C       -2.9500    0.8990  -13.5680 C.2   139  HEM139      0.0000
     24  C3C       -2.5350   -0.3240  -13.9250 C.2   139  HEM139      0.0000
     25  C4C       -3.4530   -1.2960  -13.3580 C.2   139  HEM139      0.0000
     26  CMC       -2.3430    2.2760  -13.9250 C.3   139  HEM139      0.0000
     27  CAC       -1.3000   -0.7110  -14.7870 C.2   139  HEM139      0.0000
     28  CBC       -0.8000    0.1620  -15.6640 C.2   139  HEM139      0.0000
     29  C1D       -4.3530   -3.5920  -13.1460 C.ar  139  HEM139      0.0000
     30  C2D       -4.3620   -4.9700  -13.5810 C.ar  139  HEM139      0.0000
     31  C3D       -5.6240   -5.5970  -12.9850 C.ar  139  HEM139      0.0000
     32  C4D       -6.2710   -4.5270  -12.2540 C.ar  139  HEM139      0.0000
     33  CMD       -3.3010   -5.6650  -14.4500 C.3   139  HEM139      0.0000
     34  CAD       -6.0990   -7.0600  -13.1540 C.3   139  HEM139      0.0000
     35  CBD       -7.3280   -7.1020  -14.0570 C.3   139  HEM139      0.0000
     36  CGD       -8.5080   -7.5360  -13.2160 C.2   139  HEM139      0.0000
     37  O1D       -8.3270   -7.9610  -12.0300 O.co2 139  HEM139      0.0000
     38  O2D       -9.6550   -7.4570  -13.7320 O.co2 139  HEM139      0.0000
     39  NA        -7.7200   -2.3100  -10.8770 N.2   139  HEM139      0.0000
     40  NB        -6.6530    0.4680  -11.1980 N.ar  139  HEM139      0.0000
     41  NC        -4.4270   -0.6160  -12.6580 N.2   139  HEM139      0.0000
     42  ND        -5.4790   -3.3770  -12.3650 N.ar  139  HEM139      0.0000
     43 FE         -6.0340   -1.4880  -11.7590 Fe    139  HEM139      0.0000
@<TRIPOS>BOND
     1    28    27    2
     2    27    24    1
     3    33    30    1
     4    35    36    1
     5    35    34    1
     6    26    23    1
     7    24    23    2
     8    24    25    1
     9    38    36   ar
    10    30    29   ar
    11    30    31   ar
    12    23    22    1
    13     4    25    1
    14     4    29    2
    15    25    41    2
    16    36    37   ar
    17    34    31    1
    18    29    42   ar
    19    31    32   ar
    20    22    41    1
    21    22     3    2
    22    41    43    1
    23    42    32   ar
    24    42    43    1
    25    32     1    2
    26    13    12   ar
    27     3    18    1
    28    43    40    1
    29    43    39    1
    30     1     5    1
    31    18    40   ar
    32    18    17   ar
    33    11    12    1
    34    11    10    1
    35    20    17    1
    36    20    21    2
    37    12    14   ar
    38    40    15   ar
    39    17    16   ar
    40     5    39    2
    41     5     6    1
    42    39     8    1
    43    15    16   ar
    44    15     2    1
    45     6    10    1
    46     6     7    2
    47    16    19    1
    48     8     7    1
    49     8     2    2
    50     7     9    1
