@<TRIPOS>MOLECULE
3orf_NAD_A_1.pdb
 44 48 0 0 0
SMALL
GASTEIGER

@<TRIPOS>ATOM
      1  PA        11.8590    0.6520   10.5450 P.3   901  NAD901      0.2189
      2  O1A       12.1650    1.3420    9.2650 O.2   901  NAD901     -0.5170
      3  O2A       11.4770    1.4250   11.7590 O.3   901  NAD901     -0.4371
      4  O5B       13.2500   -0.0880   11.0080 O.3   901  NAD901     -0.3112
      5  C5B       14.0910   -0.8850   10.2560 C.3   901  NAD901      0.1813
      6  C4B       15.4860   -0.7410   10.8900 C.3   901  NAD901      0.1821
      7  O4B       16.3830   -1.5490   10.0730 O.3   901  NAD901     -0.3135
      8  C3B       15.9810    0.7210   10.7240 C.3   901  NAD901      0.2184
      9  O3B       16.6710    1.0960   11.8930 O.3   901  NAD901     -0.2174
     10  C2B       17.0670    0.6380    9.6700 C.3   901  NAD901      0.2570
     11  O2B       18.1260    1.5730    9.9340 O.3   901  NAD901     -0.2130
     12  C1B       17.5820   -0.7980    9.8980 C.3   901  NAD901      0.3186
     13  N9A       18.2180   -1.4340    8.7110 N.pl3 901  NAD901     -0.1439
     14  C8A       17.7820   -1.3040    7.4310 C.3   901  NAD901      0.3377
     15  N7A       18.5770   -2.0710    6.6690 N.2   901  NAD901     -0.2095
     16  C5A       19.5380   -2.6570    7.4480 C.2   901  NAD901      0.2526
     17  C6A       20.6360   -3.5430    7.2170 C.2   901  NAD901      0.4393
     18  N6A       20.9800   -3.9310    5.9640 N.pl3 901  NAD901      0.2180
     19  N1A       21.3910   -3.9680    8.2710 N.2   901  NAD901      0.0021
     20  C2A       21.1180   -3.5400    9.4970 C.3   901  NAD901      0.5254
     21  N3A       20.0860   -2.7050    9.7390 N.2   901  NAD901     -0.0055
     22  C4A       19.3010   -2.2280    8.7480 C.2   901  NAD901      0.3518
     23  O3        10.8320   -0.4780   10.1590 O.3   901  NAD901     -0.2703
     24  PN         9.8580   -1.2760   11.0390 P.3   901  NAD901      0.2189
     25  O1N        8.5440   -0.5980   10.7990 O.2   901  NAD901     -0.5170
     26  O2N       10.4090   -1.5880   12.4230 O.3   901  NAD901     -0.4371
     27  O5D        9.7470   -2.7160   10.2990 O.3   901  NAD901     -0.3112
     28  C5D       10.4820   -3.8680   10.7310 C.3   901  NAD901      0.1813
     29  C4D       10.3390   -5.0110    9.7070 C.3   901  NAD901      0.1799
     30  O4D        8.9490   -5.1360    9.3040 O.3   901  NAD901     -0.3327
     31  C3D       11.1200   -4.8690    8.3950 C.3   901  NAD901      0.2158
     32  O3D       11.8700   -6.1240    8.2290 O.3   901  NAD901     -0.2175
     33  C2D       10.0400   -4.7590    7.3090 C.3   901  NAD901      0.2309
     34  O2D       10.5910   -5.3350    6.1140 O.3   901  NAD901     -0.2158
     35  C1D        9.0170   -5.7140    7.9630 C.3   901  NAD901      0.2263
     36  N1N        7.6120   -6.1470    7.5270 N.pl3 901  NAD901     -0.2787
     37  C2N        6.3850   -5.3810    7.7590 C.3   901  NAD901      0.1244
     38  C3N        5.1450   -5.9490    7.3020 C.2   901  NAD901      0.0544
     39  C7N        3.7610   -5.2680    7.4870 C.2   901  NAD901      0.2818
     40  O7N        2.9530   -5.2460    6.5390 O.2   901  NAD901     -0.2670
     41  N7N        3.5240   -4.8060    8.7330 N.am  901  NAD901     -0.0839
     42  C4N        5.1240   -7.2200    6.6780 C.2   901  NAD901      0.0033
     43  C5N        6.3050   -7.9500    6.4960 C.2   901  NAD901      0.0157
     44  C6N        7.5160   -7.4200    6.9110 C.2   901  NAD901      0.0633
@<TRIPOS>BOND
     1    18    17    1
     2    34    33    1
     3    43    42    1
     4    43    44    2
     5    40    39    2
     6    15    14    1
     7    15    16    2
     8    42    38    2
     9    44    36    1
    10    17    16    1
    11    17    19    2
    12    38    39    1
    13    38    37    1
    14    33    35    1
    15    33    31    1
    16    14    13    1
    17    16    22    1
    18    39    41   am
    19    36    37    1
    20    36    35    1
    21    35    30    1
    22    32    31    1
    23    19    20    1
    24    31    29    1
    25    13    22    1
    26    13    12    1
    27    22    21    2
    28     2     1    2
    29    30    29    1
    30    20    21    1
    31    10    12    1
    32    10    11    1
    33    10     8    1
    34    29    28    1
    35    12     7    1
    36     7     6    1
    37    23     1    1
    38    23    24    1
    39     5     6    1
    40     5     4    1
    41    27    28    1
    42    27    24    1
    43     1     4    1
    44     1     3    1
    45     8     6    1
    46     8     9    1
    47    25    24    2
    48    24    26    1
