@<TRIPOS>MOLECULE
3orh_SAH_A_1.pdb
 26 28 0 0 0
SMALL
GASTEIGER

@<TRIPOS>ATOM
      1  N         71.8520   63.9180   12.7020 N.3   4000  SAH4000    -0.1208
      2  CA        71.8110   63.8640   11.2090 C.3   4000  SAH4000     0.1952
      3  CB        70.3580   63.7620   10.7220 C.3   4000  SAH4000     0.0422
      4  CG        69.8030   62.3890   11.0190 C.3   4000  SAH4000     0.0597
      5  SD        68.2470   62.0690   10.1460 S.3   4000  SAH4000    -0.1375
      6  C         72.4850   65.0710   10.5710 C.2   4000  SAH4000     0.3819
      7  O         73.0780   65.9040   11.2410 O.co2 4000  SAH4000    -0.2441
      8  OXT       72.4350   65.2560    9.2710 O.co2 4000  SAH4000    -0.2441
      9  C5'       67.7110   60.4700   10.8370 C.3   4000  SAH4000     0.0899
     10  C4'       68.3690   59.2870   10.1040 C.3   4000  SAH4000     0.1630
     11  O4'       67.9960   58.0120   10.7040 O.3   4000  SAH4000    -0.3153
     12  C3'       67.9970   59.1430    8.5880 C.3   4000  SAH4000     0.2168
     13  O3'       69.1760   58.9830    7.7640 O.3   4000  SAH4000    -0.2175
     14  C2'       67.0670   57.8910    8.5630 C.3   4000  SAH4000     0.2569
     15  O2'       67.0250   57.1620    7.3550 O.3   4000  SAH4000    -0.2130
     16  C1'       67.7640   57.0200    9.6460 C.3   4000  SAH4000     0.3185
     17  N9        66.9200   56.0860   10.4060 N.pl3 4000  SAH4000    -0.1439
     18  C8        65.6570   56.2730   10.8920 C.3   4000  SAH4000     0.3377
     19  N7        65.3050   55.2420   11.6670 N.2   4000  SAH4000    -0.2095
     20  C5        66.4070   54.4260   11.7960 C.2   4000  SAH4000     0.2526
     21  C6        66.7190   53.1870   12.4690 C.2   4000  SAH4000     0.4393
     22  N6        65.8000   52.5440   13.2810 N.pl3 4000  SAH4000     0.2180
     23  N1        67.9400   52.6680   12.3100 N.2   4000  SAH4000     0.0021
     24  C2        68.9020   53.2160   11.5590 C.3   4000  SAH4000     0.5254
     25  N3        68.6100   54.3680   10.9090 N.2   4000  SAH4000    -0.0055
     26  C4        67.4230   54.9830   10.9940 C.2   4000  SAH4000     0.3518
@<TRIPOS>BOND
     1    15    14    1
     2    13    12    1
     3    14    12    1
     4    14    16    1
     5    12    10    1
     6     8     6   ar
     7    16    17    1
     8    16    11    1
     9    10    11    1
    10    10     9    1
    11     5     9    1
    12     5     4    1
    13    17    18    1
    14    17    26    1
    15     6     2    1
    16     6     7   ar
    17     3     4    1
    18     3     2    1
    19    18    19    1
    20    25    26    2
    21    25    24    1
    22    26    20    1
    23     2     1    1
    24    24    23    1
    25    19    20    2
    26    20    21    1
    27    23    21    2
    28    21    22    1
