@<TRIPOS>MOLECULE
3ori_AGS_A_1.pdb
 31 33 0 0 0
SMALL
GASTEIGER

@<TRIPOS>ATOM
      1  PG       -17.9010   23.0570  111.0970 P.3   340  AGS340      0.4340
      2  S1G      -19.5240   22.5970  111.1320 S.3   340  AGS340      0.0416
      3  O2G      -17.3360   22.4200  109.8130 O.2   340  AGS340     -0.2423
      4  O3G      -17.1370   22.5790  112.3540 O.3   340  AGS340     -0.1305
      5  PB       -18.9250   25.7810  110.7980 P.3   340  AGS340      0.2262
      6  O1B      -19.4650   25.7840  109.4120 O.2   340  AGS340     -0.5168
      7  O2B      -20.0580   25.8890  111.7800 O.3   340  AGS340     -0.4369
      8  O3B      -17.8140   24.6540  111.0250 O.3   340  AGS340     -0.2405
      9  PA       -17.3650   27.6810  112.3140 P.3   340  AGS340      0.2189
     10  O1A      -18.4790   28.3150  113.0620 O.2   340  AGS340     -0.5170
     11  O2A      -16.7390   26.6310  113.2450 O.3   340  AGS340     -0.4371
     12  O3A      -17.9870   27.1330  110.9180 O.3   340  AGS340     -0.2701
     13  O5'      -16.2960   28.8040  111.8430 O.3   340  AGS340     -0.3112
     14  C5'      -15.5570   28.6910  110.6570 C.3   340  AGS340      0.1813
     15  C4'      -14.2230   29.4210  110.8070 C.3   340  AGS340      0.1821
     16  O4'      -14.4560   30.8250  110.9350 O.3   340  AGS340     -0.3135
     17  C3'      -13.3340   29.0270  112.0030 C.3   340  AGS340      0.2184
     18  O3'      -12.3590   28.0530  111.7150 O.3   340  AGS340     -0.2174
     19  C2'      -12.5910   30.3020  112.2550 C.3   340  AGS340      0.2570
     20  O2'      -11.4740   30.3370  111.3960 O.3   340  AGS340     -0.2130
     21  C1'      -13.5290   31.3960  111.8120 C.3   340  AGS340      0.3186
     22  N9       -14.3530   31.9510  112.8800 N.pl3 340  AGS340     -0.1439
     23  C8       -15.5410   31.4200  113.3330 C.3   340  AGS340      0.3377
     24  N7       -16.0110   32.2470  114.2730 N.2   340  AGS340     -0.2095
     25  C5       -15.1490   33.2720  114.4170 C.2   340  AGS340      0.2526
     26  C6       -15.1640   34.3790  115.2440 C.2   340  AGS340      0.4393
     27  N6       -16.2030   34.5890  116.0480 N.pl3 340  AGS340      0.2180
     28  N1       -14.1320   35.2810  115.1500 N.2   340  AGS340      0.0021
     29  C2       -13.0680   35.1020  114.2880 C.3   340  AGS340      0.5254
     30  N3       -13.0720   33.9890  113.4840 N.2   340  AGS340     -0.0055
     31  C4       -14.0970   33.1040  113.5450 C.2   340  AGS340      0.3518
@<TRIPOS>BOND
     1     6     5    2
     2     3     1    2
     3    14    15    1
     4    14    13    1
     5     5    12    1
     6     5     8    1
     7     5     7    1
     8    15    16    1
     9    15    17    1
    10    12     9    1
    11    16    21    1
    12     8     1    1
    13     1     2    1
    14     1     4    1
    15    20    19    1
    16    18    17    1
    17    21    19    1
    18    21    22    1
    19    13     9    1
    20    17    19    1
    21     9    10    2
    22     9    11    1
    23    22    23    1
    24    22    31    1
    25    23    24    1
    26    30    31    2
    27    30    29    1
    28    31    25    1
    29    24    25    2
    30    29    28    1
    31    25    26    1
    32    28    26    2
    33    26    27    1
