@<TRIPOS>MOLECULE
3ork_AGS_A_1.pdb
 31 33 0 0 0
SMALL
GASTEIGER

@<TRIPOS>ATOM
      1  PG        11.8420    8.5320   10.2560 P.3   340  AGS340      0.4340
      2  S1G       12.4410    6.8780   10.3100 S.3   340  AGS340      0.0416
      3  O2G       10.5940    8.7290   11.1110 O.3   340  AGS340     -0.1305
      4  O3G       11.5940    9.0410    8.8250 O.2   340  AGS340     -0.2423
      5  PB        12.9410   10.8320   11.6530 P.3   340  AGS340      0.2262
      6  O1B       12.1550   10.8500   12.8930 O.3   340  AGS340     -0.4369
      7  O2B       14.4100   11.2150   11.7430 O.2   340  AGS340     -0.5168
      8  O3B       12.9860    9.3670   11.0000 O.3   340  AGS340     -0.2405
      9  PA        11.5760   13.1670   10.7050 P.3   340  AGS340      0.2189
     10  O1A       10.9600   13.5380    9.4210 O.2   340  AGS340     -0.5170
     11  O2A       10.6060   13.1080   11.8550 O.3   340  AGS340     -0.4371
     12  O3A       12.2380   11.7390   10.5150 O.3   340  AGS340     -0.2701
     13  O5'       12.7560   14.1490   11.1430 O.3   340  AGS340     -0.3112
     14  C5'       13.9080   14.2370   10.3210 C.3   340  AGS340      0.1813
     15  C4'       14.9990   14.9790   11.0680 C.3   340  AGS340      0.1821
     16  O4'       14.6710   16.3670   11.1730 O.3   340  AGS340     -0.3135
     17  C3'       15.2590   14.5020   12.4920 C.3   340  AGS340      0.2184
     18  O3'       16.0290   13.3260   12.5610 O.3   340  AGS340     -0.2174
     19  C2'       15.9860   15.6920   13.0270 C.3   340  AGS340      0.2570
     20  O2'       17.3220   15.6520   12.5130 O.3   340  AGS340     -0.2130
     21  C1'       15.2090   16.8450   12.4090 C.3   340  AGS340      0.3186
     22  N9        14.0550   17.3390   13.1640 N.pl3 340  AGS340     -0.1439
     23  C8        12.8000   16.7850   13.1900 C.3   340  AGS340      0.3377
     24  N7        11.9640   17.5370   13.9320 N.2   340  AGS340     -0.2095
     25  C5        12.6960   18.5990   14.3870 C.2   340  AGS340      0.2526
     26  C6        12.3710   19.6980   15.1830 C.2   340  AGS340      0.4393
     27  N6        11.1690   19.8970   15.7190 N.pl3 340  AGS340      0.2180
     28  N1        13.3520   20.6210   15.4450 N.2   340  AGS340      0.0021
     29  C2        14.6240   20.4790   14.9440 C.3   340  AGS340      0.5254
     30  N3        14.9790   19.4010   14.1860 N.2   340  AGS340     -0.0055
     31  C4        14.0080   18.4840   13.9010 C.2   340  AGS340      0.3518
@<TRIPOS>BOND
     1     4     1    2
     2    10     9    2
     3     1     2    1
     4     1     8    1
     5     1     3    1
     6    14    15    1
     7    14    13    1
     8    12     9    1
     9    12     5    1
    10     9    13    1
    11     9    11    1
    12     8     5    1
    13    15    16    1
    14    15    17    1
    15    16    21    1
    16     5     7    2
    17     5     6    1
    18    21    19    1
    19    21    22    1
    20    17    18    1
    21    17    19    1
    22    20    19    1
    23    22    23    1
    24    22    31    1
    25    23    24    1
    26    31    30    2
    27    31    25    1
    28    24    25    2
    29    30    29    1
    30    25    26    1
    31    29    28    1
    32    26    28    2
    33    26    27    1
