@<TRIPOS>MOLECULE
3orl_AGS_A_1.pdb
 31 33 0 0 0
SMALL
GASTEIGER

@<TRIPOS>ATOM
      1  PG        25.0490   33.1300    8.8410 P.3   340  AGS340      0.4340
      2  S1G       23.7820   32.4270    7.8890 S.3   340  AGS340      0.0416
      3  O2G       26.4160   32.2850    8.8380 O.2   340  AGS340     -0.2423
      4  O3G       24.5480   33.2350   10.3370 O.3   340  AGS340     -0.1305
      5  PB        24.0880   35.7210    8.2470 P.3   340  AGS340      0.2262
      6  O1B       23.5530   35.8420    6.8670 O.2   340  AGS340     -0.5168
      7  O2B       22.9590   35.3640    9.2320 O.3   340  AGS340     -0.4369
      8  O3B       25.2750   34.6280    8.2520 O.3   340  AGS340     -0.2405
      9  PA        25.6010   37.2380   10.1210 P.3   340  AGS340      0.2189
     10  O1A       24.6450   37.0210   11.2480 O.3   340  AGS340     -0.4371
     11  O2A       26.8540   36.3090   10.2240 O.2   340  AGS340     -0.5170
     12  O3A       24.8200   37.0900    8.7090 O.3   340  AGS340     -0.2701
     13  O5'       26.1180   38.7590   10.0960 O.3   340  AGS340     -0.3112
     14  C5'       27.0790   39.1030    9.1270 C.3   340  AGS340      0.1813
     15  C4'       27.8680   40.3190    9.5800 C.3   340  AGS340      0.1821
     16  O4'       26.9670   41.3540    9.9060 O.3   340  AGS340     -0.3135
     17  C3'       28.7020   40.0610   10.8200 C.3   340  AGS340      0.2184
     18  O3'       30.0180   39.6720   10.4920 O.3   340  AGS340     -0.2174
     19  C2'       28.6390   41.3840   11.5670 C.3   340  AGS340      0.2570
     20  O2'       29.6970   42.2360   11.1790 O.3   340  AGS340     -0.2130
     21  C1'       27.3390   42.0170   11.1000 C.3   340  AGS340      0.3186
     22  N9        26.2810   41.8480   12.1180 N.pl3 340  AGS340     -0.1439
     23  C8        25.4740   40.7500   12.2910 C.3   340  AGS340      0.3377
     24  N7        24.6290   40.9810   13.3190 N.2   340  AGS340     -0.2095
     25  C5        24.8820   42.2130   13.8060 C.2   340  AGS340      0.2526
     26  C6        24.3150   42.9380   14.8480 C.2   340  AGS340      0.4393
     27  N6        23.2950   42.4290   15.5480 N.pl3 340  AGS340      0.2180
     28  N1        24.7870   44.2090   15.1270 N.2   340  AGS340      0.0021
     29  C2        25.8140   44.7510   14.3740 C.3   340  AGS340      0.5254
     30  N3        26.3760   44.0220   13.3400 N.2   340  AGS340     -0.0055
     31  C4        25.9160   42.7720   13.0600 C.2   340  AGS340      0.3518
@<TRIPOS>BOND
     1     6     5    2
     2     2     1    1
     3     5     8    1
     4     5    12    1
     5     5     7    1
     6     8     1    1
     7    12     9    1
     8     3     1    2
     9     1     4    1
    10    14    15    1
    11    14    13    1
    12    15    16    1
    13    15    17    1
    14    16    21    1
    15    13     9    1
    16     9    11    2
    17     9    10    1
    18    18    17    1
    19    17    19    1
    20    21    19    1
    21    21    22    1
    22    20    19    1
    23    22    23    1
    24    22    31    1
    25    23    24    1
    26    31    30    2
    27    31    25    1
    28    24    25    2
    29    30    29    1
    30    25    26    1
    31    29    28    1
    32    26    28    2
    33    26    27    1
