@<TRIPOS>MOLECULE
3orm_AGS_A_1.pdb
 31 33 0 0 0
SMALL
GASTEIGER

@<TRIPOS>ATOM
      1  PG         1.7690   11.5600    9.2970 P.3   340  AGS340      0.4340
      2  S1G       -0.2110   11.2030    9.3820 S.3   340  AGS340      0.0416
      3  O2G        2.3440   10.6410    8.2640 O.2   340  AGS340     -0.2423
      4  O3G        2.4070   11.2620   10.6750 O.3   340  AGS340     -0.1305
      5  PB         0.9910   14.1860    9.0430 P.3   340  AGS340      0.2262
      6  O1B        0.1240   14.1890    7.7470 O.2   340  AGS340     -0.5168
      7  O2B        0.1000   13.9520   10.2290 O.3   340  AGS340     -0.4369
      8  O3B        2.0690   13.0560    8.9110 O.3   340  AGS340     -0.2405
      9  PA         2.4350   16.0670   10.5190 P.3   340  AGS340      0.2189
     10  O1A        1.4510   16.6740   11.5590 O.3   340  AGS340     -0.4371
     11  O2A        3.2290   14.9790   11.1940 O.2   340  AGS340     -0.5170
     12  O3A        1.7110   15.5830    9.1950 O.3   340  AGS340     -0.2701
     13  O5'        3.4290   17.1740   10.0510 O.3   340  AGS340     -0.3112
     14  C5'        4.3350   16.8450    9.0450 C.3   340  AGS340      0.1813
     15  C4'        5.5150   17.7770    8.9610 C.3   340  AGS340      0.1821
     16  O4'        5.4210   19.2140    8.7120 O.3   340  AGS340     -0.3135
     17  C3'        6.9090   17.4730    9.5140 C.3   340  AGS340      0.2184
     18  O3'        7.2980   16.3040   10.1330 O.3   340  AGS340     -0.2174
     19  C2'        7.5400   18.8370    9.6780 C.3   340  AGS340      0.2570
     20  O2'        8.8760   19.1330    9.4500 O.3   340  AGS340     -0.2130
     21  C1'        6.3550   19.8240    9.6510 C.3   340  AGS340      0.3186
     22  N9         5.6180   20.3710   10.7840 N.pl3 340  AGS340     -0.1439
     23  C8         4.5310   19.8160   11.3130 C.3   340  AGS340      0.3377
     24  N7         4.1030   20.6120   12.3670 N.2   340  AGS340     -0.2095
     25  C5         4.9560   21.6730   12.4620 C.2   340  AGS340      0.2526
     26  C6         4.9870   22.7430   13.3180 C.2   340  AGS340      0.4393
     27  N6         3.9950   22.8530   14.3410 N.pl3 340  AGS340      0.2180
     28  N1         5.9440   23.6620   13.2010 N.2   340  AGS340      0.0021
     29  C2         6.8850   23.5420   12.2370 C.3   340  AGS340      0.5254
     30  N3         6.8550   22.4760   11.3860 N.2   340  AGS340     -0.0055
     31  C4         5.8930   21.5540   11.5010 C.2   340  AGS340      0.3518
@<TRIPOS>BOND
     1     6     5    2
     2     3     1    2
     3    16    15    1
     4    16    21    1
     5     8     5    1
     6     8     1    1
     7    15    14    1
     8    15    17    1
     9     5    12    1
    10     5     7    1
    11    14    13    1
    12    12     9    1
    13     1     2    1
    14     1     4    1
    15    20    19    1
    16    17    19    1
    17    17    18    1
    18    21    19    1
    19    21    22    1
    20    13     9    1
    21     9    11    2
    22     9    10    1
    23    22    23    1
    24    22    31    1
    25    23    24    1
    26    30    31    2
    27    30    29    1
    28    31    25    1
    29    29    28    1
    30    24    25    2
    31    25    26    1
    32    28    26    2
    33    26    27    1
