@<TRIPOS>MOLECULE
3orn_ANP_A_1.pdb
 31 33 0 0 0
SMALL
GASTEIGER

@<TRIPOS>ATOM
      1  PG        55.0680  -11.9740   10.2320 P.3     1  ANP1        0.4884
      2  O1G       54.0950  -11.1600   10.9980 O.3     1  ANP1       -0.1240
      3  O2G       55.4270  -11.1730    8.8720 O.2     1  ANP1       -0.2331
      4  O3G       56.4120  -12.1840   11.1170 O.3     1  ANP1       -0.1240
      5  PB        55.5080  -14.6940    9.3210 P.3     1  ANP1        0.4669
      6  O1B       54.8290  -15.9660    9.0040 O.2     1  ANP1       -0.2351
      7  O2B       56.6120  -14.9740   10.4650 O.3     1  ANP1       -0.1253
      8  N3B       54.3550  -13.5280    9.8770 N.3     1  ANP1       -0.0163
      9  PA        57.7340  -14.5100    7.7080 P.3     1  ANP1        0.2220
     10  O1A       58.3330  -13.5570    6.7700 O.2     1  ANP1       -0.5170
     11  O2A       58.5630  -14.4190    9.0890 O.3     1  ANP1       -0.4370
     12  O3A       56.1680  -14.1200    7.9270 O.3     1  ANP1       -0.2360
     13  O5'       57.8540  -15.9880    7.0890 O.3     1  ANP1       -0.3111
     14  C5'       56.9950  -16.0660    5.9550 C.3     1  ANP1        0.1813
     15  C4'       56.9470  -17.5080    5.4290 C.3     1  ANP1        0.1821
     16  O4'       58.2890  -18.0160    5.1630 O.3     1  ANP1       -0.3135
     17  C3'       56.2890  -18.4780    6.4410 C.3     1  ANP1        0.2184
     18  O3'       55.3280  -19.3030    5.7680 O.3     1  ANP1       -0.2174
     19  C2'       57.4500  -19.2970    6.9900 C.3     1  ANP1        0.2570
     20  O2'       57.0140  -20.5970    7.3520 O.3     1  ANP1       -0.2130
     21  C1'       58.4450  -19.3100    5.8340 C.3     1  ANP1        0.3186
     22  N9        59.8270  -19.4510    6.3190 N.pl3   1  ANP1       -0.1439
     23  C8        60.5420  -18.5280    7.0290 C.3     1  ANP1        0.3377
     24  N7        61.7300  -18.9790    7.2840 N.2     1  ANP1       -0.2095
     25  C5        61.8640  -20.2080    6.7620 C.2     1  ANP1        0.2526
     26  C6        62.9050  -21.1630    6.7170 C.2     1  ANP1        0.4393
     27  N6        64.1160  -20.8920    7.3070 N.pl3   1  ANP1        0.2180
     28  N1        62.6870  -22.3370    6.0870 N.2     1  ANP1        0.0021
     29  C2        61.5120  -22.6150    5.5030 C.3     1  ANP1        0.5254
     30  N3        60.5040  -21.7400    5.5200 N.2     1  ANP1       -0.0055
     31  C4        60.6390  -20.5370    6.1310 C.2     1  ANP1        0.3518
@<TRIPOS>BOND
     1    16    15    1
     2    16    21    1
     3    15    14    1
     4    15    17    1
     5    29    30    1
     6    29    28    1
     7    30    31    2
     8    18    17    1
     9    21    22    1
    10    21    19    1
    11    14    13    1
    12    28    26    2
    13    31    22    1
    14    31    25    1
    15    22    23    1
    16    17    19    1
    17    26    25    1
    18    26    27    1
    19    25    24    2
    20    10     9    2
    21    19    20    1
    22    23    24    1
    23    13     9    1
    24     9    12    1
    25     9    11    1
    26    12     5    1
    27     3     1    2
    28     6     5    2
    29     5     8    1
    30     5     7    1
    31     8     1    1
    32     1     2    1
    33     1     4    1
