@<TRIPOS>MOLECULE
3orn_3OR_A_1.pdb
 32 34 0 0 0
SMALL
GASTEIGER

@<TRIPOS>ATOM
      1  C4        63.2020  -10.3750   12.1980 C.ar  400  3OR400      0.0745
      2  C5        62.7070   -9.2750   12.9850 C.ar  400  3OR400      0.0058
      3  C6        63.5440   -8.6020   13.9300 C.ar  400  3OR400      0.0301
      4  C7        63.0220   -7.4480   14.7550 C.3   400  3OR400      0.1527
      5  C13       66.2710  -13.4810   13.1570 C.ar  400  3OR400      0.0192
      6  C15       66.9860  -15.6560   12.3360 C.ar  400  3OR400      0.0324
      7  C17       66.4540  -15.3600   11.0560 C.ar  400  3OR400      0.0368
      8  C20       60.6750   -7.3690   15.6480 C.2   400  3OR400      0.2481
      9  C22       59.7150   -7.8790   16.7060 C.3   400  3OR400      0.0901
     10  C24       61.4480   -9.5670   17.2880 C.3   400  3OR400      0.1718
     11  C26       62.2880  -11.0650   11.2070 C.2   400  3OR400      0.2914
     12  C1        64.5840  -10.8160   12.3620 C.ar  400  3OR400      0.1046
     13  N2        65.0870  -11.9010   11.5980 N.pl3 400  3OR400     -0.2077
     14  C3        65.7210  -13.1330   11.8830 C.ar  400  3OR400      0.0979
     15  N8        61.9780   -7.8370   15.6940 N.am  400  3OR400     -0.1636
     16  C9        64.8810   -9.0390   14.0760 C.ar  400  3OR400      0.1664
     17  F10       65.6960   -8.4330   14.9530 F     400  3OR400     -0.2020
     18  C11       65.3850  -10.1090   13.3150 C.ar  400  3OR400      0.1823
     19  F12       66.6600  -10.4470   13.5200 F     400  3OR400     -0.2004
     20  C14       66.8960  -14.7220   13.3860 C.ar  400  3OR400      0.0073
     21  I16       67.9160  -17.4640   12.6920 I     400  3OR400     -0.0424
     22  C18       65.8290  -14.1020   10.8500 C.ar  400  3OR400      0.1556
     23  F19       65.3270  -13.8240    9.6360 F     400  3OR400     -0.2028
     24  O21       60.2670   -6.5740   14.8050 O.2   400  3OR400     -0.2728
     25  C23       60.3800   -8.6290   17.8460 C.3   400  3OR400      0.0443
     26  O25       62.4770   -8.7610   16.6730 O.3   400  3OR400     -0.2627
     27  O27       62.7720  -11.6680   10.2430 O.2   400  3OR400     -0.2661
     28  N28       60.9300  -10.9680   11.4230 N.am  400  3OR400     -0.0577
     29  O29       60.0980  -11.4020   10.3500 O.3   400  3OR400     -0.2409
     30  C30       59.3170  -10.3010    9.8520 C.3   400  3OR400      0.2088
     31  C31       59.7110  -10.0420    8.4060 C.3   400  3OR400      0.2167
     32  O32       59.2250  -11.0970    7.5950 O.3   400  3OR400     -0.2175
@<TRIPOS>BOND
     1    32    31    1
     2    31    30    1
     3    23    22    1
     4    30    29    1
     5    27    11    2
     6    29    28    1
     7    22     7   ar
     8    22    14   ar
     9     7     6   ar
    10    11    28   am
    11    11     1    1
    12    13    14    1
    13    13    12    1
    14    14     5   ar
    15     1    12   ar
    16     1     2   ar
    17     6    21    1
    18     6    20   ar
    19    12    18   ar
    20     2     3   ar
    21     5    20   ar
    22    18    19    1
    23    18    16   ar
    24     3    16   ar
    25     3     4    1
    26    16    17    1
    27     4    15    1
    28    24     8    2
    29     8    15   am
    30     8     9    1
    31    15    26    1
    32    26    10    1
    33     9    25    1
    34    10    25    1
