@<TRIPOS>MOLECULE
3oro_AGS_A_1.pdb
 31 33 0 0 0
SMALL
GASTEIGER

@<TRIPOS>ATOM
      1  PG        39.0790   41.4700    9.2650 P.3   340  AGS340      0.4340
      2  S1G       40.3040   42.4090    8.4580 S.3   340  AGS340      0.0416
      3  O2G       37.7940   41.4400    8.4290 O.2   340  AGS340     -0.2423
      4  O3G       38.7190   41.9710   10.6680 O.3   340  AGS340     -0.1305
      5  PB        40.1360   38.8120    8.5630 P.3   340  AGS340      0.2262
      6  O1B       39.9270   39.1290    7.1320 O.2   340  AGS340     -0.5168
      7  O2B       41.5770   38.4370    8.9200 O.3   340  AGS340     -0.4369
      8  O3B       39.5840   39.9680    9.5510 O.3   340  AGS340     -0.2405
      9  PA        38.5990   37.0230   10.2780 P.3   340  AGS340      0.2189
     10  O1A       39.6180   36.4040   11.1670 O.3   340  AGS340     -0.4371
     11  O2A       37.6700   38.0040   10.9500 O.2   340  AGS340     -0.5170
     12  O3A       39.1920   37.5510    8.8710 O.3   340  AGS340     -0.2701
     13  O5'       37.6910   35.8300    9.6460 O.3   340  AGS340     -0.3112
     14  C5'       36.8130   36.0880    8.5710 C.3   340  AGS340      0.1813
     15  C4'       35.6180   35.1520    8.6280 C.3   340  AGS340      0.1821
     16  O4'       36.0480   33.8060    8.6240 O.3   340  AGS340     -0.3135
     17  C3'       34.7690   35.3180    9.8840 C.3   340  AGS340      0.2184
     18  O3'       33.8610   36.3950    9.7890 O.3   340  AGS340     -0.2174
     19  C2'       34.1000   33.9680    9.9330 C.3   340  AGS340      0.2570
     20  O2'       33.0200   33.9000    9.0260 O.3   340  AGS340     -0.2130
     21  C1'       35.2050   33.0410    9.4710 C.3   340  AGS340      0.3186
     22  N9        35.9670   32.5520   10.6250 N.pl3 340  AGS340     -0.1439
     23  C8        37.0670   33.1420   11.2010 C.3   340  AGS340      0.3377
     24  N7        37.4640   32.3770   12.2390 N.2   340  AGS340     -0.2095
     25  C5        36.6360   31.3120   12.3250 C.2   340  AGS340      0.2526
     26  C6        36.5930   30.2200   13.1980 C.2   340  AGS340      0.4393
     27  N6        37.4700   30.0860   14.1940 N.pl3 340  AGS340      0.2180
     28  N1        35.6070   29.2750   13.0140 N.2   340  AGS340      0.0021
     29  C2        34.6680   29.3900   12.0020 C.3   340  AGS340      0.5254
     30  N3        34.7030   30.4700   11.1410 N.2   340  AGS340     -0.0055
     31  C4        35.6850   31.4150   11.3120 C.2   340  AGS340      0.3518
@<TRIPOS>BOND
     1     6     5    2
     2     3     1    2
     3     2     1    1
     4     5    12    1
     5     5     7    1
     6     5     8    1
     7    14    15    1
     8    14    13    1
     9    16    15    1
    10    16    21    1
    11    15    17    1
    12    12     9    1
    13    20    19    1
    14     1     8    1
    15     1     4    1
    16    21    19    1
    17    21    22    1
    18    13     9    1
    19    18    17    1
    20    17    19    1
    21     9    11    2
    22     9    10    1
    23    22    23    1
    24    22    31    1
    25    30    31    2
    26    30    29    1
    27    23    24    1
    28    31    25    1
    29    29    28    1
    30    24    25    2
    31    25    26    1
    32    28    26    2
    33    26    27    1
