@<TRIPOS>MOLECULE
3orp_AGS_A_1.pdb
 31 33 0 0 0
SMALL
GASTEIGER

@<TRIPOS>ATOM
      1  PG        10.7210    9.1070    9.4400 P.3   340  AGS340      0.4340
      2  S1G        9.7210    8.5490    8.1050 S.3   340  AGS340      0.0416
      3  O2G       12.1690    8.9010    8.9360 O.2   340  AGS340     -0.2423
      4  O3G       10.5560    8.5060   10.8420 O.3   340  AGS340     -0.1305
      5  PB        10.6420   11.9220    8.7890 P.3   340  AGS340      0.2262
      6  O1B       11.0290   11.6750    7.3800 O.2   340  AGS340     -0.5168
      7  O2B        9.3650   12.7310    8.8270 O.3   340  AGS340     -0.4369
      8  O3B       10.4480   10.6460    9.7510 O.3   340  AGS340     -0.2405
      9  PA        12.1660   13.0280   11.0360 P.3   340  AGS340      0.2189
     10  O1A       10.9430   13.2770   11.7920 O.3   340  AGS340     -0.4371
     11  O2A       13.0860   11.9400   11.5290 O.2   340  AGS340     -0.5170
     12  O3A       11.8440   12.7270    9.5010 O.3   340  AGS340     -0.2701
     13  O5'       12.9120   14.4400   10.9310 O.3   340  AGS340     -0.3112
     14  C5'       14.1120   14.4610   10.1940 C.3   340  AGS340      0.1813
     15  C4'       15.1760   15.2620   10.8970 C.3   340  AGS340      0.1821
     16  O4'       14.8680   16.6650   10.9340 O.3   340  AGS340     -0.3135
     17  C3'       15.4350   14.8560   12.3390 C.3   340  AGS340      0.2184
     18  O3'       16.2720   13.7370   12.4960 O.3   340  AGS340     -0.2174
     19  C2'       16.1020   16.1140   12.8540 C.3   340  AGS340      0.2570
     20  O2'       17.4280   16.1380   12.4010 O.3   340  AGS340     -0.2130
     21  C1'       15.3490   17.2260   12.1460 C.3   340  AGS340      0.3186
     22  N9        14.1700   17.6440   12.9460 N.pl3 340  AGS340     -0.1439
     23  C8        12.9420   17.0160   13.0470 C.3   340  AGS340      0.3377
     24  N7        12.1410   17.7320   13.8480 N.2   340  AGS340     -0.2095
     25  C5        12.8090   18.8350   14.2450 C.2   340  AGS340      0.2526
     26  C6        12.4810   19.9060   15.1020 C.2   340  AGS340      0.4393
     27  N6        11.2450   20.0580   15.6040 N.pl3 340  AGS340      0.2180
     28  N1        13.4360   20.8860   15.3230 N.2   340  AGS340      0.0021
     29  C2        14.6750   20.7860   14.7560 C.3   340  AGS340      0.5254
     30  N3        15.0070   19.7230   13.9450 N.2   340  AGS340     -0.0055
     31  C4        14.0920   18.7760   13.6880 C.2   340  AGS340      0.3518
@<TRIPOS>BOND
     1     6     5    2
     2     2     1    1
     3     5     7    1
     4     5    12    1
     5     5     8    1
     6     3     1    2
     7     1     8    1
     8     1     4    1
     9    12     9    1
    10    14    15    1
    11    14    13    1
    12    15    16    1
    13    15    17    1
    14    13     9    1
    15    16    21    1
    16     9    11    2
    17     9    10    1
    18    21    19    1
    19    21    22    1
    20    17    18    1
    21    17    19    1
    22    20    19    1
    23    22    23    1
    24    22    31    1
    25    23    24    1
    26    31    30    2
    27    31    25    1
    28    24    25    2
    29    30    29    1
    30    25    26    1
    31    29    28    1
    32    26    28    2
    33    26    27    1
