@<TRIPOS>MOLECULE
3orq_ADP_A_1.pdb
 27 29 0 0 0
SMALL
GASTEIGER

@<TRIPOS>ATOM
      1  PB        13.5290   -4.1290   48.2340 P.3   376  ADP376      0.5373
      2  O1B       12.4140   -3.6690   47.3310 O.2   376  ADP376     -0.2221
      3  O2B       14.6850   -4.8800   47.6340 O.3   376  ADP376     -0.1143
      4  O3B       13.9620   -3.0370   49.1730 O.3   376  ADP376     -0.1143
      5  PA        12.2440   -6.5980   48.8220 P.3   376  ADP376      0.2231
      6  O1A       10.7700   -6.5730   49.1400 O.3   376  ADP376     -0.4370
      7  O2A       12.6770   -6.9600   47.4240 O.2   376  ADP376     -0.5169
      8  O3A       12.8900   -5.1830   49.2680 O.3   376  ADP376     -0.2261
      9  O5'       13.0200   -7.5820   49.8260 O.3   376  ADP376     -0.3111
     10  C5'       14.4340   -7.5890   49.9170 C.3   376  ADP376      0.1813
     11  C4'       14.8810   -8.9470   50.4290 C.3   376  ADP376      0.1821
     12  O4'       14.2900   -9.2350   51.7230 O.3   376  ADP376     -0.3135
     13  C3'       14.4660  -10.0980   49.5090 C.3   376  ADP376      0.2184
     14  O3'       15.3970  -10.3690   48.4550 O.3   376  ADP376     -0.2174
     15  C2'       14.3760  -11.2660   50.4790 C.3   376  ADP376      0.2570
     16  O2'       15.6240  -11.9280   50.5770 O.3   376  ADP376     -0.2130
     17  C1'       13.9900  -10.6370   51.8130 C.3   376  ADP376      0.3186
     18  N9        12.5210  -10.7980   51.8800 N.pl3 376  ADP376     -0.1439
     19  C8        11.6180   -9.8710   51.4940 C.3   376  ADP376      0.3377
     20  N7        10.3470  -10.3220   51.6330 N.2   376  ADP376     -0.2095
     21  C5        10.4550  -11.5750   52.1440 C.2   376  ADP376      0.2526
     22  C6         9.4860  -12.6240   52.5550 C.2   376  ADP376      0.4393
     23  N6         8.1520  -12.3870   52.4250 N.pl3 376  ADP376      0.2180
     24  N1         9.9940  -13.7890   53.0210 N.2   376  ADP376      0.0021
     25  C2        11.3260  -14.0130   53.1290 C.3   376  ADP376      0.5254
     26  N3        12.2680  -13.1050   52.7750 N.2   376  ADP376     -0.0055
     27  C4        11.8830  -11.8920   52.2900 C.2   376  ADP376      0.3518
@<TRIPOS>BOND
     1     2     1    2
     2     7     5    2
     3     3     1    1
     4     1     4    1
     5     1     8    1
     6    14    13    1
     7     5     6    1
     8     5     8    1
     9     5     9    1
    10    13    11    1
    11    13    15    1
    12     9    10    1
    13    10    11    1
    14    11    12    1
    15    15    16    1
    16    15    17    1
    17    19    20    1
    18    19    18    1
    19    20    21    2
    20    12    17    1
    21    17    18    1
    22    18    27    1
    23    21    27    1
    24    21    22    1
    25    27    26    2
    26    23    22    1
    27    22    24    2
    28    26    25    1
    29    24    25    1
