@<TRIPOS>MOLECULE
3ort_AGS_A_1.pdb
 31 33 0 0 0
SMALL
GASTEIGER

@<TRIPOS>ATOM
      1  PG         6.1190   34.6010    9.3000 P.3   340  AGS340      0.4340
      2  S1G        4.8210   34.1020    8.3190 S.3   340  AGS340      0.0416
      3  O2G        7.4130   34.3200    8.5020 O.2   340  AGS340     -0.2423
      4  O3G        5.9200   33.9550   10.7080 O.3   340  AGS340     -0.1305
      5  PB         5.8010   37.4250    8.6290 P.3   340  AGS340      0.2262
      6  O1B        5.8370   37.1250    7.1800 O.2   340  AGS340     -0.5168
      7  O2B        4.4970   38.0570    9.0870 O.3   340  AGS340     -0.4369
      8  O3B        6.1350   36.1900    9.6120 O.3   340  AGS340     -0.2405
      9  PA         7.6130   38.6090   10.5020 P.3   340  AGS340      0.2189
     10  O1A        6.5180   38.7120   11.4910 O.3   340  AGS340     -0.4371
     11  O2A        8.6900   37.5630   10.7950 O.2   340  AGS340     -0.5170
     12  O3A        7.0200   38.3790    9.0260 O.3   340  AGS340     -0.2701
     13  O5'        8.3550   40.0220   10.2480 O.3   340  AGS340     -0.3112
     14  C5'        9.3450   40.0980    9.2500 C.3   340  AGS340      0.1813
     15  C4'       10.5470   40.8880    9.7300 C.3   340  AGS340      0.1821
     16  O4'       10.1540   42.2430    9.9380 O.3   340  AGS340     -0.3135
     17  C3'       11.1660   40.4450   11.0560 C.3   340  AGS340      0.2184
     18  O3'       12.2130   39.5060   10.9400 O.3   340  AGS340     -0.2174
     19  C2'       11.7480   41.7600   11.5450 C.3   340  AGS340      0.2570
     20  O2'       12.9680   42.0380   10.9000 O.3   340  AGS340     -0.2130
     21  C1'       10.8220   42.8270   11.0380 C.3   340  AGS340      0.3186
     22  N9         9.8360   43.2380   12.0450 N.pl3 340  AGS340     -0.1439
     23  C8         8.6530   42.6150   12.3760 C.3   340  AGS340      0.3377
     24  N7         8.0140   43.3520   13.3250 N.2   340  AGS340     -0.2095
     25  C5         8.7490   44.4420   13.6200 C.2   340  AGS340      0.2526
     26  C6         8.6010   45.5390   14.4640 C.2   340  AGS340      0.4393
     27  N6         7.8270   45.5740   15.5310 N.pl3 340  AGS340      0.2180
     28  N1         9.5990   46.4720   14.4940 N.2   340  AGS340      0.0021
     29  C2        10.6860   46.3600   13.6800 C.3   340  AGS340      0.5254
     30  N3        10.8330   45.2860   12.8350 N.2   340  AGS340     -0.0055
     31  C4         9.9020   44.3500   12.7990 C.2   340  AGS340      0.3518
@<TRIPOS>BOND
     1     6     5    2
     2     2     1    1
     3     3     1    2
     4     5    12    1
     5     5     7    1
     6     5     8    1
     7    12     9    1
     8    14    15    1
     9    14    13    1
    10     1     8    1
    11     1     4    1
    12    15    16    1
    13    15    17    1
    14    16    21    1
    15    13     9    1
    16     9    11    2
    17     9    10    1
    18    20    19    1
    19    18    17    1
    20    21    19    1
    21    21    22    1
    22    17    19    1
    23    22    23    1
    24    22    31    1
    25    23    24    1
    26    31    30    2
    27    31    25    1
    28    30    29    1
    29    24    25    2
    30    25    26    1
    31    29    28    1
    32    26    28    2
    33    26    27    1
