@<TRIPOS>MOLECULE
3orv_HEC_A_1.pdb
 43 50 0 0 0
SMALL
GASTEIGER

@<TRIPOS>ATOM
      1 FE         25.5610   29.2090  -84.3450 Fe    500  HEC500      0.0000
      2  CHA       25.4610   30.0210  -81.0480 C.2   500  HEC500      0.0000
      3  CHB       22.8300   31.3410  -85.0110 C.2   500  HEC500      0.0000
      4  CHC       26.3670   29.2770  -87.6390 C.2   500  HEC500      0.0000
      5  CHD       28.1000   26.8660  -83.7120 C.2   500  HEC500      0.0000
      6  NA        24.3120   30.4350  -83.2560 N.ar  500  HEC500      0.0000
      7  C1A       24.4120   30.6370  -81.9180 C.ar  500  HEC500      0.0000
      8  C2A       23.3060   31.4580  -81.3820 C.ar  500  HEC500      0.0000
      9  C3A       22.5610   31.8560  -82.4890 C.ar  500  HEC500      0.0000
     10  C4A       23.2550   31.1920  -83.6310 C.ar  500  HEC500      0.0000
     11  CMA       21.2780   32.6770  -82.5850 C.3   500  HEC500      0.0000
     12  CAA       23.0910   31.7960  -79.9060 C.3   500  HEC500      0.0000
     13  CBA       22.0220   30.8990  -79.2950 C.3   500  HEC500      0.0000
     14  CGA       22.0010   31.0330  -77.7500 C.2   500  HEC500      0.0000
     15  O1A       21.0570   30.4950  -77.1430 O.co2 500  HEC500      0.0000
     16  O2A       22.8520   31.6980  -77.1190 O.co2 500  HEC500      0.0000
     17  NB        24.7910   30.2060  -86.0160 N.2   500  HEC500      0.0000
     18  C1B       23.7080   30.9850  -86.1420 C.2   500  HEC500      0.0000
     19  C2B       23.4010   31.4040  -87.5560 C.2   500  HEC500      0.0000
     20  C3B       24.4060   30.8210  -88.3200 C.2   500  HEC500      0.0000
     21  C4B       25.1860   30.0480  -87.3090 C.2   500  HEC500      0.0000
     22  CMB       22.2300   32.2940  -87.9460 C.3   500  HEC500      0.0000
     23  CAB       24.6910   30.9390  -89.8380 C.3   500  HEC500      0.0000
     24  CBB       25.1220   32.3900  -90.0610 C.3   500  HEC500      0.0000
     25  NC        27.0320   28.2470  -85.4740 N.ar  500  HEC500      0.0000
     26  C1C       27.1370   28.3130  -86.8120 C.ar  500  HEC500      0.0000
     27  C2C       28.0770   27.3020  -87.3670 C.ar  500  HEC500      0.0000
     28  C3C       28.5710   26.6170  -86.2510 C.ar  500  HEC500      0.0000
     29  C4C       27.8490   27.2400  -85.1270 C.ar  500  HEC500      0.0000
     30  CMC       28.3950   27.0440  -88.8400 C.3   500  HEC500      0.0000
     31  CAC       29.5410   25.4190  -86.1300 C.3   500  HEC500      0.0000
     32  CBC       30.9430   25.6430  -86.6740 C.3   500  HEC500      0.0000
     33  ND        26.5730   28.5330  -82.6490 N.2   500  HEC500      0.0000
     34  C1D       27.6510   27.7190  -82.5790 C.2   500  HEC500      0.0000
     35  C2D       28.2950   27.6940  -81.2600 C.2   500  HEC500      0.0000
     36  C3D       27.5800   28.5960  -80.4930 C.2   500  HEC500      0.0000
     37  C4D       26.5240   29.0850  -81.4110 C.2   500  HEC500      0.0000
     38  CMD       29.5200   26.8880  -80.8570 C.3   500  HEC500      0.0000
     39  CAD       27.8730   28.9790  -79.0620 C.3   500  HEC500      0.0000
     40  CBD       29.0610   29.9190  -79.1230 C.3   500  HEC500      0.0000
     41  CGD       29.2820   30.7220  -77.8450 C.2   500  HEC500      0.0000
     42  O1D       30.3140   31.3980  -77.7470 O.co2 500  HEC500      0.0000
     43  O2D       28.4230   30.7910  -76.9310 O.co2 500  HEC500      0.0000
@<TRIPOS>BOND
     1    24    23    1
     2    23    20    1
     3    30    27    1
     4    20    19    2
     5    20    21    1
     6    22    19    1
     7     4    21    2
     8     4    26    1
     9    19    18    1
    10    27    26   ar
    11    27    28   ar
    12    21    17    1
    13    26    25   ar
    14    32    31    1
    15    28    31    1
    16    28    29   ar
    17    18    17    2
    18    18     3    1
    19    17     1    1
    20    25    29   ar
    21    25     1    1
    22    29     5    1
    23     3    10    2
    24     1     6    1
    25     1    33    1
    26     5    34    2
    27    10     6   ar
    28    10     9   ar
    29     6     7   ar
    30    33    34    1
    31    33    37    2
    32    11     9    1
    33    34    35    1
    34     9     8   ar
    35     7     8   ar
    36     7     2    2
    37    37     2    1
    38    37    36    1
    39     8    12    1
    40    35    38    1
    41    35    36    2
    42    36    39    1
    43    12    13    1
    44    13    14    1
    45    40    39    1
    46    40    41    1
    47    41    42   ar
    48    41    43   ar
    49    14    15   ar
    50    14    16   ar
