@<TRIPOS>MOLECULE
3orx_1F8_A_1.pdb
 16 17 0 0 0
SMALL
GASTEIGER

@<TRIPOS>ATOM
      1  SD         3.8650   14.8750   76.7970 S.3     1  1F81       -0.0802
      2  C15        5.4940   15.5370   76.9400 C.3     1  1F81        0.0921
      3  C16        5.4190   17.0470   76.7650 C.3     1  1F81        0.1280
      4  N17        5.7200   17.2500   75.3650 N.am    1  1F81       -0.2006
      5  C18        5.5950   18.3530   74.6350 C.2     1  1F81        0.2675
      6  O19        5.1680   19.4020   75.0860 O.2     1  1F81       -0.2683
      7  C20        6.0100   18.2420   73.2100 C.ar    1  1F81        0.0882
      8  C21        5.2720   18.8360   72.0650 C.ar    1  1F81        0.0416
      9  C22        6.0450   18.4610   70.9810 C.ar    1  1F81        0.1450
     10  O23        7.1290   17.7440   71.2900 O.2     1  1F81       -0.4576
     11  C24        7.2020   17.5560   72.6460 C.ar    1  1F81        0.1276
     12  C25        5.6770   18.8320   69.6940 C.ar    1  1F81        0.0375
     13  C26        4.5180   19.5850   69.5230 C.ar    1  1F81        0.0031
     14  C27        3.7500   19.9550   70.6270 C.ar    1  1F81        0.0002
     15  C28        4.1200   19.5860   71.9190 C.ar    1  1F81        0.0033
     16  C29        8.3580   16.7610   73.1970 C.3     1  1F81        0.0726
@<TRIPOS>BOND
     1    13    12   ar
     2    13    14   ar
     3    12     9   ar
     4    14    15   ar
     5     9    10   ar
     6     9     8   ar
     7    10    11   ar
     8    15     8   ar
     9     8     7   ar
    10    11    16    1
    11    11     7   ar
    12     7     5    1
    13     5     6    2
    14     5     4   am
    15     4     3    1
    16     3     2    1
    17     1     2    1
