@<TRIPOS>MOLECULE
3orz_BI4_A_1.pdb
 33 38 0 0 0
SMALL
GASTEIGER

@<TRIPOS>ATOM
      1  O32       17.8320  -25.6650    1.6170 O.2   360  BI4360     -0.2086
      2  C18       17.0930  -26.5170    2.2130 C.1   360  BI4360      0.2158
      3  C17       16.0730  -27.3260    1.5070 C.2   360  BI4360      0.1089
      4  C16       15.8720  -27.3320    0.0260 C.2   360  BI4360      0.0329
      5  C15       14.6970  -27.5500   -0.6640 C.2   360  BI4360      0.0161
      6  C14       13.3850  -27.7650   -0.2490 C.2   360  BI4360      0.0009
      7  C13       12.4170  -27.9380   -1.2350 C.2   360  BI4360     -0.0041
      8  C12       12.7700  -27.8850   -2.5850 C.2   360  BI4360     -0.0198
      9  C10       15.0720  -27.4920   -2.0060 C.2   360  BI4360      0.0634
     10  C11       14.0910  -27.6630   -2.9820 C.3   360  BI4360      0.0717
     11  N9        16.4170  -27.2510   -2.0810 N.2   360  BI4360     -0.2478
     12  C8        16.9510  -27.1570   -0.8270 C.2   360  BI4360      0.0992
     13  N19       17.1180  -26.7090    3.5580 N.2   360  BI4360     -0.2576
     14  C20       16.1850  -27.6820    3.7990 C.1   360  BI4360      0.2158
     15  O33       15.9510  -28.1310    4.9750 O.2   360  BI4360     -0.2086
     16  C21       15.4460  -28.1210    2.5830 C.2   360  BI4360      0.1088
     17  C22       14.4210  -29.2140    2.5280 C.ar  360  BI4360      0.0313
     18  C7        14.3020  -30.0590    1.4510 C.ar  360  BI4360      0.0766
     19  C23       13.5730  -29.5950    3.5410 C.ar  360  BI4360      0.0180
     20  C5        12.8860  -30.6890    3.0320 C.ar  360  BI4360      0.0599
     21  C4        11.9140  -31.2980    3.8230 C.ar  360  BI4360      0.0172
     22  C3        11.6520  -30.8220    5.1010 C.ar  360  BI4360      0.0015
     23  C2        12.3540  -29.7170    5.5890 C.ar  360  BI4360      0.0001
     24  C1        13.3240  -29.0940    4.8070 C.ar  360  BI4360      0.0015
     25  N6        13.3340  -30.9360    1.7810 N.ar  360  BI4360     -0.3260
     26  C24       12.8640  -32.0150    0.8950 C.3   360  BI4360      0.1075
     27  C25       11.3350  -32.1000    0.8550 C.3   360  BI4360      0.0404
     28  C26       10.6820  -30.9440    0.1090 C.3   360  BI4360      0.0595
     29  C27       10.5060  -29.7410    1.0340 C.3   360  BI4360      0.0175
     30  C28        9.0460  -29.3230    0.9380 C.3   360  BI4360      0.0187
     31  C29        8.2700  -30.5360    0.4390 C.3   360  BI4360      0.0721
     32  N30        9.3020  -31.3750   -0.1590 N.3   360  BI4360     -0.2727
     33  C31        8.9810  -32.5670   -0.9390 C.3   360  BI4360      0.0896
@<TRIPOS>BOND
     1    10     8    1
     2    10     9    1
     3     8     7    2
     4    11     9    2
     5    11    12    1
     6     9     5    1
     7     7     6    1
     8    33    32    1
     9    12     4    2
    10     5     6    2
    11     5     4    1
    12    32    28    1
    13    32    31    1
    14     4     3    1
    15    28    27    1
    16    28    29    1
    17    31    30    1
    18    27    26    1
    19    26    25    1
    20    30    29    1
    21    18    25   ar
    22    18    17   ar
    23     3     2    1
    24     3    16    2
    25     1     2    2
    26    25    20   ar
    27     2    13    2
    28    17    16    1
    29    17    19   ar
    30    16    14    1
    31    20    19   ar
    32    20    21   ar
    33    19    24   ar
    34    13    14    2
    35    14    15    2
    36    21    22   ar
    37    24    23   ar
    38    22    23   ar
