@<TRIPOS>MOLECULE
3orz_2A2_A_1.pdb
 19 20 0 0 0
SMALL
GASTEIGER

@<TRIPOS>ATOM
      1  C1         8.2640  -21.6650   18.4740 C.3     1  2A21        0.0692
      2  SD         8.4240  -20.8630   16.9070 S.3     1  2A21       -0.0821
      3  C15        7.3280  -22.8570   18.3110 C.3     1  2A21        0.0221
      4  C16        6.9090  -23.4110   19.6610 C.3     1  2A21        0.0862
      5  C17        6.1510  -24.7050   19.4710 C.2     1  2A21        0.2258
      6  O18        6.7440  -25.7700   19.5520 O.2     1  2A21       -0.2749
      7  N19        4.8440  -24.6360   19.2060 N.am    1  2A21       -0.2760
      8  C20        4.1200  -23.3670   19.0960 C.3     1  2A21        0.1148
      9  C21        2.6320  -23.5890   18.7970 C.3     1  2A21        0.1123
     10  N22        2.4650  -24.6310   17.7880 N.pl3   1  2A21       -0.3040
     11  C23        3.4220  -25.7170   17.6640 C.3     1  2A21        0.1123
     12  C24        4.0840  -25.8600   19.0220 C.3     1  2A21        0.1148
     13  C25        1.3920  -24.5940   16.8700 C.ar    1  2A21        0.0488
     14  C26        0.3490  -23.6760   16.9770 C.ar    1  2A21        0.0146
     15  C27       -0.6800  -23.6790   16.0310 C.ar    1  2A21        0.0021
     16  C28       -0.6820  -24.5940   14.9780 C.ar    1  2A21        0.0115
     17  C29        0.3630  -25.5050   14.8690 C.ar    1  2A21        0.0589
     18  C30        1.3900  -25.5000   15.8130 C.ar    1  2A21        0.0259
     19 CL99        0.4140  -26.7010   13.5230 Cl      1  2A21       -0.0822
@<TRIPOS>BOND
     1    19    17    1
     2    17    16   ar
     3    17    18   ar
     4    16    15   ar
     5    18    13   ar
     6    15    14   ar
     7    13    14   ar
     8    13    10    1
     9     2     1    1
    10    11    10    1
    11    11    12    1
    12    10     9    1
    13     3     1    1
    14     3     4    1
    15     9     8    1
    16    12     7    1
    17     8     7    1
    18     7     5   am
    19     5     6    2
    20     5     4    1
