@<TRIPOS>MOLECULE
3os3_3OS_A_1.pdb
 31 32 0 0 0
SMALL
GASTEIGER

@<TRIPOS>ATOM
      1  C4        10.3520   39.9670   -4.0330 C.ar  400  3OS400      0.0745
      2  C5        10.8010   39.1920   -2.9090 C.ar  400  3OS400      0.0055
      3  C6        10.0600   38.0610   -2.4880 C.ar  400  3OS400      0.0278
      4  C7         8.8900   37.7030   -3.1790 C.ar  400  3OS400      0.1661
      5  C13        5.0930   42.2850   -7.0380 C.ar  400  3OS400      0.0449
      6  C15        2.8890   43.4460   -7.7720 C.1   400  3OS400     -0.0092
      7  C17        7.4540   41.8220   -7.3590 C.ar  400  3OS400      0.1558
      8  C22       12.4970   38.3300    1.0000 C.3   400  3OS400      0.2037
      9  C1         9.1590   39.6080   -4.7480 C.ar  400  3OS400      0.1046
     10  N2         8.7350   40.3840   -5.8700 N.pl3 400  3OS400     -0.2077
     11  C3         7.4930   40.9880   -6.2110 C.ar  400  3OS400      0.0980
     12  F8         8.1760   36.6490   -2.8080 F     400  3OS400     -0.2020
     13  C9         8.4520   38.4590   -4.2820 C.ar  400  3OS400      0.1823
     14  F10        7.3500   38.0690   -4.9010 F     400  3OS400     -0.2004
     15  C11        6.2770   40.8330   -5.4800 C.ar  400  3OS400      0.0194
     16  C12        5.0890   41.4690   -5.8910 C.ar  400  3OS400      0.0097
     17  C14        3.9030   42.9180   -7.4400 C.1   400  3OS400     -0.0511
     18  C16        6.2710   42.4630   -7.7850 C.ar  400  3OS400      0.0392
     19  F18        8.5650   41.9960   -8.0690 F     400  3OS400     -0.2028
     20  C19       10.4980   37.2420   -1.3530 C.3   400  3OS400      0.1500
     21  N20       10.5830   37.6750   -0.1340 N.4   400  3OS400     -0.0786
     22  O21       11.7960   37.1980    0.4310 O.3   400  3OS400     -0.2631
     23  C23       11.7930   38.7880    2.2640 C.3   400  3OS400      0.2163
     24  O24       12.3240   38.0480    3.3640 O.3   400  3OS400     -0.2175
     25  C25       11.1690   41.1330   -4.4430 C.2   400  3OS400      0.2914
     26  O26       11.0330   41.5480   -5.5920 O.2   400  3OS400     -0.2661
     27  N27       12.0730   41.6930   -3.5450 N.am  400  3OS400     -0.0577
     28  O28       13.0530   42.6130   -4.0400 O.3   400  3OS400     -0.2409
     29  C29       14.2940   41.9210   -4.0560 C.3   400  3OS400      0.2088
     30  C30       14.6330   41.6270   -5.4900 C.3   400  3OS400      0.2167
     31  O31       15.6180   42.5490   -5.8890 O.3   400  3OS400     -0.2175
@<TRIPOS>BOND
     1    19     7    1
     2    18     7   ar
     3    18     5   ar
     4     6    17    3
     5    17     5    1
     6     7    11   ar
     7     5    16   ar
     8    11    10    1
     9    11    15   ar
    10    16    15   ar
    11    31    30    1
    12    10     9    1
    13    26    25    2
    14    30    29    1
    15    14    13    1
    16     9    13   ar
    17     9     1   ar
    18    25     1    1
    19    25    27   am
    20    13     4   ar
    21    29    28    1
    22    28    27    1
    23     1     2   ar
    24     4    12    1
    25     4     3   ar
    26     2     3   ar
    27     3    20    1
    28    20    21    1
    29    21    22    1
    30    22     8    1
    31     8    23    1
    32    23    24    1
