@<TRIPOS>MOLECULE
3os3_ATP_A_1.pdb
 31 33 0 0 0
SMALL
GASTEIGER

@<TRIPOS>ATOM
      1  PG        16.3700   45.8780   -2.0050 P.3     1  ATP1        0.5373
      2  O1G       17.2260   45.8170   -0.7760 O.3     1  ATP1       -0.1143
      3  O2G       16.9020   44.9460   -3.1300 O.2     1  ATP1       -0.2221
      4  O3G       14.9230   45.5100   -1.6100 O.3     1  ATP1       -0.1143
      5  PB        15.1820   48.0160   -3.3990 P.3     1  ATP1        0.2277
      6  O1B       15.5340   49.4470   -3.4820 O.2     1  ATP1       -0.5168
      7  O2B       13.7570   47.7610   -2.9640 O.3     1  ATP1       -0.4368
      8  O3B       16.2750   47.3990   -2.4770 O.3     1  ATP1       -0.2258
      9  PA        14.4930   46.8090   -5.9170 P.3     1  ATP1        0.2189
     10  O1A       15.3000   45.8470   -6.7040 O.2     1  ATP1       -0.5170
     11  O2A       13.2960   46.1760   -5.2210 O.3     1  ATP1       -0.4371
     12  O3A       15.4720   47.4870   -4.8640 O.3     1  ATP1       -0.2700
     13  O5'       14.0560   48.0520   -6.8270 O.3     1  ATP1       -0.3112
     14  C5'       15.0010   48.6730   -7.6750 C.3     1  ATP1        0.1813
     15  C4'       14.5560   50.0790   -8.0700 C.3     1  ATP1        0.1821
     16  O4'       13.4410   50.0700   -8.9480 O.3     1  ATP1       -0.3135
     17  C3'       14.1930   50.9610   -6.8820 C.3     1  ATP1        0.2184
     18  O3'       14.9040   52.1960   -7.0380 O.3     1  ATP1       -0.2174
     19  C2'       12.6680   51.0900   -6.9680 C.3     1  ATP1        0.2570
     20  O2'       12.0700   52.2390   -6.4660 O.3     1  ATP1       -0.2130
     21  C1'       12.4090   50.9270   -8.4420 C.3     1  ATP1        0.3186
     22  N9        11.1460   50.2680   -8.9110 N.pl3   1  ATP1       -0.1439
     23  C8        10.7210   49.0200   -8.5200 C.3     1  ATP1        0.3377
     24  N7         9.5660   48.7920   -9.1270 N.2     1  ATP1       -0.2095
     25  C5         9.1870   49.8370   -9.9210 C.2     1  ATP1        0.2526
     26  C6         8.0990   50.1830  -10.7710 C.2     1  ATP1        0.4393
     27  N6         7.0340   49.4440  -11.0280 N.pl3   1  ATP1        0.2180
     28  N1         8.1010   51.4170  -11.4250 N.2     1  ATP1        0.0021
     29  C2         9.1180   52.3160  -11.2630 C.3     1  ATP1        0.5254
     30  N3        10.1820   52.0110  -10.4430 N.2     1  ATP1       -0.0055
     31  C4        10.2090   50.7960   -9.7740 C.2     1  ATP1        0.3518
@<TRIPOS>BOND
     1    28    29    1
     2    28    26    2
     3    29    30    1
     4    27    26    1
     5    26    25    1
     6    30    31    2
     7    25    31    1
     8    25    24    2
     9    31    22    1
    10    24    23    1
    11    16    21    1
    12    16    15    1
    13    22    23    1
    14    22    21    1
    15    21    19    1
    16    15    14    1
    17    15    17    1
    18    14    13    1
    19    18    17    1
    20    19    17    1
    21    19    20    1
    22    13     9    1
    23    10     9    2
    24     9    11    1
    25     9    12    1
    26    12     5    1
    27     6     5    2
    28     5     7    1
    29     5     8    1
    30     3     1    2
    31     8     1    1
    32     1     4    1
    33     1     2    1
