@<TRIPOS>MOLECULE
3os5_SAH_A_1.pdb
 26 28 0 0 0
SMALL
GASTEIGER

@<TRIPOS>ATOM
      1  N         38.8120  -16.1140  -10.3120 N.3   1501  SAH1501    -0.1208
      2  CA        38.1870  -15.4170  -11.5140 C.3   1501  SAH1501     0.1952
      3  CB        36.7710  -15.7410  -11.8800 C.3   1501  SAH1501     0.0422
      4  CG        36.4490  -17.1230  -12.4120 C.3   1501  SAH1501     0.0597
      5  SD        37.1630  -17.1010  -14.1210 S.3   1501  SAH1501    -0.1375
      6  C         38.4070  -13.8710  -11.3430 C.2   1501  SAH1501     0.3819
      7  O         39.0200  -13.4210  -10.3620 O.co2 1501  SAH1501    -0.2441
      8  OXT       37.9720  -13.1720  -12.3290 O.co2 1501  SAH1501    -0.2441
      9  C5'       38.2200  -18.4000  -13.6960 C.3   1501  SAH1501     0.0899
     10  C4'       39.7390  -17.9890  -13.5120 C.3   1501  SAH1501     0.1630
     11  O4'       39.5880  -18.6330  -12.2720 O.3   1501  SAH1501    -0.3153
     12  C3'       40.6910  -19.0010  -14.0790 C.3   1501  SAH1501     0.2168
     13  O3'       41.3700  -18.5710  -15.2490 O.3   1501  SAH1501    -0.2175
     14  C2'       41.6580  -19.3280  -12.8730 C.3   1501  SAH1501     0.2569
     15  O2'       42.6920  -18.3530  -12.8250 O.3   1501  SAH1501    -0.2130
     16  C1'       40.7560  -19.2320  -11.6350 C.3   1501  SAH1501     0.3185
     17  N9        40.2440  -20.2730  -10.9780 N.pl3 1501  SAH1501    -0.1439
     18  C8        38.9750  -20.8460  -10.9450 C.3   1501  SAH1501     0.3377
     19  N7        38.8020  -21.8790  -10.1920 N.2   1501  SAH1501    -0.2095
     20  C5        40.0960  -22.0540   -9.6390 C.2   1501  SAH1501     0.2526
     21  C6        40.5990  -23.0290   -8.7080 C.2   1501  SAH1501     0.4393
     22  N6        39.8210  -23.9900   -8.1870 N.pl3 1501  SAH1501     0.2180
     23  N1        41.9350  -22.9270   -8.3900 N.2   1501  SAH1501     0.0021
     24  C2        42.7580  -21.9560   -8.8830 C.3   1501  SAH1501     0.5254
     25  N3        42.3020  -21.0040   -9.7660 N.2   1501  SAH1501    -0.0055
     26  C4        40.9810  -21.1040  -10.1010 C.2   1501  SAH1501     0.3518
@<TRIPOS>BOND
     1    13    12    1
     2     5     9    1
     3     5     4    1
     4    12    10    1
     5    12    14    1
     6     9    10    1
     7    10    11    1
     8    14    15    1
     9    14    16    1
    10     4     3    1
    11     8     6   ar
    12    11    16    1
    13     3     2    1
    14    16    17    1
    15     2     6    1
    16     2     1    1
    17     6     7   ar
    18    17    18    1
    19    17    26    1
    20    18    19    1
    21    19    20    2
    22    26    25    2
    23    26    20    1
    24    25    24    1
    25    20    21    1
    26    24    23    1
    27    21    23    2
    28    21    22    1
