@<TRIPOS>MOLECULE
3os8_KN0_A_1.pdb
 28 31 0 0 0
SMALL
GASTEIGER

@<TRIPOS>ATOM
      1  CAA       20.2910   15.6090  -28.5700 C.ar    1  KN01        0.0054
      2  CAB       19.1170   14.8670  -28.6020 C.ar    1  KN01        0.0001
      3  CAC       18.2400   14.9130  -27.5250 C.ar    1  KN01        0.0030
      4  CAD       18.5370   15.6990  -26.4210 C.ar    1  KN01        0.0367
      5  CAE       19.7120   16.4450  -26.3850 C.ar    1  KN01        0.0836
      6  CAF       20.6030   16.3960  -27.4640 C.ar    1  KN01        0.0887
      7  CAG       17.9210   15.9290  -25.1940 C.ar    1  KN01        0.1054
      8  NAH       18.6660   16.8270  -24.5520 N.ar    1  KN01       -0.1689
      9  NAI       19.6870   17.0760  -25.2040 N.ar    1  KN01       -0.2464
     10  CAJ       16.6660   15.4450  -24.8210 C.ar    1  KN01        0.0585
     11  CAK       20.7340   17.9770  -24.6950 C.3     1  KN01        0.1538
     12  CAL       16.0700   14.3720  -25.4800 C.ar    1  KN01        0.0080
     13  CAM       14.8220   13.9050  -25.0650 C.ar    1  KN01        0.0423
     14  CAN       14.1700   14.4970  -23.9860 C.ar    1  KN01        0.1989
     15  CAO       14.7720   15.5520  -23.3200 C.ar    1  KN01        0.0841
     16  CAP       16.0220   16.0030  -23.7160 C.ar    1  KN01        0.2003
     17  OAQ       16.5530   17.0490  -23.0420 O.3     1  KN01       -0.2864
     18  OAR       12.9500   14.0630  -23.5550 O.3     1  KN01       -0.2865
     19  CAS       21.7390   17.0890  -23.9350 C.ar    1  KN01        0.0021
     20  CAT       22.9710   17.5860  -23.5230 C.ar    1  KN01       -0.0023
     21  CAU       23.8670   16.7710  -22.8430 C.ar    1  KN01       -0.0003
     22  CAV       23.5380   15.4460  -22.5770 C.ar    1  KN01       -0.0000
     23  CAW       22.3090   14.9440  -22.9900 C.ar    1  KN01       -0.0003
     24  CAX       21.4150   15.7610  -23.6710 C.ar    1  KN01       -0.0023
     25  CAY       21.9110   17.2110  -27.5020 C.3     1  KN01        0.4200
     26  FAZ       22.5810   16.9520  -28.6240 F       1  KN01       -0.1658
     27  FBA       22.6940   16.9860  -26.4570 F       1  KN01       -0.1658
     28  FBB       21.5730   18.4920  -27.5150 F       1  KN01       -0.1658
@<TRIPOS>BOND
     1    26    25    1
     2     2     1   ar
     3     2     3   ar
     4     1     6   ar
     5     3     4   ar
     6    28    25    1
     7    25     6    1
     8    25    27    1
     9     6     5   ar
    10     4     5   ar
    11     4     7   ar
    12     5     9   ar
    13    12    13   ar
    14    12    10   ar
    15     9    11    1
    16     9     8   ar
    17     7    10    1
    18     7     8   ar
    19    13    14   ar
    20    10    16   ar
    21    11    19    1
    22    14    18    1
    23    14    15   ar
    24    19    24   ar
    25    19    20   ar
    26    16    15   ar
    27    16    17    1
    28    24    23   ar
    29    20    21   ar
    30    23    22   ar
    31    21    22   ar
