@<TRIPOS>MOLECULE
3os9_KN1_A_1.pdb
 24 26 0 0 0
SMALL
GASTEIGER

@<TRIPOS>ATOM
      1  CAA      -20.6500  -30.5260  -66.6470 C.2     1  KN11       -0.0029
      2  CAG      -20.7580  -31.7080  -65.9500 C.2     1  KN11        0.0000
      3  CAN      -20.7300  -31.6990  -64.5720 C.3     1  KN11        0.1535
      4  NAW      -19.3890  -31.9940  -64.0850 N.ar    1  KN11       -0.2465
      5  NAO      -18.3600  -31.7900  -64.7260 N.ar    1  KN11       -0.1689
      6  CAV      -19.1730  -32.5050  -62.8950 C.ar    1  KN11        0.0836
      7  CAT      -19.9950  -32.8950  -61.8310 C.ar    1  KN11        0.0887
      8  CAX      -21.5310  -32.7980  -61.7810 C.3     1  KN11        0.4200
      9  FAE      -22.1290  -33.7500  -62.3890 F       1  KN11       -0.1658
     10  FAF      -21.9060  -32.8770  -60.5540 F       1  KN11       -0.1658
     11  FAD      -22.0080  -31.7130  -62.2690 F       1  KN11       -0.1658
     12  CAJ      -19.3980  -33.3930  -60.6950 C.ar    1  KN11        0.0054
     13  CAH      -18.0290  -33.5140  -60.6250 C.ar    1  KN11        0.0001
     14  CAL      -17.2290  -33.1290  -61.6830 C.ar    1  KN11        0.0030
     15  CAU      -17.8060  -32.6170  -62.8210 C.ar    1  KN11        0.0367
     16  CAS      -17.3050  -32.1280  -64.0130 C.ar    1  KN11        0.1054
     17  CAR      -15.9650  -32.1230  -64.4000 C.ar    1  KN11        0.0585
     18  CAK      -15.0960  -33.0140  -63.8210 C.ar    1  KN11        0.0080
     19  CAI      -13.7760  -33.0830  -64.2060 C.ar    1  KN11        0.0423
     20  CAP      -13.3220  -32.2780  -65.2080 C.ar    1  KN11        0.1989
     21  OAB      -12.0490  -32.3650  -65.5600 O.3     1  KN11       -0.2865
     22  CAM      -14.1780  -31.3960  -65.8200 C.ar    1  KN11        0.0841
     23  CAQ      -15.4910  -31.3330  -65.4180 C.ar    1  KN11        0.2003
     24  OAC      -16.3340  -30.4990  -66.0070 O.3     1  KN11       -0.2864
@<TRIPOS>BOND
     1     1     2    2
     2    24    23    1
     3     2     3    1
     4    22    23   ar
     5    22    20   ar
     6    21    20    1
     7    23    17   ar
     8    20    19   ar
     9     5     4   ar
    10     5    16   ar
    11     3     4    1
    12    17    16    1
    13    17    18   ar
    14    19    18   ar
    15     4     6   ar
    16    16    15   ar
    17     6    15   ar
    18     6     7   ar
    19    15    14   ar
    20     9     8    1
    21    11     8    1
    22     7     8    1
    23     7    12   ar
    24     8    10    1
    25    14    13   ar
    26    12    13   ar
