@<TRIPOS>MOLECULE
3osa_KN3_A_1.pdb
 26 28 0 0 0
SMALL
GASTEIGER

@<TRIPOS>ATOM
      1  CAA      -19.0020  -31.4850  -61.1490 C.ar    1  KN31        0.0054
      2  CAB      -17.7940  -32.1550  -61.0580 C.ar    1  KN31        0.0001
      3  CAC      -16.9360  -32.1940  -62.1440 C.ar    1  KN31        0.0030
      4  CAD      -17.2960  -31.5580  -63.3270 C.ar    1  KN31        0.0367
      5  CAE      -18.5110  -30.8920  -63.4190 C.ar    1  KN31        0.0836
      6  CAF      -19.3750  -30.8580  -62.3200 C.ar    1  KN31        0.0887
      7  CAG      -16.7370  -31.4450  -64.5890 C.ar    1  KN31        0.1054
      8  NAH      -17.5310  -30.6710  -65.3230 N.ar    1  KN31       -0.1689
      9  NAI      -18.5380  -30.3780  -64.6690 N.ar    1  KN31       -0.2465
     10  CAJ      -15.4760  -31.8950  -64.9470 C.ar    1  KN31        0.0585
     11  CAK      -19.6450  -29.6450  -65.3050 C.3     1  KN31        0.1529
     12  CAL      -20.2760  -30.7110  -65.9270 C.2     1  KN31       -0.0084
     13  CAM      -21.5240  -30.9170  -66.5260 C.2     1  KN31       -0.0459
     14  CAN      -21.9060  -32.2280  -67.1180 C.3     1  KN31        0.0261
     15  CAO      -22.5740  -29.7460  -66.5680 C.3     1  KN31        0.0261
     16  CAP      -14.8350  -32.9800  -64.3460 C.ar    1  KN31        0.0080
     17  CAQ      -13.5900  -33.4020  -64.8380 C.ar    1  KN31        0.0423
     18  CAR      -13.0220  -32.7470  -65.9320 C.ar    1  KN31        0.1989
     19  CAS      -13.6720  -31.6950  -66.5330 C.ar    1  KN31        0.0841
     20  CAT      -14.9070  -31.2960  -66.0630 C.ar    1  KN31        0.2003
     21  OAU      -15.5030  -30.2360  -66.6760 O.3     1  KN31       -0.2864
     22  OAV      -11.8190  -33.1030  -66.4570 O.3     1  KN31       -0.2865
     23  CAW      -20.6830  -30.0950  -62.3340 C.3     1  KN31        0.4200
     24  FAX      -21.4140  -30.2980  -63.4180 F       1  KN31       -0.1658
     25  FAY      -20.2370  -28.8460  -62.3020 F       1  KN31       -0.1658
     26  FAZ      -21.3820  -30.2650  -61.2280 F       1  KN31       -0.1658
@<TRIPOS>BOND
     1    14    13    1
     2    21    20    1
     3    15    13    1
     4    19    20   ar
     5    19    18   ar
     6    13    12    2
     7    22    18    1
     8    20    10   ar
     9    18    17   ar
    10    12    11    1
    11     8     9   ar
    12     8     7   ar
    13    11     9    1
    14    10     7    1
    15    10    16   ar
    16    17    16   ar
    17     9     5   ar
    18     7     4   ar
    19     5     4   ar
    20     5     6   ar
    21    24    23    1
    22     4     3   ar
    23    23     6    1
    24    23    25    1
    25    23    26    1
    26     6     1   ar
    27     3     2   ar
    28     1     2   ar
