@<TRIPOS>MOLECULE
3osc_PRP_A_1.pdb
 22 22 0 0 0
SMALL
GASTEIGER

@<TRIPOS>ATOM
      1  C1        48.5860  -10.5200   25.1210 C.3   211  PRP211      0.2742
      2  C2        48.1820  -10.1600   23.7050 C.3   211  PRP211      0.2408
      3  C3        48.0840  -11.4810   22.9750 C.3   211  PRP211      0.2167
      4  C4        48.4330  -12.5700   23.9840 C.3   211  PRP211      0.1808
      5  C5        49.3890  -13.6000   23.3800 C.3   211  PRP211      0.1859
      6  O1        47.4210  -10.3120   25.9230 O.3   211  PRP211     -0.2857
      7  O2        46.8920   -9.5230   23.7020 O.3   211  PRP211     -0.2149
      8  O3        46.7470  -11.6540   22.4850 O.3   211  PRP211     -0.2175
      9  O4        48.9930  -11.8980   25.1150 O.3   211  PRP211     -0.3255
     10  O5        49.6310  -14.6910   24.2660 O.3   211  PRP211     -0.2675
     11  P         49.1080  -16.1790   23.9390 P.3   211  PRP211      0.5327
     12  O1P       47.6890  -16.1940   24.4660 O.3   211  PRP211     -0.1145
     13  O2P       49.1980  -16.3210   22.4420 O.2   211  PRP211     -0.2224
     14  O3P       50.0830  -17.0390   24.7010 O.3   211  PRP211     -0.1145
     15  PA        47.4280  -10.3470   27.5280 P.3   211  PRP211      0.2249
     16  O1A       46.7550  -11.6330   27.9360 O.2   211  PRP211     -0.5169
     17  O2A       48.8220  -10.0410   28.0190 O.3   211  PRP211     -0.4370
     18  O3A       46.4490   -9.1350   27.9580 O.3   211  PRP211     -0.2260
     19  PB        46.3440   -7.6760   27.2630 P.3   211  PRP211      0.5373
     20  O1B       46.2430   -7.9070   25.7710 O.2   211  PRP211     -0.2221
     21  O2B       47.5860   -6.9350   27.6920 O.3   211  PRP211     -0.1143
     22  O3B       45.0640   -7.1650   27.8820 O.3   211  PRP211     -0.1143
@<TRIPOS>BOND
     1    13    11    2
     2     8     3    1
     3     3     2    1
     4     3     4    1
     5     5     4    1
     6     5    10    1
     7     7     2    1
     8     2     1    1
     9    11    10    1
    10    11    12    1
    11    11    14    1
    12     4     9    1
    13     9     1    1
    14     1     6    1
    15    20    19    2
    16     6    15    1
    17    19    21    1
    18    19    22    1
    19    19    18    1
    20    15    16    2
    21    15    18    1
    22    15    17    1
