@<TRIPOS>MOLECULE
3osh_OIN_A_1.pdb
 21 23 0 0 0
SMALL
GASTEIGER

@<TRIPOS>ATOM
      1  C10      -12.6340   12.6490    8.5030 C.3   5811  OIN5811     0.0896
      2  N        -12.9230   12.2150    7.1310 N.3   5811  OIN5811    -0.2738
      3  C11      -13.7340   13.0940    6.3430 C.3   5811  OIN5811     0.0611
      4  C17      -13.0520   14.4270    6.1530 C.3   5811  OIN5811     0.0175
      5  C16      -11.6080   13.9360    6.1410 C.3   5811  OIN5811     0.0175
      6  C15      -11.7170   12.4800    6.3700 C.3   5811  OIN5811     0.0611
      7  C14      -11.7980   11.5580    5.1610 C.3   5811  OIN5811     0.0596
      8  C13      -13.0460   11.9560    4.3580 C.3   5811  OIN5811     0.1715
      9  C12      -14.2700   12.3850    5.1580 C.3   5811  OIN5811     0.0596
     10  O2       -13.2430   11.0100    3.3130 O.3   5811  OIN5811    -0.4519
     11  C7       -14.3390   11.2560    2.3940 C.2   5811  OIN5811     0.3231
     12  O3       -14.9800   12.2980    2.4020 O.2   5811  OIN5811    -0.2497
     13  C9       -14.6230   10.1220    1.4350 C.3   5811  OIN5811     0.1541
     14  C8       -15.7160   10.4920    0.4890 C.3   5811  OIN5811     0.1975
     15  OH       -16.9160   10.6870    1.2090 O.3   5811  OIN5811    -0.2194
     16  C6       -14.6500    8.9070    2.2740 C.ar  5811  OIN5811    -0.0094
     17  C5       -14.0610    7.7630    1.7000 C.ar  5811  OIN5811    -0.0037
     18  C4       -13.8260    6.6160    2.4880 C.ar  5811  OIN5811    -0.0003
     19  C3       -14.1680    6.6210    3.8680 C.ar  5811  OIN5811    -0.0000
     20  C2       -14.7490    7.7840    4.4520 C.ar  5811  OIN5811    -0.0003
     21  C1       -14.9820    8.9400    3.6550 C.ar  5811  OIN5811    -0.0037
@<TRIPOS>BOND
     1    14    15    1
     2    14    13    1
     3    13    16    1
     4    13    11    1
     5    17    16   ar
     6    17    18   ar
     7    16    21   ar
     8    11    12    2
     9    11    10    1
    10    18    19   ar
    11    10     8    1
    12    21    20   ar
    13    19    20   ar
    14     8     9    1
    15     8     7    1
    16     9     3    1
    17     7     6    1
    18     5     4    1
    19     5     6    1
    20     4     3    1
    21     3     2    1
    22     6     2    1
    23     2     1    1
