@<TRIPOS>MOLECULE
3osi_XDH_A_1.pdb
 21 22 0 0 0
SMALL
GASTEIGER

@<TRIPOS>ATOM
      1  CAA       15.7440   16.3290    9.8580 C.3     1  XDH1        0.0088
      2  CAB       17.2780   18.1900    9.8520 C.3     1  XDH1        0.0088
      3  OAC       16.7510   17.1800   16.0150 O.3     1  XDH1       -0.2848
      4  OAD       11.7550   21.1770    9.1510 O.3     1  XDH1       -0.2848
      5 CLAE       13.9280   17.3240   15.2000 Cl      1  XDH1       -0.0789
      6 CLAF       19.2610   17.2560   14.4820 Cl      1  XDH1       -0.0789
      7 CLAG       14.3810   22.4880    9.6950 Cl      1  XDH1       -0.0789
      8 CLAH       10.9410   18.3880    9.1160 Cl      1  XDH1       -0.0789
      9  CAI       15.1050   17.4980   12.7630 C.ar    1  XDH1        0.0107
     10  CAJ       17.4920   17.4770   12.4400 C.ar    1  XDH1        0.0107
     11  CAK       15.0890   19.9400   10.0670 C.ar    1  XDH1        0.0107
     12  CAL       13.5960   18.0690    9.8140 C.ar    1  XDH1        0.0107
     13  CAM       16.5740   17.3060   14.6560 C.ar    1  XDH1        0.2165
     14  CAN       12.7890   20.3160    9.4580 C.ar    1  XDH1        0.2165
     15  CAO       15.2900   17.3810   14.1340 C.ar    1  XDH1        0.0970
     16  CAP       17.6750   17.3530   13.8120 C.ar    1  XDH1        0.0970
     17  CAQ       14.0580   20.8020    9.7440 C.ar    1  XDH1        0.0970
     18  CAR       12.5500   18.9480    9.4900 C.ar    1  XDH1        0.0970
     19  CAS       16.2060   17.5500   11.9160 C.ar    1  XDH1       -0.0171
     20  CAT       14.8640   18.5720   10.1050 C.ar    1  XDH1       -0.0171
     21  CAU       16.0100   17.6710   10.4420 C.3     1  XDH1        0.0378
@<TRIPOS>BOND
     1     8    18    1
     2     4    14    1
     3    14    18   ar
     4    14    17   ar
     5    18    12   ar
     6     7    17    1
     7    17    11   ar
     8    12    20   ar
     9     2    21    1
    10     1    21    1
    11    11    20   ar
    12    20    21    1
    13    21    19    1
    14    19    10   ar
    15    19     9   ar
    16    10    16   ar
    17     9    15   ar
    18    16     6    1
    19    16    13   ar
    20    15    13   ar
    21    15     5    1
    22    13     3    1
