@<TRIPOS>MOLECULE
3osn_TTP_A_1.pdb
 29 31 0 0 0
SMALL
GASTEIGER

@<TRIPOS>ATOM
      1  PA         3.0180   22.3100   15.2440 P.3   421  TTP421      0.2189
      2  O1A        2.0540   23.1120   14.4490 O.2   421  TTP421     -0.5170
      3  O2A        4.2570   21.7200   14.6470 O.3   421  TTP421     -0.4371
      4  O3A        2.1400   21.0830   15.7550 O.3   421  TTP421     -0.2700
      5  PB         2.4660   19.6200   16.4980 P.3   421  TTP421      0.2277
      6  O1B        4.0330   19.3010   16.8070 O.2   421  TTP421     -0.5168
      7  O2B        1.5180   19.8190   17.6530 O.3   421  TTP421     -0.4368
      8  O3B        1.4280   18.7690   15.4490 O.3   421  TTP421     -0.2258
      9  PG         1.6320   18.1030   13.9120 P.3   421  TTP421      0.5373
     10  O1G        0.7170   18.3120   12.7500 O.2   421  TTP421     -0.2221
     11  O2G        3.0710   18.6440   13.4490 O.3   421  TTP421     -0.1143
     12  O3G        2.0690   16.5950   14.0630 O.3   421  TTP421     -0.1143
     13  O5'        3.3530   22.9860   16.6440 O.3   421  TTP421     -0.3112
     14  C5'        2.6470   22.6070   17.7750 C.3   421  TTP421      0.1816
     15  C4'        3.4610   22.8400   19.0350 C.3   421  TTP421      0.1773
     16  O4'        3.1350   24.2990   19.1870 O.3   421  TTP421     -0.3339
     17  C3'        2.3280   21.9180   19.5430 C.3   421  TTP421      0.1854
     18  O3'        2.7910   20.6010   20.2300 O.3   421  TTP421     -0.2203
     19  C2'        1.4260   22.9470   20.3370 C.3   421  TTP421      0.0874
     20  C1'        2.1700   24.3890   20.1830 C.3   421  TTP421      0.2090
     21  N1         1.4460   25.3950   19.4540 N.am  421  TTP421     -0.1794
     22  C2         0.7410   26.3280   20.2140 C.1   421  TTP421      0.2844
     23  O2         0.7950   26.2650   21.4380 O.2   421  TTP421     -0.1918
     24  N3        -0.0090   27.2940   19.6060 N.2   421  TTP421     -0.2455
     25  C4        -0.0450   27.3630   18.2140 C.1   421  TTP421      0.2134
     26  O4        -0.7160   28.2410   17.6790 O.2   421  TTP421     -0.2088
     27  C5         0.6360   26.4530   17.4280 C.2   421  TTP421      0.0891
     28  C5M        0.5060   26.5890   15.9330 C.3   421  TTP421      0.0462
     29  C6         1.3880   25.4380   18.0390 C.2   421  TTP421      0.0877
@<TRIPOS>BOND
     1    10     9    2
     2    11     9    1
     3     9    12    1
     4     9     8    1
     5     2     1    2
     6     3     1    1
     7     1     4    1
     8     1    13    1
     9     8     5    1
    10     4     5    1
    11    28    27    1
    12     5     6    2
    13     5     7    1
    14    13    14    1
    15    27    29    2
    16    27    25    1
    17    26    25    2
    18    14    15    1
    19    14    17    1
    20    29    21    1
    21    25    24    2
    22    15    16    1
    23    15    17    1
    24    16    20    1
    25    21    20    1
    26    21    22   am
    27    17    18    1
    28    17    19    1
    29    24    22    2
    30    20    19    1
    31    22    23    2
