@<TRIPOS>MOLECULE
3oso_THP_A_1.pdb
 25 26 0 0 0
SMALL
GASTEIGER

@<TRIPOS>ATOM
      1  P2        17.8490   11.3000    5.1190 P.3   150  THP150      0.5327
      2  O4P       16.6410   12.0210    5.6450 O.3   150  THP150     -0.1145
      3  O5P       17.8480    9.7670    5.3910 O.2   150  THP150     -0.2224
      4  O6P       19.1070   12.0620    5.7040 O.3   150  THP150     -0.1145
      5  P1        21.0730   14.9130    1.3540 P.3   150  THP150      0.5326
      6  O1P       22.0800   15.5350    0.4750 O.2   150  THP150     -0.2224
      7  O2P       20.4230   15.8430    2.4260 O.3   150  THP150     -0.1145
      8  O3P       21.8090   13.7240    2.1320 O.3   150  THP150     -0.1145
      9  O5'       17.8770   11.3710    3.5100 O.3   150  THP150     -0.2675
     10  C5'       17.8790   12.7100    2.9510 C.3   150  THP150      0.1857
     11  C4'       18.7770   12.6290    1.7070 C.3   150  THP150      0.1748
     12  O4'       18.3350   11.5540    0.8320 O.3   150  THP150     -0.3340
     13  C3'       18.7350   13.9500    0.8580 C.3   150  THP150      0.1600
     14  O3'       20.0340   14.2360    0.3190 O.3   150  THP150     -0.2700
     15  C2'       17.8410   13.5640   -0.3630 C.3   150  THP150      0.0847
     16  C1'       18.0610   12.0130   -0.5010 C.3   150  THP150      0.2089
     17  N1        16.7590   11.3780   -0.8310 N.am  150  THP150     -0.1794
     18  C2        16.5150   11.2040   -2.1510 C.1   150  THP150      0.2844
     19  O2        17.3750   11.5620   -2.9920 O.2   150  THP150     -0.1918
     20  N3        15.3200   10.7230   -2.5880 N.2   150  THP150     -0.2455
     21  C4        14.3380   10.3700   -1.7230 C.1   150  THP150      0.2134
     22  O4        13.2510   10.0170   -2.1640 O.2   150  THP150     -0.2088
     23  C5        14.5930   10.5520   -0.3200 C.2   150  THP150      0.0891
     24  C5M       13.5630   10.1510    0.7020 C.3   150  THP150      0.0462
     25  C6        15.7990   11.0210    0.0830 C.2   150  THP150      0.0877
@<TRIPOS>BOND
     1    19    18    2
     2    20    18    2
     3    20    21    2
     4    22    21    2
     5    18    17   am
     6    21    23    1
     7    17    16    1
     8    17    25    1
     9    16    15    1
    10    16    12    1
    11    15    13    1
    12    23    25    2
    13    23    24    1
    14    14    13    1
    15    14     5    1
    16     6     5    2
    17    12    11    1
    18    13    11    1
    19     5     8    1
    20     5     7    1
    21    11    10    1
    22    10     9    1
    23     9     1    1
    24     1     3    2
    25     1     2    1
    26     1     4    1
