@<TRIPOS>MOLECULE
3osp_DCP_A_1.pdb
 28 29 0 0 0
SMALL
GASTEIGER

@<TRIPOS>ATOM
      1  N1        27.4660  -36.3200   -5.1280 N.am  739  DCP739     -0.1802
      2  C2        28.6820  -36.9900   -5.5400 C.1   739  DCP739      0.2756
      3  N3        29.8660  -36.3480   -5.2790 N.2   739  DCP739     -0.3024
      4  C4        29.9100  -35.1130   -4.6540 C.2   739  DCP739      0.2346
      5  C5        28.7010  -34.4110   -4.2350 C.2   739  DCP739      0.0687
      6  C6        27.5160  -35.0610   -4.4990 C.2   739  DCP739      0.0835
      7  O2        28.6450  -38.1050   -6.0940 O.2   739  DCP739     -0.1925
      8  N4        31.0880  -34.5660   -4.4300 N.pl3 739  DCP739     -0.0921
      9  C1'       26.1200  -37.1510   -5.4410 C.3   739  DCP739      0.2090
     10  C2'       25.9860  -37.7350   -4.0110 C.3   739  DCP739      0.0874
     11  C3'       24.6590  -37.2810   -3.4620 C.3   739  DCP739      0.1857
     12  C4'       24.0330  -36.4780   -4.5940 C.3   739  DCP739      0.1773
     13  O4'       24.9260  -36.3970   -5.7260 O.3   739  DCP739     -0.3339
     14  O3'       23.7550  -38.2910   -2.9990 O.3   739  DCP739     -0.2203
     15  C5'       23.4580  -35.2420   -4.0260 C.3   739  DCP739      0.1812
     16  O5'       24.3410  -34.0380   -3.6330 O.3   739  DCP739     -0.3112
     17  PA        24.1490  -33.4230   -2.4020 P.3   739  DCP739      0.2189
     18  O1A       22.8410  -32.9920   -2.2420 O.2   739  DCP739     -0.5170
     19  O2A       25.0590  -32.1860   -2.1000 O.3   739  DCP739     -0.4371
     20  O3A       24.5970  -34.7190   -1.4130 O.3   739  DCP739     -0.2700
     21  PB        23.6480  -35.4920   -0.3150 P.3   739  DCP739      0.2277
     22  O1B       24.2990  -36.8960   -0.1890 O.3   739  DCP739     -0.4368
     23  O2B       22.2000  -35.4470   -0.9530 O.2   739  DCP739     -0.5168
     24  O3B       23.8800  -34.6090    1.0050 O.3   739  DCP739     -0.2258
     25  PG        22.8060  -33.6510    1.7200 P.3   739  DCP739      0.5373
     26  O1G       23.8000  -32.6560    2.4640 O.3   739  DCP739     -0.1143
     27  O2G       21.9080  -34.4650    2.7110 O.3   739  DCP739     -0.1143
     28  O3G       21.9350  -32.9480    0.6340 O.2   739  DCP739     -0.2221
@<TRIPOS>BOND
     1     7     2    2
     2    13     9    1
     3    13    12    1
     4     2     3    2
     5     2     1   am
     6     9     1    1
     7     9    10    1
     8     3     4    2
     9     1     6    1
    10     4     8    1
    11     4     5    1
    12    12    15    1
    13    12    11    1
    14     6     5    2
    15    15    16    1
    16    10    11    1
    17    16    17    1
    18    11    14    1
    19    17    18    2
    20    17    19    1
    21    17    20    1
    22    20    21    1
    23    23    21    2
    24    21    22    1
    25    21    24    1
    26    28    25    2
    27    24    25    1
    28    25    26    1
    29    25    27    1
