@<TRIPOS>MOLECULE
3osq_MAL_A_1.pdb
 23 24 0 0 0
SMALL
GASTEIGER

@<TRIPOS>ATOM
      1  C1       -19.6690   25.4890   17.0090 C.3   700  MAL700      0.2696
      2  C2       -18.5660   25.0840   17.9780 C.3   700  MAL700      0.2406
      3  C3       -19.0230   25.4880   19.3760 C.3   700  MAL700      0.2198
      4  C4       -19.3130   26.9690   19.3320 C.3   700  MAL700      0.2144
      5  C5       -20.2950   27.3530   18.2680 C.3   700  MAL700      0.1835
      6  C6       -20.4300   28.8530   18.1200 C.3   700  MAL700      0.2142
      7  O1       -20.8160   24.7420   17.2860 O.3   700  MAL700     -0.3245
      8  O2       -18.3280   23.6950   17.9360 O.3   700  MAL700     -0.2149
      9  O3       -18.0140   25.1800   20.3830 O.3   700  MAL700     -0.2174
     10  O4       -19.7590   27.3530   20.6690 O.3   700  MAL700     -0.2176
     11  O5       -19.8760   26.8970   16.9480 O.3   700  MAL700     -0.3256
     12  O6       -21.5130   29.1790   17.2500 O.3   700  MAL700     -0.2176
     13  C1'      -23.6560   22.4020   15.4720 C.2   700  MAL700      0.3505
     14  C2'      -22.1830   21.9450   15.1420 C.3   700  MAL700      0.2821
     15  C3'      -21.2830   22.6590   16.1550 C.3   700  MAL700      0.2238
     16  C4'      -21.5170   24.1930   16.2200 C.3   700  MAL700      0.1936
     17  C5'      -23.0330   24.5770   16.3430 C.3   700  MAL700      0.2312
     18  C6'      -23.3560   26.0070   16.1320 C.3   700  MAL700      0.2280
     19  O1'      -24.2970   21.7850   16.4660 O.2   700  MAL700     -0.2472
     20  O2'      -21.9720   20.5840   15.3570 O.3   700  MAL700     -0.2082
     21  O3'      -19.8800   22.3430   15.9000 O.3   700  MAL700     -0.2170
     22  O5'      -23.7870   23.8300   15.3830 O.3   700  MAL700     -0.4451
     23  O6'      -24.5770   26.2970   16.8120 O.3   700  MAL700     -0.2163
@<TRIPOS>BOND
     1    14    20    1
     2    14    13    1
     3    14    15    1
     4    22    13    1
     5    22    17    1
     6    13    19    2
     7    21    15    1
     8    18    17    1
     9    18    23    1
    10    15    16    1
    11    16    17    1
    12    16     7    1
    13    11     1    1
    14    11     5    1
    15     1     7    1
    16     1     2    1
    17    12     6    1
    18     8     2    1
    19     2     3    1
    20     6     5    1
    21     5     4    1
    22     4     3    1
    23     4    10    1
    24     3     9    1
