@<TRIPOS>MOLECULE
3osr_MAL_A_1.pdb
 23 24 0 0 0
SMALL
GASTEIGER

@<TRIPOS>ATOM
      1  C1        10.0140   54.2320   22.7020 C.3   700  MAL700      0.2695
      2  C2        11.4680   54.6900   22.6600 C.3   700  MAL700      0.2406
      3  C3        11.5880   56.1260   23.0950 C.3   700  MAL700      0.2198
      4  C4        10.7350   56.9310   22.1230 C.3   700  MAL700      0.2144
      5  C5         9.2910   56.3600   22.0910 C.3   700  MAL700      0.1835
      6  C6         8.4020   57.0060   20.9970 C.3   700  MAL700      0.2142
      7  O1         9.5060   54.3400   24.0380 O.3   700  MAL700     -0.3257
      8  O2        12.1910   53.8820   23.5450 O.3   700  MAL700     -0.2149
      9  O3        12.9490   56.5410   23.1620 O.3   700  MAL700     -0.2174
     10  O4        10.6540   58.3140   22.4880 O.3   700  MAL700     -0.2176
     11  O5         9.2150   54.9520   21.7930 O.3   700  MAL700     -0.3256
     12  O6         7.0340   56.6550   21.0760 O.3   700  MAL700     -0.2176
     13  C1'        7.6070   51.9630   26.6910 C.3   700  MAL700      0.3023
     14  C2'        8.8730   51.3630   26.1060 C.3   700  MAL700      0.2433
     15  C3'        9.6530   52.4440   25.3880 C.3   700  MAL700      0.2168
     16  C4'        8.7270   53.2800   24.4810 C.3   700  MAL700      0.1804
     17  C5'        7.5300   53.8310   25.2560 C.3   700  MAL700      0.1804
     18  C6'        6.5160   54.4550   24.3050 C.3   700  MAL700      0.2141
     19  O1'        7.8710   52.7640   27.7400 O.3   700  MAL700     -0.1869
     20  O2'        9.7030   50.8830   27.1380 O.3   700  MAL700     -0.2148
     21  O3'       10.7190   51.7890   24.6630 O.3   700  MAL700     -0.2175
     22  O5'        6.8340   52.7890   25.8300 O.3   700  MAL700     -0.3237
     23  O6'        5.6840   55.3240   25.0230 O.3   700  MAL700     -0.2176
@<TRIPOS>BOND
     1     6    12    1
     2     6     5    1
     3    11     5    1
     4    11     1    1
     5     5     4    1
     6     4    10    1
     7     4     3    1
     8     2     1    1
     9     2     3    1
    10     2     8    1
    11     1     7    1
    12     3     9    1
    13     7    16    1
    14    18    23    1
    15    18    17    1
    16    16    17    1
    17    16    15    1
    18    21    15    1
    19    17    22    1
    20    15    14    1
    21    22    13    1
    22    14    13    1
    23    14    20    1
    24    13    19    1
