@<TRIPOS>MOLECULE
3osw_XDI_A_1.pdb
 21 22 0 0 0
SMALL
GASTEIGER

@<TRIPOS>ATOM
      1  CAA       15.9390   16.5120    9.9090 C.3     1  XDI1        0.0088
      2  CAB       17.4180   18.4230    9.7330 C.3     1  XDI1        0.0088
      3  OAC       16.8920   17.3990   16.0080 O.3     1  XDI1       -0.2855
      4  OAD       11.6980   21.1340    9.1540 O.3     1  XDI1       -0.2855
      5 BRAE       19.6530   17.1920   14.6440 Br      1  XDI1       -0.0457
      6 BRAF       13.9940   17.7720   15.3430 Br      1  XDI1       -0.0457
      7 BRAG       14.2170   22.7850    9.5690 Br      1  XDI1       -0.0457
      8 BRAH       10.8320   18.1990    9.1840 Br      1  XDI1       -0.0457
      9  CAI       17.7210   17.5750   12.4340 C.ar    1  XDI1        0.0060
     10  CAJ       15.3340   17.8140   12.7500 C.ar    1  XDI1        0.0060
     11  CAK       15.1030   20.0780    9.9870 C.ar    1  XDI1        0.0060
     12  CAL       13.7160   18.1140    9.8380 C.ar    1  XDI1        0.0060
     13  CAM       16.7710   17.5130   14.6490 C.ar    1  XDI1        0.2079
     14  CAN       12.7690   20.3070    9.4530 C.ar    1  XDI1        0.2079
     15  CAO       17.8940   17.4490   13.8230 C.ar    1  XDI1        0.0736
     16  CAP       15.5040   17.6940   14.1250 C.ar    1  XDI1        0.0736
     17  CAQ       14.0110   20.8690    9.6800 C.ar    1  XDI1        0.0736
     18  CAR       12.6130   18.9240    9.5310 C.ar    1  XDI1        0.0736
     19  CAS       16.4350   17.7660   11.8960 C.ar    1  XDI1       -0.0178
     20  CAT       14.9690   18.7000   10.0750 C.ar    1  XDI1       -0.0178
     21  CAU       16.1940   17.8850   10.4110 C.3     1  XDI1        0.0378
@<TRIPOS>BOND
     1     4    14    1
     2     8    18    1
     3    14    18   ar
     4    14    17   ar
     5    18    12   ar
     6     7    17    1
     7    17    11   ar
     8     2    21    1
     9    12    20   ar
    10     1    21    1
    11    11    20   ar
    12    20    21    1
    13    21    19    1
    14    19     9   ar
    15    19    10   ar
    16     9    15   ar
    17    10    16   ar
    18    15     5    1
    19    15    13   ar
    20    16    13   ar
    21    16     6    1
    22    13     3    1
