@<TRIPOS>MOLECULE
3ot3_22K_A_1.pdb
 24 27 0 0 0
SMALL
GASTEIGER

@<TRIPOS>ATOM
      1  C01       14.5990   -1.0590   10.0490 C.3     1  22K1        0.1644
      2  C02       15.7060   -1.7940   10.2340 C.2     1  22K1        0.2850
      3  N03       16.7320   -1.1520    9.5530 N.pl3   1  22K1       -0.0279
      4  N04       16.2760    0.0090    9.0040 N.2     1  22K1       -0.0833
      5  C05       14.9820    0.0340    9.3260 C.2     1  22K1        0.1318
      6  N06       15.8910   -2.9520   10.9110 N.2     1  22K1       -0.3705
      7  C07       17.0860   -3.4190   10.9130 C.2     1  22K1        0.1256
      8  C08       18.2730   -2.7730   10.2290 C.2     1  22K1        0.1469
      9  C09       18.0460   -1.6350    9.5390 C.2     1  22K1        0.4025
     10 BR10       20.0270   -3.4330   10.4170 Br      1  22K1       -0.0389
     11  N11       19.0380   -0.9170    8.8840 N.pl3   1  22K1        0.2131
     12  C12       13.3320   -1.2610   10.7110 C.ar    1  22K1        0.0333
     13  C13       12.3310   -0.2700   10.9200 C.ar    1  22K1        0.1183
     14  N14       11.3310   -0.7350   11.7010 N.ar    1  22K1       -0.1679
     15  N15       11.7300   -2.0250   12.0540 N.ar    1  22K1       -0.2476
     16  C16       12.9480   -2.3490   11.5270 C.ar    1  22K1        0.0933
     17  C17       10.9220   -2.8870   12.9420 C.3     1  22K1        0.1537
     18  C18       17.3200   -4.6950   11.7000 C.3     1  22K1        0.0547
     19  C19       17.2380   -4.3010   13.2040 C.3     1  22K1        0.0260
     20  C20       17.3590   -5.5160   14.0930 C.3     1  22K1        0.0922
     21  C21       16.2360   -6.5150   13.8300 C.3     1  22K1        0.0190
     22  C22       16.2690   -6.9320   12.3420 C.3     1  22K1        0.0019
     23  C23       16.1610   -5.7080   11.4250 C.3     1  22K1        0.0071
     24  N24       17.1430   -5.0330   15.5060 N.3     1  22K1       -0.1329
@<TRIPOS>BOND
     1    11     9    1
     2     4     5    2
     3     4     3    1
     4     5     1    1
     5     9     3    1
     6     9     8    2
     7     3     2    1
     8     1     2    1
     9     1    12    1
    10     8    10    1
    11     8     7    1
    12     2     6    2
    13    12    13   ar
    14    12    16   ar
    15     6     7    2
    16     7    18    1
    17    13    14   ar
    18    23    18    1
    19    23    22    1
    20    16    15   ar
    21    18    19    1
    22    14    15   ar
    23    15    17    1
    24    22    21    1
    25    19    20    1
    26    21    20    1
    27    20    24    1
