@<TRIPOS>MOLECULE
3ot8_MI5_A_1.pdb
 28 32 0 0 0
SMALL
GASTEIGER

@<TRIPOS>ATOM
      1  C01       14.4620   -0.5520   10.0620 C.3     1  MI51        0.1644
      2  C02       15.6050   -1.2240   10.3080 C.2     1  MI51        0.2848
      3  N03       16.5910   -0.6580    9.5290 N.pl3   1  MI51       -0.0318
      4  N04       16.1020    0.4220    8.7980 N.2     1  MI51       -0.0834
      5  C05       14.8370    0.4600    9.1330 C.2     1  MI51        0.1318
      6  N06       15.8630   -2.2990   11.1330 N.2     1  MI51       -0.3709
      7  C07       17.0770   -2.7250   11.1370 C.2     1  MI51        0.1209
      8  C08       18.1960   -2.1600   10.3700 C.2     1  MI51        0.1175
      9  C09       17.9150   -1.1530    9.5380 C.2     1  MI51        0.3471
     10  N10       18.8000   -0.5130    8.7420 N.pl3   1  MI51       -0.0002
     11  C11       17.4190   -3.8620   12.1030 C.3     1  MI51        0.0702
     12  C12       13.1820   -0.7320   10.7320 C.ar    1  MI51        0.0333
     13  C13       16.9290   -3.4360   13.5220 C.3     1  MI51        0.0957
     14  N14       17.2820   -4.4480   14.5500 N.3     1  MI51       -0.2176
     15  C15       16.5790   -5.6820   14.2390 C.3     1  MI51        0.0887
     16  C16       17.0870   -6.2140   12.8900 C.3     1  MI51        0.0193
     17  C17       16.8020   -5.1860   11.7570 C.3     1  MI51        0.0099
     18  C18       12.1450    0.1900   10.8280 C.ar    1  MI51        0.1183
     19  N19       11.1210   -0.2460   11.5410 N.ar    1  MI51       -0.1679
     20  N20       11.5210   -1.4660   11.9640 N.ar    1  MI51       -0.2476
     21  C21       12.7690   -1.7940   11.5180 C.ar    1  MI51        0.0933
     22  C22       10.6180   -2.2810   12.8230 C.3     1  MI51        0.1537
     23  C23       20.0260   -0.8910    8.3230 C.ar    1  MI51        0.2311
     24  S24       20.7970   -2.3580    8.6970 S.2     1  MI51        0.0570
     25  N25       22.1890   -2.0680    7.8390 N.ar    1  MI51       -0.2100
     26  C26       22.0850   -0.8580    7.2670 C.ar    1  MI51        0.0714
     27  C27       20.8800   -0.1530    7.5180 C.ar    1  MI51        0.0681
     28  C28       23.2110   -0.3600    6.4390 C.3     1  MI51        0.0529
@<TRIPOS>BOND
     1    28    26    1
     2    26    27   ar
     3    26    25   ar
     4    27    23   ar
     5    25    24   ar
     6    23    24   ar
     7    23    10    1
     8    10     9    1
     9     4     5    2
    10     4     3    1
    11     5     1    1
    12     3     9    1
    13     3     2    1
    14     9     8    2
    15     1     2    1
    16     1    12    1
    17     2     6    2
    18     8     7    1
    19    12    18   ar
    20    12    21   ar
    21    18    19   ar
    22     6     7    2
    23     7    11    1
    24    21    20   ar
    25    19    20   ar
    26    17    11    1
    27    17    16    1
    28    20    22    1
    29    11    13    1
    30    16    15    1
    31    13    14    1
    32    15    14    1
