@<TRIPOS>MOLECULE
3ot9_G16_A_1.pdb
 20 20 0 0 0
SMALL
GASTEIGER

@<TRIPOS>ATOM
      1  C1        14.5400    9.1850    7.9940 C.3   400  G16400      0.2781
      2  C2        14.6700   10.3310    6.9970 C.3   400  G16400      0.2410
      3  C3        15.1640    9.7840    5.6600 C.3   400  G16400      0.2198
      4  C4        16.4960    9.0760    5.8590 C.3   400  G16400      0.2143
      5  C5        16.4030    8.0760    7.0020 C.3   400  G16400      0.1807
      6  C6        17.8290    7.6550    7.3110 C.3   400  G16400      0.1859
      7  O1        13.6460    8.1710    7.5220 O.3   400  G16400     -0.2416
      8  O2        13.4080   10.9850    6.8460 O.3   400  G16400     -0.2149
      9  O3        15.3380   10.8370    4.7240 O.3   400  G16400     -0.2174
     10  O4        16.8510    8.3780    4.6690 O.3   400  G16400     -0.2176
     11  O5        15.8470    8.6420    8.1920 O.3   400  G16400     -0.3254
     12  O6        17.8460    6.3370    7.8040 O.3   400  G16400     -0.2675
     13  P         19.2180    5.7130    8.3380 P.3   400  G16400      0.5327
     14  O1P       19.7310    4.7790    7.1440 O.2   400  G16400     -0.2224
     15  O2P       18.7450    4.7230    9.4910 O.3   400  G16400     -0.1145
     16  O3P       20.1970    6.7200    8.7660 O.3   400  G16400     -0.1145
     17  P'        12.7840    7.3600    8.5920 P.3   400  G16400      0.5346
     18  O1X       13.8130    6.4880    9.4680 O.3   400  G16400     -0.1145
     19  O2X       11.9200    6.2700    7.8280 O.2   400  G16400     -0.2223
     20  O3X       11.9640    8.2400    9.4390 O.3   400  G16400     -0.1145
@<TRIPOS>BOND
     1    10     4    1
     2     9     3    1
     3     3     4    1
     4     3     2    1
     5     4     5    1
     6     8     2    1
     7     2     1    1
     8     5     6    1
     9     5    11    1
    10    14    13    2
    11     6    12    1
    12     7     1    1
    13     7    17    1
    14    12    13    1
    15    19    17    2
    16     1    11    1
    17    13    16    1
    18    13    15    1
    19    17    20    1
    20    17    18    1
