@<TRIPOS>MOLECULE
3otb_3PO_A_1.pdb
 13 12 0 0 0
SMALL
GASTEIGER

@<TRIPOS>ATOM
      1  PG       -41.1060   25.5510   27.5060 P.3   302  3PO302      0.5373
      2  O1G      -41.2540   24.2820   28.2850 O.3   302  3PO302     -0.1143
      3  O2G      -41.9260   25.7470   26.2790 O.2   302  3PO302     -0.2221
      4  O3G      -39.6390   25.6660   27.1380 O.3   302  3PO302     -0.1143
      5  PB       -42.7090   26.9760   29.3740 P.3   302  3PO302      0.2317
      6  O1B      -43.3540   28.2310   28.9300 O.2   302  3PO302     -0.5167
      7  O2B      -43.4970   25.7120   29.3820 O.3   302  3PO302     -0.4368
      8  O3B      -41.4290   26.7480   28.4790 O.3   302  3PO302     -0.2257
      9  PA       -41.0980   26.2870   31.6220 P.3   302  3PO302      0.5373
     10  O1A      -39.7670   26.5270   31.0190 O.2   302  3PO302     -0.2221
     11  O2A      -41.6210   24.8850   31.6730 O.3   302  3PO302     -0.1143
     12  O3A      -42.1390   27.1810   30.8270 O.3   302  3PO302     -0.2257
     13  O5'      -41.0280   26.8920   33.0970 O.3   302  3PO302     -0.1143
@<TRIPOS>BOND
     1     3     1    2
     2     4     1    1
     3     1     2    1
     4     1     8    1
     5     8     5    1
     6     6     5    2
     7     5     7    1
     8     5    12    1
     9    12     9    1
    10    10     9    2
    11     9    11    1
    12     9    13    1
