@<TRIPOS>MOLECULE
3otb_DGT_A_1.pdb
 31 33 0 0 0
SMALL
GASTEIGER

@<TRIPOS>ATOM
      1  PG       -27.2770    0.0160   26.5990 P.3   301  DGT301      0.5373
      2  O1G      -27.2800    0.7330   25.3030 O.2   301  DGT301     -0.2221
      3  O2G      -28.5310   -0.0490   27.3960 O.3   301  DGT301     -0.1143
      4  O3G      -26.1990    0.6090   27.5000 O.3   301  DGT301     -0.1143
      5  O3B      -26.8310   -1.4330   26.2870 O.3   301  DGT301     -0.2258
      6  PB       -27.6600   -2.7610   26.3010 P.3   301  DGT301      0.2277
      7  O1B      -27.1250   -3.5980   27.4150 O.3   301  DGT301     -0.4368
      8  O2B      -29.1100   -2.4580   26.2340 O.2   301  DGT301     -0.5168
      9  O3A      -27.2770   -3.4000   24.9300 O.3   301  DGT301     -0.2700
     10  PA       -27.7230   -2.9420   23.4930 P.3   301  DGT301      0.2189
     11  O1A      -26.4690   -2.6740   22.7610 O.2   301  DGT301     -0.5170
     12  O2A      -28.7260   -1.8530   23.6460 O.3   301  DGT301     -0.4371
     13  O5'      -28.4290   -4.2030   22.8040 O.3   301  DGT301     -0.3112
     14  C5'      -29.7700   -4.5830   23.1210 C.3   301  DGT301      0.1812
     15  C4'      -29.7980   -5.6570   24.2090 C.3   301  DGT301      0.1772
     16  O4'      -31.1800   -6.0170   24.4490 O.3   301  DGT301     -0.3347
     17  C3'      -29.0740   -6.9640   23.9090 C.3   301  DGT301      0.1857
     18  O3'      -27.7820   -6.9250   24.5100 O.3   301  DGT301     -0.2203
     19  C2'      -29.9070   -8.0250   24.6240 C.3   301  DGT301      0.0865
     20  C1'      -31.3010   -7.4130   24.6250 C.3   301  DGT301      0.1981
     21  N9       -32.2660   -7.9060   23.6210 N.pl3 301  DGT301     -0.2374
     22  C8       -32.8580   -7.1590   22.6310 C.3   301  DGT301      0.2245
     23  N7       -33.7280   -7.8260   21.9310 N.2   301  DGT301     -0.2322
     24  C5       -33.7000   -9.1040   22.4740 C.2   301  DGT301      0.2182
     25  C6       -34.4340  -10.2560   22.1260 C.1   301  DGT301      0.2372
     26  O6       -35.2950  -10.3700   21.2460 O.2   301  DGT301     -0.2069
     27  N1       -34.0920  -11.3490   22.9230 N.2   301  DGT301     -0.2485
     28  C2       -33.1580  -11.3220   23.9360 C.1   301  DGT301      0.2531
     29  N2       -32.9460  -12.4770   24.5890 N.pl3 301  DGT301     -0.0226
     30  N3       -32.4750  -10.2400   24.2810 N.2   301  DGT301     -0.3074
     31  C4       -32.7910   -9.1760   23.5090 C.2   301  DGT301      0.2299
@<TRIPOS>BOND
     1    26    25    2
     2    23    24    2
     3    23    22    1
     4    25    24    1
     5    25    27    2
     6    24    31    1
     7    22    21    1
     8    11    10    2
     9    13    14    1
    10    13    10    1
    11    27    28    2
    12    14    15    1
    13    10    12    1
    14    10     9    1
    15    31    21    1
    16    31    30    2
    17    21    20    1
    18    17    15    1
    19    17    18    1
    20    17    19    1
    21    28    30    2
    22    28    29    1
    23    15    16    1
    24    16    20    1
    25    19    20    1
    26     9     6    1
    27     2     1    2
    28     8     6    2
    29     5     6    1
    30     5     1    1
    31     6     7    1
    32     1     3    1
    33     1     4    1
