@<TRIPOS>MOLECULE
3otf_CMP_A_1.pdb
 22 25 0 0 0
SMALL
GASTEIGER

@<TRIPOS>ATOM
      1  P        -20.0210  -17.1830   13.4290 P.3   725  CMP725      0.2141
      2  O1P      -20.8030  -16.9690   12.1580 O.2   725  CMP725     -0.5172
      3  O2P      -18.7120  -16.4340   13.3810 O.3   725  CMP725     -0.4373
      4  O5'      -20.9740  -16.7660   14.6380 O.3   725  CMP725     -0.3114
      5  C5'      -22.1280  -17.5550   14.9150 C.3   725  CMP725      0.1812
      6  C4'      -21.5840  -18.9570   15.1040 C.3   725  CMP725      0.1793
      7  O4'      -22.5290  -19.9610   15.4140 O.3   725  CMP725     -0.3136
      8  C3'      -20.9650  -19.4840   13.8440 C.3   725  CMP725      0.1884
      9  O3'      -19.7820  -18.7420   13.6620 O.3   725  CMP725     -0.3111
     10  C2'      -20.7750  -20.9580   14.1530 C.3   725  CMP725      0.2541
     11  O2'      -19.5420  -21.2420   14.8310 O.3   725  CMP725     -0.2131
     12  C1'      -21.9380  -21.2230   15.0890 C.3   725  CMP725      0.3185
     13  N9       -22.9350  -21.9520   14.3010 N.pl3 725  CMP725     -0.1439
     14  C8       -23.6240  -21.4600   13.2530 C.3   725  CMP725      0.3377
     15  N7       -24.4660  -22.4030   12.7600 N.2   725  CMP725     -0.2095
     16  C5       -24.3180  -23.5170   13.5090 C.2   725  CMP725      0.2526
     17  C6       -24.8890  -24.8860   13.5410 C.2   725  CMP725      0.4393
     18  N6       -25.8330  -25.2710   12.6520 N.pl3 725  CMP725      0.2180
     19  N1       -24.4660  -25.7380   14.5010 N.2   725  CMP725      0.0021
     20  C2       -23.5400  -25.3700   15.4020 C.3   725  CMP725      0.5254
     21  N3       -22.9740  -24.1520   15.4270 N.2   725  CMP725     -0.0055
     22  C4       -23.3100  -23.2050   14.5260 C.2   725  CMP725      0.3518
@<TRIPOS>BOND
     1     2     1    2
     2    18    17    1
     3    15    14    1
     4    15    16    2
     5    14    13    1
     6     3     1    1
     7     1     9    1
     8     1     4    1
     9    16    17    1
    10    16    22    1
    11    17    19    2
    12     9     8    1
    13     8    10    1
    14     8     6    1
    15    10    11    1
    16    10    12    1
    17    13    22    1
    18    13    12    1
    19    19    20    1
    20    22    21    2
    21     4     5    1
    22     5     6    1
    23    12     7    1
    24     6     7    1
    25    20    21    1
