@<TRIPOS>MOLECULE
3otg_TYD_A_1.pdb
 25 26 0 0 0
SMALL
GASTEIGER

@<TRIPOS>ATOM
      1  PA        13.4390   33.1100   71.8980 P.3   393  TYD393      0.2231
      2  O1A       12.6340   32.7900   70.6480 O.2   393  TYD393     -0.5169
      3  O2A       14.9050   33.4610   71.7790 O.3   393  TYD393     -0.4370
      4  O3A       13.3780   31.9140   72.9780 O.3   393  TYD393     -0.2261
      5  PB        12.0340   31.2230   73.5380 P.3   393  TYD393      0.5373
      6  O1B       10.9090   31.6910   72.6580 O.2   393  TYD393     -0.2221
      7  O2B       12.3270   29.7440   73.4440 O.3   393  TYD393     -0.1143
      8  O3B       11.9560   31.7410   74.9520 O.3   393  TYD393     -0.1143
      9  O5'       12.6470   34.3380   72.5860 O.3   393  TYD393     -0.3111
     10  C5'       13.1150   34.9950   73.7560 C.3   393  TYD393      0.1812
     11  C4'       12.8430   36.4810   73.5920 C.3   393  TYD393      0.1773
     12  O4'       12.9810   37.0760   74.8800 O.3   393  TYD393     -0.3339
     13  C3'       13.8890   37.1130   72.6860 C.3   393  TYD393      0.1857
     14  O3'       13.2860   37.9910   71.7230 O.3   393  TYD393     -0.2203
     15  C2'       14.8030   37.9000   73.6100 C.3   393  TYD393      0.0874
     16  C1'       13.9600   38.1160   74.8610 C.3   393  TYD393      0.2090
     17  N1        14.7320   38.0900   76.1130 N.am  393  TYD393     -0.1794
     18  C2        15.3070   39.2820   76.6010 C.1   393  TYD393      0.2844
     19  O2        15.1720   40.3280   75.9340 O.2   393  TYD393     -0.1918
     20  N3        16.0020   39.3100   77.7470 N.2   393  TYD393     -0.2455
     21  C4        16.1600   38.1890   78.4560 C.1   393  TYD393      0.2134
     22  O4        16.8030   38.1800   79.5270 O.2   393  TYD393     -0.2088
     23  C5        15.5620   36.9300   77.9740 C.2   393  TYD393      0.0891
     24  C5M       15.7410   35.6690   78.7770 C.3   393  TYD393      0.0462
     25  C6        14.8410   36.9460   76.7910 C.2   393  TYD393      0.0877
@<TRIPOS>BOND
     1     2     1    2
     2    14    13    1
     3     3     1    1
     4     1     9    1
     5     1     4    1
     6     9    10    1
     7     6     5    2
     8    13    11    1
     9    13    15    1
    10     4     5    1
    11     7     5    1
    12     5     8    1
    13    11    10    1
    14    11    12    1
    15    15    16    1
    16    16    12    1
    17    16    17    1
    18    19    18    2
    19    17    18   am
    20    17    25    1
    21    18    20    2
    22    25    23    2
    23    20    21    2
    24    23    21    1
    25    23    24    1
    26    21    22    2
