@<TRIPOS>MOLECULE
3oth_TYD_A_1.pdb
 25 26 0 0 0
SMALL
GASTEIGER

@<TRIPOS>ATOM
      1  PA        -9.7340  -11.9810   38.5900 P.3   393  TYD393      0.2231
      2  O1A      -10.9030  -11.6960   39.4990 O.3   393  TYD393     -0.4370
      3  O2A       -9.9300  -12.7520   37.3090 O.2   393  TYD393     -0.5169
      4  O3A       -8.5950  -12.7450   39.4450 O.3   393  TYD393     -0.2261
      5  PB        -7.7480  -12.0130   40.6140 P.3   393  TYD393      0.5373
      6  O1B       -7.2860  -13.1760   41.4590 O.3   393  TYD393     -0.1143
      7  O2B       -6.6370  -11.2920   39.8950 O.2   393  TYD393     -0.2221
      8  O3B       -8.7360  -11.0920   41.2860 O.3   393  TYD393     -0.1143
      9  O5'       -9.0170  -10.5870   38.2380 O.3   393  TYD393     -0.3111
     10  C5'       -8.1210  -10.5130   37.1340 C.3   393  TYD393      0.1812
     11  C4'       -8.3330   -9.1930   36.4170 C.3   393  TYD393      0.1773
     12  O4'       -7.0950   -8.7890   35.8350 O.3   393  TYD393     -0.3339
     13  C3'       -9.3430   -9.3690   35.2940 C.3   393  TYD393      0.1857
     14  O3'      -10.3320   -8.3360   35.3510 O.3   393  TYD393     -0.2203
     15  C2'       -8.5470   -9.2530   34.0060 C.3   393  TYD393      0.0874
     16  C1'       -7.2610   -8.5600   34.4360 C.3   393  TYD393      0.2090
     17  N1        -6.0990   -9.0400   33.6830 N.am  393  TYD393     -0.1794
     18  C2        -5.8190   -8.4790   32.4180 C.1   393  TYD393      0.2844
     19  O2        -6.5780   -7.5960   31.9640 O.2   393  TYD393     -0.1918
     20  N3        -4.7600   -8.8830   31.7010 N.2   393  TYD393     -0.2455
     21  C4        -3.9340   -9.8270   32.1670 C.1   393  TYD393      0.2134
     22  O4        -2.9490  -10.1980   31.4930 O.2   393  TYD393     -0.2088
     23  C5        -4.2030  -10.4280   33.4960 C.2   393  TYD393      0.0891
     24  C5M       -3.2960  -11.4930   34.0560 C.3   393  TYD393      0.0462
     25  C6        -5.3050   -9.9810   34.2120 C.2   393  TYD393      0.0877
@<TRIPOS>BOND
     1    22    21    2
     2    20    21    2
     3    20    18    2
     4    19    18    2
     5    21    23    1
     6    18    17   am
     7    23    24    1
     8    23    25    2
     9    17    25    1
    10    17    16    1
    11    15    16    1
    12    15    13    1
    13    16    12    1
    14    13    14    1
    15    13    11    1
    16    12    11    1
    17    11    10    1
    18    10     9    1
    19     3     1    2
    20     9     1    1
    21     1     4    1
    22     1     2    1
    23     4     5    1
    24     7     5    2
    25     5     8    1
    26     5     6    1
