@<TRIPOS>MOLECULE
3oti_TYD_A_1.pdb
 25 26 0 0 0
SMALL
GASTEIGER

@<TRIPOS>ATOM
      1  PA         4.5240    0.6200    8.6530 P.3   377  TYD377      0.2231
      2  O1A        4.6340    0.8130    7.1820 O.2   377  TYD377     -0.5169
      3  O2A        3.1950    0.2470    9.1820 O.3   377  TYD377     -0.4370
      4  O3A        5.6430   -0.4960    8.9520 O.3   377  TYD377     -0.2261
      5  PB         6.6220   -0.8500   10.1790 P.3   377  TYD377      0.5373
      6  O1B        5.7860   -0.9850   11.4330 O.3   377  TYD377     -0.1143
      7  O2B        7.0980   -2.1590    9.6620 O.2   377  TYD377     -0.2221
      8  O3B        7.6500    0.2050   10.2550 O.3   377  TYD377     -0.1143
      9  O5'        4.9370    1.9550    9.4040 O.3   377  TYD377     -0.3111
     10  C5'        6.0460    2.7850    8.9770 C.3   377  TYD377      0.1812
     11  C4'        5.5500    4.2140    9.1090 C.3   377  TYD377      0.1773
     12  O4'        6.7120    5.0690    9.0640 O.3   377  TYD377     -0.3339
     13  C3'        4.6850    4.6060    7.9250 C.3   377  TYD377      0.1857
     14  O3'        3.7210    5.5610    8.3970 O.3   377  TYD377     -0.2203
     15  C2'        5.6160    5.3400    6.9700 C.3   377  TYD377      0.0874
     16  C1'        6.5050    6.0130    7.9970 C.3   377  TYD377      0.2090
     17  N1         7.8490    6.4120    7.5220 N.am  377  TYD377     -0.1794
     18  C2         8.0870    7.7500    7.2050 C.1   377  TYD377      0.2844
     19  O2         7.1400    8.5700    7.2660 O.2   377  TYD377     -0.1918
     20  N3         9.2850    8.1370    6.7740 N.2   377  TYD377     -0.2455
     21  C4        10.3090    7.2840    6.6790 C.1   377  TYD377      0.2134
     22  O4        11.4330    7.7200    6.3320 O.2   377  TYD377     -0.2088
     23  C5        10.0960    5.8720    7.0190 C.2   377  TYD377      0.0891
     24  C5M       11.2330    4.8620    6.9190 C.3   377  TYD377      0.0462
     25  C6         8.8330    5.4940    7.4480 C.2   377  TYD377      0.0877
@<TRIPOS>BOND
     1    22    21    2
     2    21    20    2
     3    21    23    1
     4    20    18    2
     5    24    23    1
     6    15    13    1
     7    15    16    1
     8    23    25    2
     9     2     1    2
    10    18    19    2
    11    18    17   am
    12    25    17    1
    13    17    16    1
    14    13    14    1
    15    13    11    1
    16    16    12    1
    17     1     4    1
    18     1     3    1
    19     1     9    1
    20     4     5    1
    21    10    11    1
    22    10     9    1
    23    12    11    1
    24     7     5    2
    25     5     8    1
    26     5     6    1
