@<TRIPOS>MOLECULE
3oti_C0T_A_1.pdb
 38 40 0 0 0
SMALL
GASTEIGER

@<TRIPOS>ATOM
      1  C1         7.1630   -8.4210   16.3450 C.2   378  C0T378      0.1920
      2  N1         8.1900   -7.4360   14.5980 N.am  378  C0T378     -0.1398
      3  O1         7.9950   -9.2530   16.3250 O.2   378  C0T378     -0.2898
      4  S1         1.3850   -7.6520   15.0170 S.3   378  C0T378     -0.0667
      5  C2         7.0910   -7.4090   15.3140 C.2   378  C0T378      0.1104
      6  N2         1.7350   -2.3150   10.1250 N.2   378  C0T378     -0.0532
      7  O2         7.7140   -7.1800   12.5000 O.2   378  C0T378     -0.2242
      8  S2         0.2940   -6.8010   16.5180 S.3   378  C0T378     -0.0226
      9  C3         6.0420   -6.6240   15.2100 C.2   378  C0T378      0.0343
     10  O3         9.7590   -7.5970   12.8880 O.3   378  C0T378     -0.4292
     11  S3        -0.8870   -5.3490   15.6670 S.3   378  C0T378     -0.0705
     12  C4         4.9580   -6.8100   16.1660 C.2   378  C0T378      0.0141
     13  O4         4.5710   -7.3600   18.5270 O.3   378  C0T378     -0.2074
     14  C5         5.5350   -7.0820   17.5290 C.3   378  C0T378      0.2050
     15  O5         4.8170   -5.2760   13.4590 O.3   378  C0T378     -0.3137
     16  C6         6.2470   -8.3910   17.4920 C.3   378  C0T378      0.1177
     17  O6         0.5410   -2.2110   10.3720 O.2   378  C0T378     -0.1482
     18  C7         8.4520   -7.3940   13.3520 C.2   378  C0T378      0.4256
     19  O7         3.3740   -3.5940   13.0870 O.3   378  C0T378     -0.3288
     20  C8         9.9730   -7.2310   11.5830 C.3   378  C0T378      0.2574
     21  O8         5.9380   -4.5540   10.7470 O.3   378  C0T378     -0.2149
     22  C9         6.2690   -5.9090   17.9780 C.1   378  C0T378     -0.0530
     23  O9         3.5330   -4.4340    9.1790 O.3   378  C0T378     -0.2179
     24  C10        6.8550   -4.9270   18.1400 C.1   378  C0T378     -0.0605
     25  C11        7.5520   -3.6770   17.9950 C.2   378  C0T378      0.0582
     26  C12        7.6980   -3.1340   16.7960 C.2   378  C0T378      0.0582
     27  C13        7.1790   -3.7710   15.6760 C.1   378  C0T378     -0.0604
     28  C14        6.6720   -4.4810   14.9450 C.1   378  C0T378     -0.0527
     29  C15        5.9840   -5.5080   14.2280 C.3   378  C0T378      0.2051
     30  C16        3.6450   -6.7900   16.0400 C.2   378  C0T378     -0.0147
     31  C17        2.8030   -6.5760   14.8350 C.3   378  C0T378      0.0951
     32  C18       -2.3530   -6.1930   15.2600 C.3   378  C0T378      0.0820
     33  C19        4.6490   -4.0950   12.7180 C.3   378  C0T378      0.2704
     34  C20        4.6350   -4.5200   11.2500 C.3   378  C0T378      0.2401
     35  C21        3.8010   -3.6590   10.2930 C.3   378  C0T378      0.2153
     36  C22        2.5060   -3.2240   10.9300 C.3   378  C0T378      0.2065
     37  C23        2.8920   -2.5930   12.2530 C.3   378  C0T378      0.1463
     38  C24        1.6940   -1.9970   12.9260 C.3   378  C0T378      0.0344
@<TRIPOS>BOND
     1    23    35    1
     2     6    17    2
     3     6    36    1
     4    35    36    1
     5    35    34    1
     6    21    34    1
     7    36    37    1
     8    34    33    1
     9    20    10    1
    10    37    38    1
    11    37    19    1
    12     7    18    2
    13    33    19    1
    14    33    15    1
    15    10    18    1
    16    18     2   am
    17    15    29    1
    18    29    28    1
    19    29     9    1
    20     2     5    1
    21    31     4    1
    22    31    30    1
    23    28    27    3
    24     4     8    1
    25     9     5    2
    26     9    12    1
    27    32    11    1
    28     5     1    1
    29    11     8    1
    30    27    26    1
    31    30    12    2
    32    12    14    1
    33     3     1    2
    34     1    16    1
    35    26    25    2
    36    16    14    1
    37    14    22    1
    38    14    13    1
    39    22    24    3
    40    25    24    1
