@<TRIPOS>MOLECULE
3otk_FUC_C_1.pdb
 10 10 0 0 0
SMALL
GASTEIGER

@<TRIPOS>ATOM
      1  C1        -1.0210   23.4500  -24.7020 C.3   596  FUC596      0.1776
      2  C2        -0.5680   22.6460  -25.9120 C.3   596  FUC596      0.2141
      3  C3         0.7800   22.0160  -25.5800 C.3   596  FUC596      0.2172
      4  C4         0.6790   21.1870  -24.3000 C.3   596  FUC596      0.2116
      5  C5        -0.0620   21.9480  -23.1930 C.3   596  FUC596      0.1483
      6  C6        -0.3430   21.0670  -21.9790 C.3   596  FUC596      0.0349
      7  O2        -0.4490   23.4870  -27.0400 O.3   596  FUC596     -0.2176
      8  O3         1.2340   21.2010  -26.6360 O.3   596  FUC596     -0.2175
      9  O4         0.0500   19.9530  -24.5730 O.3   596  FUC596     -0.2177
     10  O5        -1.2670   22.5290  -23.6660 O.3   596  FUC596     -0.3508
@<TRIPOS>BOND
     1     7     2    1
     2     8     3    1
     3     2     3    1
     4     2     1    1
     5     3     4    1
     6     1    10    1
     7     9     4    1
     8     4     5    1
     9    10     5    1
    10     5     6    1
