@<TRIPOS>MOLECULE
3otk_UDP_A_1.pdb
 25 26 0 0 0
SMALL
GASTEIGER

@<TRIPOS>ATOM
      1  N1       -40.4470  -34.4260  -76.0530 N.am  598  UDP598     -0.1766
      2  C2       -41.3430  -35.4460  -75.7930 C.1   598  UDP598      0.2845
      3  N3       -42.5370  -35.4850  -76.4710 N.2   598  UDP598     -0.2452
      4  C4       -42.8520  -34.5180  -77.3990 C.1   598  UDP598      0.2182
      5  C5       -41.9430  -33.4920  -77.6590 C.2   598  UDP598      0.1242
      6  C6       -40.7920  -33.3910  -76.8810 C.2   598  UDP598      0.0929
      7  O2       -41.0880  -36.3180  -74.9560 O.2   598  UDP598     -0.1918
      8  O4       -43.9360  -34.5850  -77.9840 O.2   598  UDP598     -0.2085
      9  C1'      -39.1800  -34.4300  -75.3010 C.3   598  UDP598      0.2401
     10  C2'      -37.9840  -34.6670  -76.2100 C.3   598  UDP598      0.2319
     11  O2'      -37.7930  -36.0530  -76.4460 O.3   598  UDP598     -0.2157
     12  C3'      -36.8650  -34.0240  -75.4150 C.3   598  UDP598      0.2158
     13  C4'      -37.5520  -32.9470  -74.5870 C.3   598  UDP598      0.1799
     14  O4'      -38.9430  -33.2130  -74.6120 O.3   598  UDP598     -0.3320
     15  O3'      -36.3330  -34.9570  -74.5140 O.3   598  UDP598     -0.2175
     16  C5'      -37.3100  -31.5690  -75.1800 C.3   598  UDP598      0.1813
     17  O5'      -37.7220  -31.5830  -76.5360 O.3   598  UDP598     -0.3111
     18  PA       -37.0740  -30.5110  -77.5310 P.3   598  UDP598      0.2231
     19  O1A      -37.3390  -30.8160  -78.9520 O.2   598  UDP598     -0.5169
     20  O2A      -35.6220  -30.3800  -77.2530 O.3   598  UDP598     -0.4370
     21  O3A      -37.8470  -29.1570  -77.1690 O.3   598  UDP598     -0.2261
     22  PB       -37.1710  -27.7800  -77.6270 P.3   598  UDP598      0.5373
     23  O1B      -35.8560  -28.0900  -78.2250 O.3   598  UDP598     -0.1143
     24  O2B      -36.9940  -26.8940  -76.4480 O.3   598  UDP598     -0.1143
     25  O3B      -38.0220  -27.1640  -78.6660 O.2   598  UDP598     -0.2221
@<TRIPOS>BOND
     1    19    18    2
     2    25    22    2
     3    23    22    1
     4     8     4    2
     5     5     4    1
     6     5     6    2
     7    22    21    1
     8    22    24    1
     9    18    20    1
    10    18    21    1
    11    18    17    1
    12     4     3    2
    13     6     1    1
    14    17    16    1
    15     3     2    2
    16    11    10    1
    17    10    12    1
    18    10     9    1
    19     1     2   am
    20     1     9    1
    21     2     7    2
    22    12    13    1
    23    12    15    1
    24     9    14    1
    25    16    13    1
    26    14    13    1
