@<TRIPOS>MOLECULE
3otp_III_G_1.pdb
 28 27 0 0 0
SMALL
GASTEIGER

@<TRIPOS>ATOM
      1  N        -10.8180   28.6860   36.1330 N.3    28  TRP28      -0.1231
      2  CA        -9.6160   28.4270   35.3490 C.3    28  TRP28       0.1694
      3  C         -9.7500   28.9590   33.9240 C.2    28  TRP28       0.2592
      4  O        -10.4230   29.9630   33.6900 O.2    28  TRP28      -0.2718
      5  CB        -9.3020   26.9310   35.3270 C.3    28  TRP28       0.0304
      6  N         -9.1070   28.2800   32.9780 N.am   29  VAL29      -0.1966
      7  CA        -9.1270   28.7000   31.5780 C.3    29  VAL29       0.1727
      8  C        -10.4900   28.4690   30.9360 C.2    29  VAL29       0.2617
      9  O        -11.1020   27.4160   31.1160 O.2    29  VAL29      -0.2715
     10  CB        -8.0520   27.9670   30.7500 C.3    29  VAL29       0.0290
     11  CG1       -8.2290   28.2540   29.2700 C.3    29  VAL29       0.0023
     12  CG2       -6.6670   28.3710   31.2080 C.3    29  VAL29       0.0023
     13  N        -10.9600   29.4610   30.1860 N.am   30  SER30      -0.1936
     14  CA       -12.2360   29.3490   29.4880 C.3    30  SER30       0.2055
     15  C        -12.1740   30.0110   28.1150 C.2    30  SER30       0.2643
     16  O        -11.5330   31.0490   27.9440 O.2    30  SER30      -0.2714
     17  CB       -13.3660   29.9690   30.3190 C.3    30  SER30       0.2130
     18  OG       -13.2110   31.3730   30.4370 O.3    30  SER30      -0.2179
     19  N        -12.8400   29.4000   27.1390 N.am   31  ALA31      -0.1963
     20  CA       -12.9310   29.9710   25.8020 C.3    31  ALA31       0.1728
     21  C        -13.6460   31.3170   25.8570 C.2    31  ALA31       0.2616
     22  O        -14.3550   31.6130   26.8170 O.2    31  ALA31      -0.2715
     23  CB       -13.6560   29.0140   24.8630 C.3    31  ALA31       0.0334
     24  N        -13.4580   32.1300   24.8250 N.am   32  ALA32      -0.1977
     25  CA       -14.0460   33.4630   24.8030 C.3    32  ALA32       0.1597
     26  C        -15.2350   33.5550   23.8520 C.2    32  ALA32       0.2287
     27  O        -15.4610   34.5920   23.2290 O.2    32  ALA32      -0.2864
     28  CB       -12.9920   34.4990   24.4440 C.3    32  ALA32       0.0319
@<TRIPOS>BOND
     1    27    26    2
     2    26    25    1
     3    28    25    1
     4    25    24    1
     5    24    21   am
     6    23    20    1
     7    20    21    1
     8    20    19    1
     9    21    22    2
    10    19    15   am
    11    16    15    2
    12    15    14    1
    13    11    10    1
    14    14    13    1
    15    14    17    1
    16    13     8   am
    17    17    18    1
    18    10    12    1
    19    10     7    1
    20     8     9    2
    21     8     7    1
    22     7     6    1
    23     6     3   am
    24     4     3    2
    25     3     2    1
    26     5     2    1
    27     2     1    1
