@<TRIPOS>MOLECULE
3otq_MZL_A_1.pdb
 28 31 0 0 0
SMALL
GASTEIGER

@<TRIPOS>ATOM
      1  N1        75.3920  -11.2400   70.1760 N.ar  556  MZL556     -0.2337
      2  C2        75.1440  -10.4490   68.9140 C.ar  556  MZL556      0.0825
      3  C3        75.6020  -12.7050   70.3170 C.ar  556  MZL556      0.0620
      4  N4        75.4830  -10.6950   71.4610 N.ar  556  MZL556     -0.1654
      5  C5        74.0720  -10.6970   68.1100 C.ar  556  MZL556      0.0205
      6  C6        76.1070   -9.3760   68.4970 C.ar  556  MZL556      0.0205
      7  C7        75.7910  -12.9570   71.6060 C.ar  556  MZL556      0.0356
      8  C8        75.6150  -13.7550   69.1790 C.3   556  MZL556      0.0459
      9  C9        75.7100  -11.6530   72.2840 C.ar  556  MZL556      0.1039
     10  C10       73.9010   -9.8940   66.8410 C.ar  556  MZL556      0.0182
     11  C11       75.9510   -8.6660   67.3760 C.ar  556  MZL556      0.0182
     12  C12       76.2060  -15.1540   69.5250 C.3   556  MZL556      0.0067
     13  C13       75.9080  -11.5130   73.7590 C.ar  556  MZL556      0.0386
     14  C14       74.8150   -8.9310   66.4980 C.ar  556  MZL556      0.0738
     15  C15       75.9260  -12.6330   74.5720 C.ar  556  MZL556      0.0047
     16  C16       76.1150  -10.2000   74.3830 C.ar  556  MZL556      0.1004
     17  N17       74.7250   -8.1450   65.3150 N.am  556  MZL556     -0.1754
     18  C18       76.1470  -12.5150   76.0410 C.ar  556  MZL556      0.0207
     19  N19       76.3060  -10.1250   75.6720 N.ar  556  MZL556     -0.2423
     20  C20       75.4870   -8.3520   64.1300 C.2   556  MZL556      0.2705
     21  C21       76.3300  -11.2950   76.5520 C.ar  556  MZL556      0.0989
     22  C22       75.3030   -7.4160   62.9870 C.ar  556  MZL556      0.0745
     23  O23       76.3090   -9.2820   64.0670 O.2   556  MZL556     -0.2680
     24  C24       76.0270   -7.5630   61.8570 C.ar  556  MZL556      0.0077
     25  C25       74.3320   -6.2900   63.0520 C.ar  556  MZL556      0.1034
     26  C26       75.8480   -6.6300   60.7240 C.ar  556  MZL556      0.0208
     27  N27       74.1960   -5.4780   62.0310 N.ar  556  MZL556     -0.2422
     28  C28       74.9470   -5.6280   60.8400 C.ar  556  MZL556      0.0989
@<TRIPOS>BOND
     1    26    28   ar
     2    26    24   ar
     3    28    27   ar
     4    24    22   ar
     5    27    25   ar
     6    22    25   ar
     7    22    20    1
     8    23    20    2
     9    20    17   am
    10    17    14    1
    11    14    10   ar
    12    14    11   ar
    13    10     5   ar
    14    11     6   ar
    15     5     2   ar
    16     6     2   ar
    17     2     1    1
    18     8    12    1
    19     8     3    1
    20     1     3   ar
    21     1     4   ar
    22     3     7   ar
    23     4     9   ar
    24     7     9   ar
    25     9    13    1
    26    13    16   ar
    27    13    15   ar
    28    16    19   ar
    29    15    18   ar
    30    19    21   ar
    31    18    21   ar
