@<TRIPOS>MOLECULE
3ott_TBR_A_1.pdb
 18 18 0 0 0
SMALL
GASTEIGER

@<TRIPOS>ATOM
      1 TA1        40.1890   68.2450  197.5920 Ta      1  TBR1        0.0000
      2 TA2        38.9870   70.3930  198.6590 Ta      1  TBR1        0.0000
      3 TA3        38.0870   69.3300  196.1370 Ta      1  TBR1        0.0000
      4 TA4        36.5030   69.0590  198.4420 Ta      1  TBR1        0.0000
      5 TA5        37.7640   66.8510  197.3220 Ta      1  TBR1        0.0000
      6 TA6        38.6710   67.8890  199.8730 Ta      1  TBR1        0.0000
      7 BR1        41.5530   70.3870  198.1720 Br      1  TBR1        0.0000
      8 BR2        40.4340   68.7530  195.0400 Br      1  TBR1        0.0000
      9 BR3        40.0230   65.8440  196.6460 Br      1  TBR1        0.0000
     10 BR4        41.0730   66.9160  199.6570 Br      1  TBR1        0.0000
     11 BR5        38.7470   71.8440  196.4830 Br      1  TBR1        0.0000
     12 BR6        37.2790   67.2940  194.7580 Br      1  TBR1        0.0000
     13 BR7        35.2220   66.8900  197.7400 Br      1  TBR1        0.0000
     14 BR8        36.2870   68.2630  200.9050 Br      1  TBR1        0.0000
     15 BR9        36.7850   71.4840  199.4100 Br      1  TBR1        0.0000
     16 BRA        35.6060   70.0940  196.1980 Br      1  TBR1        0.0000
     17 BRB        37.9750   65.4080  199.5040 Br      1  TBR1        0.0000
     18 BRC        39.6130   69.9740  201.1420 Br      1  TBR1        0.0000
@<TRIPOS>BOND
     1    12     3    1
     2     8     1    1
     3     3    16    1
     4     3    11    1
     5     3     5    1
     6     3     4    1
     7     9     5    1
     8     5    13    1
     9     5     4    1
    10     1     7    1
    11     1     2    1
    12     1     6    1
    13     4    14    1
    14     2    15    1
    15     2     6    1
    16     2    18    1
    17    17     6    1
    18    10     6    1
