@<TRIPOS>MOLECULE
3otu_J30_A_1.pdb
 23 25 0 0 0
SMALL
GASTEIGER

@<TRIPOS>ATOM
      1  SD        -6.7450  -13.6400  -10.9010 S.3     1  J301       -0.0821
      2  CE        -5.3310  -14.3460  -10.1180 C.3     1  J301        0.0692
      3  CH        -3.6870  -13.7650  -11.9750 C.3     1  J301        0.0862
      4  CZ        -4.0790  -13.5700  -10.5110 C.3     1  J301        0.0221
      5  C12       -2.3330  -13.1210  -12.1820 C.2     1  J301        0.2257
      6  O13       -1.8100  -12.4860  -11.2780 O.2     1  J301       -0.2749
      7  N14       -1.7410  -13.2670  -13.3630 N.am    1  J301       -0.2767
      8  C15       -0.4320  -12.6640  -13.5870 C.3     1  J301        0.1107
      9  C16       -0.3850  -12.2000  -15.0370 C.3     1  J301        0.0942
     10  C17        0.2600  -13.4270  -17.1090 C.3     1  J301        0.0992
     11  N17       -0.4540  -13.4070  -15.8380 N.3     1  J301       -0.2660
     12  C18       -1.2410  -14.5500  -15.3800 C.3     1  J301        0.0942
     13  C19       -2.3440  -14.0190  -14.4620 C.3     1  J301        0.1107
     14  C40       -0.4090  -14.3640  -18.0850 C.ar    1  J301       -0.0061
     15  C41        0.0090  -15.6810  -18.1540 C.ar    1  J301       -0.0027
     16  C42       -0.6000  -16.5550  -19.0440 C.ar    1  J301       -0.0003
     17  C43       -1.6260  -16.1030  -19.8690 C.ar    1  J301       -0.0000
     18  C44       -2.0400  -14.7770  -19.8020 C.ar    1  J301       -0.0003
     19  C45       -1.4300  -13.9080  -18.9070 C.ar    1  J301       -0.0029
     20  C46        1.0380  -16.1210  -17.3240 C.ar    1  J301       -0.0003
     21  C47        1.4590  -17.4440  -17.3860 C.ar    1  J301       -0.0000
     22  C48        0.8490  -18.3220  -18.2760 C.ar    1  J301       -0.0000
     23  C49       -0.1790  -17.8800  -19.1050 C.ar    1  J301       -0.0000
@<TRIPOS>BOND
     1    17    18   ar
     2    17    16   ar
     3    18    19   ar
     4    23    16   ar
     5    23    22   ar
     6    16    15   ar
     7    19    14   ar
     8    22    21   ar
     9    15    14   ar
    10    15    20   ar
    11    14    10    1
    12    21    20   ar
    13    10    11    1
    14    11    12    1
    15    11     9    1
    16    12    13    1
    17     9     8    1
    18    13     7    1
    19     8     7    1
    20     7     5   am
    21     5     3    1
    22     5     6    2
    23     3     4    1
    24     1     2    1
    25     4     2    1
