@<TRIPOS>MOLECULE
3otu_BI4_A_1.pdb
 33 38 0 0 0
SMALL
GASTEIGER

@<TRIPOS>ATOM
      1  O32      -17.1300    0.9280  -11.8050 O.2   360  BI4360     -0.2086
      2  C18      -15.9110    1.0450  -12.1780 C.1   360  BI4360      0.2158
      3  C17      -15.4950    1.5230  -13.5240 C.2   360  BI4360      0.1089
      4  C16      -16.4070    2.0050  -14.6110 C.2   360  BI4360      0.0330
      5  C15      -16.2140    1.8810  -15.9700 C.2   360  BI4360      0.0160
      6  C14      -15.2080    1.3200  -16.7370 C.2   360  BI4360     -0.0199
      7  C13      -15.3130    1.3770  -18.1270 C.3   360  BI4360      0.0521
      8  C12      -16.4170    1.9880  -18.7160 C.2   360  BI4360     -0.0199
      9  C10      -17.3180    2.5060  -16.5430 C.2   360  BI4360      0.0808
     10  C11      -17.4180    2.5580  -17.9350 C.2   360  BI4360      0.0149
     11  N9       -18.1310    2.9650  -15.5430 N.2   360  BI4360     -0.2438
     12  C8       -17.5920    2.6630  -14.3210 C.2   360  BI4360      0.0996
     13  N19      -14.8820    0.6720  -11.3710 N.2   360  BI4360     -0.2576
     14  C20      -13.7600    0.9120  -12.1010 C.1   360  BI4360      0.2158
     15  O33      -12.5920    0.6920  -11.6100 O.2   360  BI4360     -0.2086
     16  C21      -14.0250    1.4390  -13.4780 C.2   360  BI4360      0.1088
     17  C22      -12.9940    1.8510  -14.4870 C.ar  360  BI4360      0.0313
     18  C7       -13.1470    2.9360  -15.3290 C.ar  360  BI4360      0.0766
     19  C23      -11.7340    1.3000  -14.6230 C.ar  360  BI4360      0.0180
     20  C5       -11.1300    2.0520  -15.6170 C.ar  360  BI4360      0.0599
     21  C4        -9.8420    1.7180  -16.0220 C.ar  360  BI4360      0.0172
     22  C3        -9.1850    0.6520  -15.4250 C.ar  360  BI4360      0.0015
     23  C2        -9.8080   -0.0920  -14.4190 C.ar  360  BI4360      0.0001
     24  C1       -11.1040    0.2300  -14.0100 C.ar  360  BI4360      0.0015
     25  N6       -11.9920    3.0150  -16.0260 N.ar  360  BI4360     -0.3260
     26  C24      -11.7120    3.9920  -17.0830 C.3   360  BI4360      0.1075
     27  C25      -12.6110    3.5410  -18.2360 C.3   360  BI4360      0.0404
     28  C26      -12.0870    3.7220  -19.6580 C.3   360  BI4360      0.0595
     29  C27      -12.7000    4.9920  -20.2280 C.3   360  BI4360      0.0175
     30  C28      -14.0230    4.6220  -20.8910 C.3   360  BI4360      0.0187
     31  C29      -14.1490    3.1030  -20.8190 C.3   360  BI4360      0.0721
     32  N30      -12.7910    2.7080  -20.4450 N.3   360  BI4360     -0.2727
     33  C31      -12.2120    1.4240  -20.8250 C.3   360  BI4360      0.0896
@<TRIPOS>BOND
     1    30    31    1
     2    30    29    1
     3    33    32    1
     4    31    32    1
     5    32    28    1
     6    29    28    1
     7    28    27    1
     8     8     7    1
     9     8    10    2
    10    27    26    1
    11     7     6    1
    12    10     9    1
    13    26    25    1
    14     6     5    2
    15     9     5    1
    16     9    11    2
    17    25    20   ar
    18    25    18   ar
    19    21    20   ar
    20    21    22   ar
    21     5     4    1
    22    20    19   ar
    23    11    12    1
    24    22    23   ar
    25    18    17   ar
    26    19    17   ar
    27    19    24   ar
    28     4    12    2
    29     4     3    1
    30    17    16    1
    31    23    24   ar
    32     3    16    2
    33     3     2    1
    34    16    14    1
    35     2     1    2
    36     2    13    2
    37    14    15    2
    38    14    13    2
