@<TRIPOS>MOLECULE
3otw_COA_A_1.pdb
 48 50 0 0 0
SMALL
GASTEIGER

@<TRIPOS>ATOM
      1  N1A      -17.3110   -8.1720  -13.0520 N.2   159  COA159      0.0021
      2  C2A      -17.8570   -8.9650  -12.0570 C.3   159  COA159      0.5254
      3  N3A      -19.1730   -9.3370  -12.1360 N.2   159  COA159     -0.0055
      4  C4A      -20.0000   -8.9260  -13.1390 C.2   159  COA159      0.3518
      5  C5A      -19.4620   -8.1000  -14.1460 C.2   159  COA159      0.2526
      6  C6A      -18.1050   -7.7270  -14.1090 C.2   159  COA159      0.4393
      7  N6A      -17.6540   -6.7130  -14.8550 N.pl3 159  COA159      0.2180
      8  N7A      -20.4690   -7.8160  -15.0010 N.2   159  COA159     -0.2095
      9  C8A      -21.5860   -8.4490  -14.5230 C.3   159  COA159      0.3377
     10  N9A      -21.3470   -9.1850  -13.3710 N.pl3 159  COA159     -0.1439
     11  C1B      -21.9290  -10.5650  -13.2330 C.3   159  COA159      0.3185
     12  C2B      -22.6860  -10.9040  -11.9460 C.3   159  COA159      0.2543
     13  O2B      -22.7650  -12.3470  -11.6120 O.3   159  COA159     -0.2131
     14  C3B      -23.9580  -10.3130  -12.5370 C.3   159  COA159      0.1928
     15  O3B      -25.0770  -10.1130  -11.7330 O.3   159  COA159     -0.2673
     16  P3B      -25.9340  -11.1850  -10.9000 P.3   159  COA159      0.5327
     17  O7A      -26.2590  -10.4050   -9.6420 O.3   159  COA159     -0.1145
     18  O8A      -27.1830  -11.4040  -11.7190 O.2   159  COA159     -0.2224
     19  O9A      -25.2160  -12.4850  -10.6450 O.3   159  COA159     -0.1145
     20  C4B      -24.1360  -11.0980  -13.8150 C.3   159  COA159      0.1795
     21  O4B      -22.8580  -10.7640  -14.3190 O.3   159  COA159     -0.3136
     22  C5B      -25.3530  -10.7210  -14.6730 C.3   159  COA159      0.1812
     23  O5B      -25.1190   -9.7260  -15.6610 O.3   159  COA159     -0.3112
     24  P1A      -26.3640   -8.9220  -16.3750 P.3   159  COA159      0.2189
     25  O1A      -27.7280   -9.2580  -15.8030 O.3   159  COA159     -0.4371
     26  O2A      -26.4310   -9.0440  -17.8730 O.2   159  COA159     -0.5170
     27  O3A      -26.0100   -7.4580  -15.8880 O.3   159  COA159     -0.2703
     28  P2A      -26.8830   -6.9580  -14.6630 P.3   159  COA159      0.2188
     29  O4A      -25.8970   -6.4720  -13.6560 O.3   159  COA159     -0.4371
     30  O5A      -27.8900   -7.8160  -13.9680 O.2   159  COA159     -0.5170
     31  O6A      -27.6970   -5.8140  -15.4800 O.3   159  COA159     -0.3138
     32  CBP      -29.5630   -4.7260  -16.3820 C.3   159  COA159      0.0645
     33  CCP      -28.8420   -6.0890  -16.2460 C.3   159  COA159      0.1519
     34  CDP      -28.6700   -3.7900  -17.2300 C.3   159  COA159      0.0056
     35  CEP      -29.7350   -4.0820  -14.9920 C.3   159  COA159      0.0056
     36  CAP      -30.9180   -5.0090  -17.0390 C.3   159  COA159      0.2312
     37  OAP      -31.6460   -6.0190  -16.3670 O.3   159  COA159     -0.2131
     38  C9P      -31.7870   -3.7900  -17.1010 C.2   159  COA159      0.2719
     39  O9P      -31.5580   -2.8510  -18.0540 O.2   159  COA159     -0.2706
     40  N8P      -32.7690   -3.6370  -16.2060 N.am  159  COA159     -0.2028
     41  C7P      -33.6370   -2.4740  -16.2440 C.3   159  COA159      0.1248
     42  C6P      -35.0050   -2.8390  -16.7730 C.3   159  COA159      0.1102
     43  C5P      -34.9670   -2.8780  -18.2800 C.2   159  COA159      0.2432
     44  O5P      -34.7280   -1.8700  -18.9400 O.2   159  COA159     -0.2733
     45  N4P      -35.1450   -4.0810  -18.7920 N.am  159  COA159     -0.2044
     46  C3P      -35.1950   -4.3000  -20.2300 C.3   159  COA159      0.1276
     47  C2P      -33.7770   -4.3030  -20.7780 C.3   159  COA159      0.0920
     48  S1P      -33.9090   -4.7480  -22.5270 S.3   159  COA159     -0.0802
@<TRIPOS>BOND
     1    48    47    1
     2    47    46    1
     3    46    45    1
     4    44    43    2
     5    45    43   am
     6    43    42    1
     7    39    38    2
     8    26    24    2
     9    34    32    1
    10    38    36    1
    11    38    40   am
    12    36    32    1
    13    36    37    1
    14    42    41    1
    15    32    33    1
    16    32    35    1
    17    24    27    1
    18    24    25    1
    19    24    23    1
    20    33    31    1
    21    41    40    1
    22    27    28    1
    23    23    22    1
    24    31    28    1
    25     8     9    1
    26     8     5    2
    27     7     6    1
    28    22    20    1
    29    28    30    2
    30    28    29    1
    31     9    10    1
    32    21    20    1
    33    21    11    1
    34     5     6    1
    35     5     4    1
    36     6     1    2
    37    20    14    1
    38    10    11    1
    39    10     4    1
    40    11    12    1
    41     4     3    2
    42     1     2    1
    43    14    12    1
    44    14    15    1
    45     3     2    1
    46    12    13    1
    47    15    16    1
    48    18    16    2
    49    16    19    1
    50    16    17    1
