@<TRIPOS>MOLECULE
3ou2_SAH_A_1.pdb
 26 28 0 0 0
SMALL
GASTEIGER

@<TRIPOS>ATOM
      1  N         52.8670   33.3130  -11.2060 N.3   300  SAH300     -0.1208
      2  CA        52.0320   32.2630  -11.7790 C.3   300  SAH300      0.1952
      3  CB        51.0980   31.6510  -10.7220 C.3   300  SAH300      0.0422
      4  CG        50.1210   32.6410  -10.0670 C.3   300  SAH300      0.0597
      5  SD        48.8080   31.7880   -9.2280 S.3   300  SAH300     -0.1375
      6  C         51.2520   32.7980  -12.9500 C.2   300  SAH300      0.3819
      7  O         50.7450   31.9670  -13.7310 O.co2 300  SAH300     -0.2441
      8  OXT       51.1380   34.0370  -13.0990 O.co2 300  SAH300     -0.2441
      9  C5'       49.2950   31.8750   -7.5250 C.3   300  SAH300      0.0899
     10  C4'       50.5460   31.0690   -7.1690 C.3   300  SAH300      0.1630
     11  O4'       50.9110   31.3960   -5.8260 O.3   300  SAH300     -0.3153
     12  C3'       50.2850   29.5630   -7.1930 C.3   300  SAH300      0.2168
     13  O3'       51.2760   28.8790   -7.9740 O.3   300  SAH300     -0.2175
     14  C2'       50.3500   29.1610   -5.7280 C.3   300  SAH300      0.2569
     15  O2'       50.8360   27.8400   -5.5000 O.3   300  SAH300     -0.2130
     16  C1'       51.2860   30.1910   -5.1420 C.3   300  SAH300      0.3185
     17  N9        51.0990   30.4060   -3.6940 N.pl3 300  SAH300     -0.1439
     18  C8        49.9550   30.6140   -3.0310 C.3   300  SAH300      0.3377
     19  N7        50.2290   30.7960   -1.7200 N.2   300  SAH300     -0.2095
     20  C5        51.5670   30.7110   -1.5680 C.2   300  SAH300      0.2526
     21  C6        52.4250   30.8070   -0.4750 C.2   300  SAH300      0.4393
     22  N6        51.9610   31.0490    0.7700 N.pl3 300  SAH300      0.2180
     23  N1        53.7490   30.6700   -0.6890 N.2   300  SAH300      0.0021
     24  C2        54.2300   30.4260   -1.9130 C.3   300  SAH300      0.5254
     25  N3        53.4360   30.3240   -2.9870 N.2   300  SAH300     -0.0055
     26  C4        52.1030   30.4640   -2.8200 C.2   300  SAH300      0.3518
@<TRIPOS>BOND
     1     7     6   ar
     2     8     6   ar
     3     6     2    1
     4     2     1    1
     5     2     3    1
     6     3     4    1
     7     4     5    1
     8     5     9    1
     9    13    12    1
    10     9    10    1
    11    12    10    1
    12    12    14    1
    13    10    11    1
    14    11    16    1
    15    14    15    1
    16    14    16    1
    17    16    17    1
    18    17    18    1
    19    17    26    1
    20    18    19    1
    21    25    26    2
    22    25    24    1
    23    26    20    1
    24    24    23    1
    25    19    20    2
    26    20    21    1
    27    23    21    2
    28    21    22    1
