@<TRIPOS>MOLECULE
3ou6_SAM_A_1.pdb
 27 29 0 0 0
SMALL
GASTEIGER

@<TRIPOS>ATOM
      1  N        -20.8030   52.6580   10.2200 N.3   300  SAM300     -0.1208
      2  CA       -21.4510   53.6650    9.4160 C.3   300  SAM300      0.1952
      3  C        -22.8990   53.3260    9.3830 C.2   300  SAM300      0.3819
      4  O        -23.1880   52.2280    8.8910 O.co2 300  SAM300     -0.2441
      5  OXT      -23.7320   54.1270    9.8320 O.co2 300  SAM300     -0.2441
      6  CB       -20.9530   53.6440    7.9930 C.3   300  SAM300      0.0414
      7  CG       -20.0890   54.8530    7.6580 C.3   300  SAM300      0.0503
      8  SD       -20.7380   55.5930    6.1560 S.3   300  SAM300     -0.1761
      9  CE       -20.8000   57.3790    6.4020 C.3   300  SAM300      0.0590
     10  C5'      -19.6390   55.1130    4.7940 C.3   300  SAM300      0.0806
     11  C4'      -18.9760   53.7400    4.9670 C.3   300  SAM300      0.1622
     12  O4'      -18.9020   53.1150    3.7000 O.3   300  SAM300     -0.3153
     13  C3'      -17.5390   53.8660    5.4740 C.3   300  SAM300      0.2168
     14  O3'      -17.3310   52.9690    6.5530 O.3   300  SAM300     -0.2175
     15  C2'      -16.6740   53.5200    4.2620 C.3   300  SAM300      0.2569
     16  O2'      -15.5320   52.7650    4.6050 O.3   300  SAM300     -0.2130
     17  C1'      -17.5940   52.6220    3.4540 C.3   300  SAM300      0.3185
     18  N9       -17.2930   52.6640    2.0240 N.pl3 300  SAM300     -0.1439
     19  C8       -17.1180   53.7600    1.2060 C.3   300  SAM300      0.3377
     20  N7       -16.8910   53.3260   -0.0570 N.2   300  SAM300     -0.2095
     21  C5       -16.9040   51.9630   -0.0300 C.2   300  SAM300      0.2526
     22  C6       -16.7130   50.9940   -1.0100 C.2   300  SAM300      0.4393
     23  N6       -16.4620   51.3200   -2.2840 N.pl3 300  SAM300      0.2180
     24  N1       -16.8210   49.6740   -0.6630 N.2   300  SAM300      0.0021
     25  C2       -17.0850   49.2810    0.6250 C.3   300  SAM300      0.5254
     26  N3       -17.2450   50.2300    1.6010 N.2   300  SAM300     -0.0055
     27  C4       -17.1630   51.5460    1.2650 C.2   300  SAM300      0.3518
@<TRIPOS>BOND
     1    23    22    1
     2    22    24    2
     3    22    21    1
     4    24    25    1
     5    20    21    2
     6    20    19    1
     7    21    27    1
     8    25    26    1
     9    19    18    1
    10    27    26    2
    11    27    18    1
    12    18    17    1
    13    17    12    1
    14    17    15    1
    15    12    11    1
    16    15    16    1
    17    15    13    1
    18    10    11    1
    19    10     8    1
    20    11    13    1
    21    13    14    1
    22     8     9    1
    23     8     7    1
    24     7     6    1
    25     6     2    1
    26     4     3   ar
    27     3     2    1
    28     3     5   ar
    29     2     1    1
