@<TRIPOS>MOLECULE
3ou7_SAM_A_1.pdb
 27 29 0 0 0
SMALL
GASTEIGER

@<TRIPOS>ATOM
      1  N         20.7330  -53.1340    8.4450 N.3   300  SAM300     -0.1208
      2  CA        21.0760  -54.5000    8.7520 C.3   300  SAM300      0.1952
      3  C         22.1360  -54.1300    9.7510 C.2   300  SAM300      0.3819
      4  O         22.5830  -53.0040    9.4810 O.co2 300  SAM300     -0.2441
      5  OXT       22.4880  -54.8230   10.7290 O.co2 300  SAM300     -0.2441
      6  CB        21.7130  -55.1720    7.5260 C.3   300  SAM300      0.0414
      7  CG        20.8670  -56.0240    6.5470 C.3   300  SAM300      0.0503
      8  SD        20.8380  -55.2600    4.8770 S.3   300  SAM300     -0.1761
      9  CE        21.3370  -56.6790    3.8730 C.3   300  SAM300      0.0590
     10  C5'       19.0740  -55.4570    4.9550 C.3   300  SAM300      0.0806
     11  C4'       18.6060  -54.0590    5.0770 C.3   300  SAM300      0.1622
     12  O4'       18.6090  -53.6270    3.7310 O.3   300  SAM300     -0.3153
     13  C3'       17.1980  -54.1440    5.5760 C.3   300  SAM300      0.2168
     14  O3'       17.1040  -53.1320    6.5520 O.3   300  SAM300     -0.2175
     15  C2'       16.4060  -53.9390    4.2780 C.3   300  SAM300      0.2569
     16  O2'       15.2960  -53.1600    4.4950 O.3   300  SAM300     -0.2130
     17  C1'       17.3490  -53.0510    3.4530 C.3   300  SAM300      0.3185
     18  N9        17.0420  -53.0150    1.9950 N.pl3 300  SAM300     -0.1439
     19  C8        16.7990  -54.0570    1.1360 C.3   300  SAM300      0.3377
     20  N7        16.5880  -53.5610   -0.1160 N.2   300  SAM300     -0.2095
     21  C5        16.6530  -52.2190   -0.0240 C.2   300  SAM300      0.2526
     22  C6        16.4870  -51.2280   -0.9670 C.2   300  SAM300      0.4393
     23  N6        16.2380  -51.4830   -2.2520 N.pl3 300  SAM300      0.2180
     24  N1        16.6950  -49.9590   -0.5720 N.2   300  SAM300      0.0021
     25  C2        16.9840  -49.6420    0.7310 C.3   300  SAM300      0.5254
     26  N3        17.1020  -50.6180    1.6790 N.2   300  SAM300     -0.0055
     27  C4        16.9690  -51.8850    1.2730 C.2   300  SAM300      0.3518
@<TRIPOS>BOND
     1    23    22    1
     2    22    24    2
     3    22    21    1
     4    24    25    1
     5    20    21    2
     6    20    19    1
     7    21    27    1
     8    25    26    1
     9    19    18    1
    10    27    26    2
    11    27    18    1
    12    18    17    1
    13    17    12    1
    14    17    15    1
    15    12    11    1
    16     9     8    1
    17    15    16    1
    18    15    13    1
    19     8    10    1
    20     8     7    1
    21    10    11    1
    22    11    13    1
    23    13    14    1
    24     7     6    1
    25     6     2    1
    26     1     2    1
    27     2     3    1
    28     4     3   ar
    29     3     5   ar
