@<TRIPOS>MOLECULE
3oue_HEM_A_1.pdb
 43 50 0 0 0
SMALL
GASTEIGER

@<TRIPOS>ATOM
      1  CHA        5.8160   -2.1660   -3.1480 C.2   607  HEM607      0.0000
      2  CHB        4.9470   -6.5080   -5.1560 C.2   607  HEM607      0.0000
      3  CHC        3.8390   -8.3500   -0.7960 C.2   607  HEM607      0.0000
      4  CHD        4.0380   -3.8630    1.0360 C.2   607  HEM607      0.0000
      5  C1A        5.6970   -3.2340   -4.0690 C.ar  607  HEM607      0.0000
      6  C2A        6.0510   -3.1450   -5.4700 C.ar  607  HEM607      0.0000
      7  C3A        5.7140   -4.3120   -6.0440 C.ar  607  HEM607      0.0000
      8  C4A        5.2010   -5.1560   -4.9890 C.ar  607  HEM607      0.0000
      9  CMA        5.8820   -4.6080   -7.5320 C.3   607  HEM607      0.0000
     10  CAA        6.6440   -1.9310   -6.1750 C.3   607  HEM607      0.0000
     11  CBA        5.5720   -1.2740   -7.0290 C.3   607  HEM607      0.0000
     12  CGA        5.8150    0.2090   -7.2420 C.2   607  HEM607      0.0000
     13  O1A        5.7520    0.9640   -6.2470 O.co2 607  HEM607      0.0000
     14  O2A        6.0710    0.6200   -8.3980 O.co2 607  HEM607      0.0000
     15  C1B        4.6540   -7.3920   -4.1210 C.2   607  HEM607      0.0000
     16  C2B        4.4110   -8.8170   -4.3090 C.2   607  HEM607      0.0000
     17  C3B        4.1480   -9.3420   -3.0740 C.2   607  HEM607      0.0000
     18  C4B        4.2130   -8.2370   -2.1410 C.2   607  HEM607      0.0000
     19  CMB        4.4630   -9.5940   -5.6400 C.3   607  HEM607      0.0000
     20  CAB        3.9250  -10.8130   -2.7110 C.3   607  HEM607      0.0000
     21  CBB        5.1380  -11.6580   -3.0690 C.3   607  HEM607      0.0000
     22  C1C        3.7650   -7.2640    0.0590 C.ar  607  HEM607      0.0000
     23  C2C        3.3040   -7.3590    1.4350 C.ar  607  HEM607      0.0000
     24  C3C        3.3340   -6.0840    1.9290 C.ar  607  HEM607      0.0000
     25  C4C        3.8500   -5.2310    0.8780 C.ar  607  HEM607      0.0000
     26  CMC        2.8910   -8.6610    2.1560 C.3   607  HEM607      0.0000
     27  CAC        2.7210   -5.5510    3.2430 C.3   607  HEM607      0.0000
     28  CBC        3.2700   -6.2290    4.4850 C.3   607  HEM607      0.0000
     29  C1D        4.5890   -3.0410    0.0660 C.2   607  HEM607      0.0000
     30  C2D        4.9890   -1.6720    0.3090 C.2   607  HEM607      0.0000
     31  C3D        5.4990   -1.1820   -0.8520 C.2   607  HEM607      0.0000
     32  C4D        5.4470   -2.2670   -1.8100 C.2   607  HEM607      0.0000
     33  CMD        4.9700   -0.9230    1.6530 C.3   607  HEM607      0.0000
     34  CAD        6.0010    0.2520   -1.0500 C.3   607  HEM607      0.0000
     35  CBD        4.8940    1.1200   -1.6460 C.3   607  HEM607      0.0000
     36  CGD        5.3070    2.5740   -1.8050 C.2   607  HEM607      0.0000
     37  O1D        6.3790    2.8410   -2.3940 O.co2 607  HEM607      0.0000
     38  O2D        4.5530    3.4540   -1.3390 O.co2 607  HEM607      0.0000
     39  NA         5.2100   -4.4990   -3.7690 N.ar  607  HEM607      0.0000
     40  NB         4.5420   -7.0300   -2.7840 N.2   607  HEM607      0.0000
     41  NC         4.0960   -5.9510   -0.2870 N.ar  607  HEM607      0.0000
     42  ND         4.9270   -3.4470   -1.2130 N.2   607  HEM607      0.0000
     43 FE          4.7360   -5.2410   -2.0100 Fe    607  HEM607      0.0000
@<TRIPOS>BOND
     1    14    12   ar
     2     9     7    1
     3    12    11    1
     4    12    13   ar
     5    11    10    1
     6    10     6    1
     7     7     6   ar
     8     7     8   ar
     9    19    16    1
    10     6     5   ar
    11     2     8    2
    12     2    15    1
    13     8    39   ar
    14    16    15    1
    15    16    17    2
    16    15    40    2
    17     5    39   ar
    18     5     1    2
    19    39    43    1
    20     1    32    1
    21    17    20    1
    22    17    18    1
    23    21    20    1
    24    40    18    1
    25    40    43    1
    26    37    36   ar
    27    18     3    2
    28    43    42    1
    29    43    41    1
    30    32    42    2
    31    32    31    1
    32    36    35    1
    33    36    38   ar
    34    35    34    1
    35    42    29    1
    36    34    31    1
    37    31    30    2
    38     3    22    1
    39    41    22   ar
    40    41    25   ar
    41    22    23   ar
    42    29    30    1
    43    29     4    2
    44    30    33    1
    45    25     4    1
    46    25    24   ar
    47    23    24   ar
    48    23    26    1
    49    24    27    1
    50    27    28    1
