@<TRIPOS>MOLECULE
3ouh_014_A_1.pdb
 19 21 0 0 0
SMALL
GASTEIGER

@<TRIPOS>ATOM
      1  F         44.7850   23.7520    3.5830 F     417  014417     -0.2079
      2 CL         45.8300   21.8910    1.9010 Cl    417  014417     -0.0845
      3  C1        36.5810   17.4900    4.3380 C.2   417  014417      0.3909
      4  N1        38.6490   20.2010    5.7740 N.ar  417  014417     -0.1527
      5  O1        35.4490   17.4850    4.9480 O.co2 417  014417     -0.2404
      6  C2        37.6330   18.4570    4.7430 C.ar  417  014417      0.1206
      7  N2        39.4710   19.5230    4.8950 N.ar  417  014417     -0.1498
      8  O2        36.8330   16.7780    3.3160 O.co2 417  014417     -0.2404
      9  C3        37.5050   19.4690    5.7010 C.ar  417  014417      0.1295
     10  N3        40.8560   21.2810    4.9400 N.2   417  014417     -0.3266
     11  C4        38.8920   18.5630    4.2060 C.ar  417  014417      0.1219
     12  N4        41.4230   19.5050    3.6370 N.2   417  014417     -0.3267
     13  C5        40.6210   20.0150    4.5810 C.1   417  014417      0.2361
     14  C6        42.0200   21.5290    4.2910 C.2   417  014417      0.1560
     15  C7        42.8320   22.6360    4.3220 C.3   417  014417      0.1193
     16  C8        43.9650   22.6790    3.5770 C.2   417  014417      0.1317
     17  C10       44.3050   21.6270    2.8040 C.2   417  014417      0.0662
     18  C11       43.5260   20.4790    2.7410 C.3   417  014417      0.1022
     19  C12       42.3690   20.4370    3.4860 C.2   417  014417      0.1546
@<TRIPOS>BOND
     1     2    17    1
     2    18    17    1
     3    18    19    1
     4    17    16    2
     5     8     3   ar
     6    19    12    2
     7    19    14    1
     8    16     1    1
     9    16    15    1
    10    12    13    2
    11    11     6   ar
    12    11     7   ar
    13    14    15    1
    14    14    10    2
    15     3     6    1
    16     3     5   ar
    17    13     7    1
    18    13    10    2
    19     6     9   ar
    20     7     4   ar
    21     9     4   ar
