@<TRIPOS>MOLECULE
3oui_42Z_A_1.pdb
 18 19 0 0 0
SMALL
GASTEIGER

@<TRIPOS>ATOM
      1  C1        14.3860   -7.6370   -7.2240 C.ar  393  42Z393      0.0479
      2  C2        13.2930   -7.5520   -8.0600 C.ar  393  42Z393      0.1751
      3  C3        11.9710   -8.0550   -7.6700 C.ar  393  42Z393      0.1751
      4 CL3        15.6890   -8.2880   -4.9220 Cl    393  42Z393     -0.0813
      5  C4        11.8200   -8.6320   -6.4160 C.ar  393  42Z393      0.0479
      6 CL4        12.6830   -9.4830   -3.9640 Cl    393  42Z393     -0.0813
      7  C5        12.9110   -8.7140   -5.5760 C.ar  393  42Z393      0.0709
      8  C6        14.2330   -8.1990   -5.9740 C.ar  393  42Z393      0.0709
      9  N13       11.1380   -7.8390   -8.6790 N.2   393  42Z393     -0.3337
     10  C14       11.8620   -7.2320   -9.6460 C.1   393  42Z393      0.1960
     11  N15       13.1500   -7.0720   -9.3060 N.2   393  42Z393     -0.3337
     12  C24       11.4180   -6.8130  -10.9730 C.2   393  42Z393      0.3510
     13  N26       10.3050   -7.2660  -11.5110 N.am  393  42Z393     -0.1791
     14  C28        8.8010   -7.5560  -13.4130 C.2   393  42Z393      0.3866
     15  O30        7.9660   -7.9420  -12.6380 O.co2 393  42Z393     -0.2437
     16  O32        8.5300   -7.4620  -14.6980 O.co2 393  42Z393     -0.2437
     17  O34       12.2230   -6.1250  -11.5620 O.2   393  42Z393     -0.2548
     18  C43       10.1530   -7.1250  -12.9390 C.3   393  42Z393      0.2295
@<TRIPOS>BOND
     1    16    14   ar
     2    14    18    1
     3    14    15   ar
     4    18    13    1
     5    17    12    2
     6    13    12   am
     7    12    10    1
     8    10    11    2
     9    10     9    2
    10    11     2    2
    11     9     3    2
    12     2     3   ar
    13     2     1   ar
    14     3     5   ar
    15     1     8   ar
    16     5     7   ar
    17     8     7   ar
    18     8     4    1
    19     7     6    1
