@<TRIPOS>MOLECULE
3ouj_AKG_A_1.pdb
 10 9 0 0 0
SMALL
GASTEIGER

@<TRIPOS>ATOM
      1  C1        14.2120   24.7980   -5.4660 C.2   417  AKG417      0.4219
      2  O1        13.6390   24.3690   -6.5140 O.co2 417  AKG417     -0.2373
      3  O2        15.0900   24.1210   -4.8870 O.co2 417  AKG417     -0.2373
      4  C2        13.8490   26.1120   -4.8990 C.2   417  AKG417      0.2526
      5  O5        13.1970   26.9100   -5.5590 O.2   417  AKG417     -0.2843
      6  C3        14.2630   26.4810   -3.4840 C.3   417  AKG417      0.0881
      7  C4        13.2770   27.5000   -2.9140 C.3   417  AKG417      0.1224
      8  C5        13.6190   27.9000   -1.4970 C.2   417  AKG417      0.3653
      9  O3        14.4110   27.2000   -0.8280 O.co2 417  AKG417     -0.2456
     10  O4        13.0820   28.9310   -1.0380 O.co2 417  AKG417     -0.2456
@<TRIPOS>BOND
     1     2     1   ar
     2     5     4    2
     3     1     4    1
     4     1     3   ar
     5     4     6    1
     6     6     7    1
     7     7     8    1
     8     8    10   ar
     9     8     9   ar
