@<TRIPOS>MOLECULE
3oum_TOF_A_1.pdb
 14 15 0 0 0
SMALL
GASTEIGER

@<TRIPOS>ATOM
      1  C1      -203.2620  126.6980   22.4090 C.2   234  TOF234      0.2843
      2  O1      -203.5160  125.4910   22.3840 O.2   234  TOF234     -0.2671
      3  C2      -204.3020  127.7220   22.0480 C.2   234  TOF234      0.1837
      4  O2      -200.5940  129.0290   23.1550 O.2   234  TOF234     -0.1925
      5  N3      -205.5040  127.3280   21.6900 N.2   234  TOF234     -0.2140
      6  C4      -206.4620  128.3100   21.3570 C.2   234  TOF234      0.2174
      7  N5      -206.2660  129.6050   21.3700 N.2   234  TOF234     -0.1531
      8  N6      -204.9800  130.0280   21.7480 N.pl3 234  TOF234     -0.1794
      9  C7      -203.9300  129.1710   22.1060 C.2   234  TOF234      0.2387
     10  N8      -202.6940  129.5250   22.4790 N.2   234  TOF234     -0.3021
     11  C9      -201.7050  128.6070   22.8200 C.1   234  TOF234      0.2761
     12  N10     -201.9970  127.2140   22.7910 N.am  234  TOF234     -0.1695
     13  C11     -204.7090  131.4870   21.7800 C.3   234  TOF234      0.1427
     14  C12     -200.9380  126.2470   23.1560 C.3   234  TOF234      0.1348
@<TRIPOS>BOND
     1     6     7    2
     2     6     5    1
     3     7     8    1
     4     5     3    2
     5     8    13    1
     6     8     9    1
     7     3     9    1
     8     3     1    1
     9     9    10    2
    10     2     1    2
    11     1    12   am
    12    10    11    2
    13    12    11   am
    14    12    14    1
    15    11     4    2
