@<TRIPOS>MOLECULE
3ouq_HEM_A_1.pdb
 43 50 0 0 0
SMALL
GASTEIGER

@<TRIPOS>ATOM
      1  CHA       16.6900   25.4040   70.3760 C.2   601  HEM601      0.0000
      2  CHB       17.0380   26.5480   75.0770 C.2   601  HEM601      0.0000
      3  CHC       17.6660   31.2150   73.8830 C.2   601  HEM601      0.0000
      4  CHD       16.8690   30.1210   69.2370 C.2   601  HEM601      0.0000
      5  C1A       16.7070   25.3170   71.7740 C.2   601  HEM601      0.0000
      6  C2A       16.6410   24.0940   72.5240 C.2   601  HEM601      0.0000
      7  C3A       16.7380   24.3940   73.8380 C.2   601  HEM601      0.0000
      8  C4A       16.8700   25.8410   73.9020 C.2   601  HEM601      0.0000
      9  CMA       16.8030   23.3960   74.9970 C.3   601  HEM601      0.0000
     10  CAA       16.6120   22.7240   71.9150 C.3   601  HEM601      0.0000
     11  CBA       17.9960   22.1850   71.6770 C.3   601  HEM601      0.0000
     12  CGA       17.9750   21.0100   70.7340 C.2   601  HEM601      0.0000
     13  O1A       17.2300   20.0490   71.0040 O.co2 601  HEM601      0.0000
     14  O2A       18.6970   21.0470   69.7180 O.co2 601  HEM601      0.0000
     15  C1B       17.2400   27.9270   75.1450 C.ar  601  HEM601      0.0000
     16  C2B       17.4310   28.6570   76.3790 C.ar  601  HEM601      0.0000
     17  C3B       17.6980   29.9650   76.0680 C.ar  601  HEM601      0.0000
     18  C4B       17.5560   30.0460   74.6180 C.ar  601  HEM601      0.0000
     19  CMB       17.2170   28.0890   77.7700 C.3   601  HEM601      0.0000
     20  CAB       18.1350   31.0950   77.0270 C.3   601  HEM601      0.0000
     21  CBB       19.1950   30.7400   78.0660 C.3   601  HEM601      0.0000
     22  C1C       17.5450   31.3000   72.4900 C.2   601  HEM601      0.0000
     23  C2C       17.5690   32.5290   71.7470 C.2   601  HEM601      0.0000
     24  C3C       17.3500   32.2160   70.4720 C.2   601  HEM601      0.0000
     25  C4C       17.1860   30.8000   70.4010 C.2   601  HEM601      0.0000
     26  CMC       17.7520   33.9230   72.2950 C.3   601  HEM601      0.0000
     27  CAC       17.2010   33.1750   69.3080 C.3   601  HEM601      0.0000
     28  CBC       18.4750   33.8830   68.9280 C.3   601  HEM601      0.0000
     29  C1D       16.7220   28.7480   69.1610 C.ar  601  HEM601      0.0000
     30  C2D       16.6960   28.0440   67.8920 C.ar  601  HEM601      0.0000
     31  C3D       16.6950   26.7240   68.2120 C.ar  601  HEM601      0.0000
     32  C4D       16.7370   26.6040   69.6610 C.ar  601  HEM601      0.0000
     33  CMD       16.8240   28.6370   66.4900 C.3   601  HEM601      0.0000
     34  CAD       16.5960   25.6320   67.1730 C.3   601  HEM601      0.0000
     35  CBD       15.1800   25.1220   67.2150 C.3   601  HEM601      0.0000
     36  CGD       14.7950   24.4110   65.9500 C.2   601  HEM601      0.0000
     37  O1D       15.5600   23.5210   65.5140 O.co2 601  HEM601      0.0000
     38  O2D       13.7220   24.7420   65.3960 O.co2 601  HEM601      0.0000
     39  NA        16.8570   26.4030   72.6340 N.2   601  HEM601      0.0000
     40  NB        17.2930   28.7960   74.0530 N.ar  601  HEM601      0.0000
     41  NC        17.3000   30.2210   71.6460 N.2   601  HEM601      0.0000
     42  ND        16.7910   27.8670   70.2380 N.ar  601  HEM601      0.0000
     43 FE         17.0120   28.3210   72.1330 Fe    601  HEM601      0.0000
@<TRIPOS>BOND
     1    38    36   ar
     2    37    36   ar
     3    36    35    1
     4    33    30    1
     5    34    35    1
     6    34    31    1
     7    30    31   ar
     8    30    29   ar
     9    31    32   ar
    10    28    27    1
    11    29     4    2
    12    29    42   ar
    13     4    25    1
    14    27    24    1
    15    32    42   ar
    16    32     1    2
    17    14    12   ar
    18    42    43    1
    19     1     5    1
    20    25    24    1
    21    25    41    2
    22    24    23    2
    23    12    13   ar
    24    12    11    1
    25    41    43    1
    26    41    22    1
    27    11    10    1
    28    23    26    1
    29    23    22    1
    30     5     6    1
    31     5    39    2
    32    10     6    1
    33    43    39    1
    34    43    40    1
    35    22     3    2
    36     6     7    2
    37    39     8    1
    38     7     8    1
    39     7     9    1
    40     3    18    1
    41     8     2    2
    42    40    18   ar
    43    40    15   ar
    44    18    17   ar
    45     2    15    1
    46    15    16   ar
    47    17    16   ar
    48    17    20    1
    49    16    19    1
    50    20    21    1
