@<TRIPOS>MOLECULE
3out_DGL_A_1.pdb
 10 9 0 0 0
SMALL
GASTEIGER

@<TRIPOS>ATOM
      1  N         43.3430   87.7540   67.8780 N.3   266  DGL266     -0.1208
      2  CA        41.8760   87.6510   67.5930 C.3   266  DGL266      0.1949
      3  C         41.3820   86.3390   68.1910 C.2   266  DGL266      0.3819
      4  O         42.0680   85.7510   69.0620 O.co2 266  DGL266     -0.2441
      5  CB        41.0260   88.7600   68.1930 C.3   266  DGL266      0.0424
      6  CG        41.4760   90.1850   67.7800 C.3   266  DGL266      0.1161
      7  CD        40.4850   91.2660   68.1360 C.2   266  DGL266      0.3649
      8  OE1       39.3380   90.9420   68.5670 O.co2 266  DGL266     -0.2457
      9  OE2       40.8450   92.4660   68.0640 O.co2 266  DGL266     -0.2457
     10  OXT       40.2700   85.9030   67.8810 O.co2 266  DGL266     -0.2441
@<TRIPOS>BOND
     1     2     1    1
     2     2     3    1
     3     2     5    1
     4     6     7    1
     5     6     5    1
     6    10     3   ar
     7     9     7   ar
     8     7     8   ar
     9     3     4   ar
