@<TRIPOS>MOLECULE
3ouu_ANP_A_1.pdb
 31 33 0 0 0
SMALL
GASTEIGER

@<TRIPOS>ATOM
      1  PG       -22.5290   13.2600   16.9130 P.3   460  ANP460      0.4884
      2  O1G      -21.4630   13.8540   16.0040 O.2   460  ANP460     -0.2331
      3  O2G      -23.6250   12.6100   16.1300 O.3   460  ANP460     -0.1240
      4  O3G      -21.8050   12.1770   17.8100 O.3   460  ANP460     -0.1240
      5  PB       -23.2040   14.1990   19.5300 P.3   460  ANP460      0.4669
      6  O1B      -21.6610   14.5560   19.6900 O.2   460  ANP460     -0.2351
      7  O2B      -23.7420   12.8670   20.1340 O.3   460  ANP460     -0.1253
      8  N3B      -23.2470   14.4340   17.8790 N.3   460  ANP460     -0.0163
      9  PA       -23.8760   16.9450   19.5040 P.3   460  ANP460      0.2220
     10  O1A      -23.1320   17.0800   18.2350 O.2   460  ANP460     -0.5170
     11  O2A      -23.3890   17.8730   20.5490 O.3   460  ANP460     -0.4370
     12  O3A      -23.8830   15.4940   20.0740 O.3   460  ANP460     -0.2360
     13  O5'      -25.3920   17.3070   19.2000 O.3   460  ANP460     -0.3111
     14  C5'      -26.1770   16.6610   18.1670 C.3   460  ANP460      0.1813
     15  C4'      -27.4950   17.2400   17.8520 C.3   460  ANP460      0.1821
     16  O4'      -28.2390   17.4650   19.0110 O.3   460  ANP460     -0.3135
     17  C3'      -27.2700   18.5890   17.3020 C.3   460  ANP460      0.2184
     18  O3'      -27.0220   18.5200   15.9500 O.3   460  ANP460     -0.2174
     19  C2'      -28.4710   19.2860   17.6310 C.3   460  ANP460      0.2570
     20  O2'      -29.4980   18.8280   16.8300 O.3   460  ANP460     -0.2130
     21  C1'      -28.7590   18.8040   18.9790 C.3   460  ANP460      0.3186
     22  N9       -28.2370   19.6910   20.0210 N.pl3 460  ANP460     -0.1439
     23  C8       -27.0580   19.5980   20.6910 C.3   460  ANP460      0.3377
     24  N7       -26.9650   20.6170   21.5700 N.2   460  ANP460     -0.2095
     25  C5       -28.0850   21.3770   21.4540 C.2   460  ANP460      0.2526
     26  C6       -28.5250   22.5510   22.0850 C.2   460  ANP460      0.4393
     27  N6       -27.7280   23.2370   23.1300 N.pl3 460  ANP460      0.2180
     28  N1       -29.7120   23.0560   21.7280 N.2   460  ANP460      0.0021
     29  C2       -30.4800   22.4950   20.7800 C.3   460  ANP460      0.5254
     30  N3       -30.0820   21.3740   20.1480 N.2   460  ANP460     -0.0055
     31  C4       -28.8950   20.7990   20.4630 C.2   460  ANP460      0.3518
@<TRIPOS>BOND
     1    18    17    1
     2     2     1    2
     3     3     1    1
     4    20    19    1
     5     1     4    1
     6     1     8    1
     7    17    19    1
     8    17    15    1
     9    19    21    1
    10    15    14    1
    11    15    16    1
    12     8     5    1
    13    14    13    1
    14    10     9    2
    15    21    16    1
    16    21    22    1
    17    13     9    1
    18     9    12    1
    19     9    11    1
    20     5     6    2
    21     5    12    1
    22     5     7    1
    23    22    31    1
    24    22    23    1
    25    30    31    2
    26    30    29    1
    27    31    25    1
    28    23    24    1
    29    29    28    1
    30    25    24    2
    31    25    26    1
    32    28    26    2
    33    26    27    1
