@<TRIPOS>MOLECULE
3ouz_ADP_A_1.pdb
 27 29 0 0 0
SMALL
GASTEIGER

@<TRIPOS>ATOM
      1  PB        22.5720   14.8640  -19.1170 P.3   460  ADP460      0.5373
      2  O1B       23.3370   13.6420  -19.5570 O.3   460  ADP460     -0.1143
      3  O2B       22.4170   14.9520  -17.6270 O.3   460  ADP460     -0.1143
      4  O3B       21.2740   15.0070  -19.9120 O.2   460  ADP460     -0.2221
      5  PA        23.4270   17.6180  -19.3170 P.3   460  ADP460      0.2231
      6  O1A       23.1490   18.4370  -20.5670 O.2   460  ADP460     -0.5169
      7  O2A       22.6100   17.8580  -18.0750 O.3   460  ADP460     -0.4370
      8  O3A       23.5570   16.0480  -19.6070 O.3   460  ADP460     -0.2261
      9  O5'       24.9390   17.9720  -18.8980 O.3   460  ADP460     -0.3111
     10  C5'       25.5450   17.2320  -17.8410 C.3   460  ADP460      0.1813
     11  C4'       26.9950   17.6590  -17.6550 C.3   460  ADP460      0.1821
     12  O4'       27.6940   17.7380  -18.9040 O.3   460  ADP460     -0.3135
     13  C3'       27.0500   19.0480  -17.0660 C.3   460  ADP460      0.2184
     14  O3'       26.8600   19.0190  -15.6410 O.3   460  ADP460     -0.2174
     15  C2'       28.4160   19.5010  -17.5090 C.3   460  ADP460      0.2570
     16  O2'       29.4070   18.8600  -16.6910 O.3   460  ADP460     -0.2130
     17  C1'       28.5250   18.8910  -18.9060 C.3   460  ADP460      0.3186
     18  N9        27.9790   19.8220  -19.9310 N.pl3 460  ADP460     -0.1439
     19  C8        26.7770   19.7300  -20.5580 C.3   460  ADP460      0.3377
     20  N7        26.6210   20.7570  -21.4290 N.2   460  ADP460     -0.2095
     21  C5        27.7520   21.5100  -21.3810 C.2   460  ADP460      0.2526
     22  C6        28.2560   22.7360  -22.0380 C.2   460  ADP460      0.4393
     23  N6        27.5180   23.3890  -22.9610 N.pl3 460  ADP460      0.2180
     24  N1        29.4750   23.2030  -21.6930 N.2   460  ADP460      0.0021
     25  C2        30.2280   22.5710  -20.7660 C.3   460  ADP460      0.5254
     26  N3        29.8460   21.4470  -20.1360 N.2   460  ADP460     -0.0055
     27  C4        28.6320   20.8860  -20.3950 C.2   460  ADP460      0.3518
@<TRIPOS>BOND
     1    23    22    1
     2    22    24    2
     3    22    21    1
     4    24    25    1
     5    20    21    2
     6    20    19    1
     7    21    27    1
     8    25    26    1
     9     6     5    2
    10    19    18    1
    11    27    26    2
    12    27    18    1
    13    18    17    1
    14     4     1    2
    15     8     5    1
    16     8     1    1
    17     2     1    1
    18     5     9    1
    19     5     7    1
    20     1     3    1
    21    17    12    1
    22    17    15    1
    23    12    11    1
    24     9    10    1
    25    10    11    1
    26    11    13    1
    27    15    13    1
    28    15    16    1
    29    13    14    1
