@<TRIPOS>MOLECULE
3ov0_HEM_A_10.pdb
 43 50 0 0 0
SMALL
GASTEIGER

@<TRIPOS>ATOM
      1  CHA       20.6800   20.5410   31.9110 C.2   610  HEM610      0.0000
      2  CHB       20.5270   21.4920   27.1840 C.2   610  HEM610      0.0000
      3  CHC       22.9890   25.5870   27.9650 C.2   610  HEM610      0.0000
      4  CHD       23.9140   24.1580   32.4800 C.2   610  HEM610      0.0000
      5  C1A       20.3120   20.5340   30.5720 C.ar  610  HEM610      0.0000
      6  C2A       19.4710   19.5290   29.9510 C.ar  610  HEM610      0.0000
      7  C3A       19.4260   19.8570   28.6550 C.ar  610  HEM610      0.0000
      8  C4A       20.2800   20.9700   28.4380 C.ar  610  HEM610      0.0000
      9  CMA       18.4440   19.3000   27.6520 C.3   610  HEM610      0.0000
     10  CAA       18.6580   18.4190   30.6070 C.3   610  HEM610      0.0000
     11  CBA       17.5590   19.0570   31.4410 C.3   610  HEM610      0.0000
     12  CGA       16.5250   19.7850   30.6030 C.2   610  HEM610      0.0000
     13  O1A       15.5580   19.1220   30.1710 O.co2 610  HEM610      0.0000
     14  O2A       16.6830   21.0090   30.3730 O.co2 610  HEM610      0.0000
     15  C1B       21.2640   22.6490   26.9700 C.2   610  HEM610      0.0000
     16  C2B       21.2360   23.4080   25.7170 C.2   610  HEM610      0.0000
     17  C3B       21.9440   24.5580   25.8950 C.2   610  HEM610      0.0000
     18  C4B       22.3120   24.5520   27.3280 C.2   610  HEM610      0.0000
     19  CMB       20.3720   23.1190   24.5050 C.3   610  HEM610      0.0000
     20  CAB       22.3460   25.6440   24.8700 C.3   610  HEM610      0.0000
     21  CBB       21.3790   26.1490   23.8060 C.3   610  HEM610      0.0000
     22  C1C       23.3670   25.5640   29.2820 C.ar  610  HEM610      0.0000
     23  C2C       24.0530   26.6530   29.9450 C.ar  610  HEM610      0.0000
     24  C3C       24.5310   26.1810   31.1300 C.ar  610  HEM610      0.0000
     25  C4C       23.9580   24.8390   31.2540 C.ar  610  HEM610      0.0000
     26  CMC       23.9630   28.1190   29.5120 C.3   610  HEM610      0.0000
     27  CAC       25.3960   26.8900   32.1570 C.3   610  HEM610      0.0000
     28  CBC       26.0830   28.1830   31.7680 C.3   610  HEM610      0.0000
     29  C1D       23.0250   23.0960   32.7290 C.2   610  HEM610      0.0000
     30  C2D       22.8710   22.4690   34.0160 C.2   610  HEM610      0.0000
     31  C3D       22.0680   21.3710   33.8430 C.2   610  HEM610      0.0000
     32  C4D       21.5700   21.4530   32.4770 C.2   610  HEM610      0.0000
     33  CMD       23.3280   23.0930   35.3200 C.3   610  HEM610      0.0000
     34  CAD       21.8070   20.1650   34.7540 C.3   610  HEM610      0.0000
     35  CBD       22.8870   19.7360   35.7300 C.3   610  HEM610      0.0000
     36  CGD       22.6770   18.3250   36.2380 C.2   610  HEM610      0.0000
     37  O1D       21.5500   18.0100   36.6870 O.co2 610  HEM610      0.0000
     38  O2D       23.6440   17.5330   36.1870 O.co2 610  HEM610      0.0000
     39  NA        20.7860   21.4420   29.6320 N.ar  610  HEM610      0.0000
     40  NB        21.8760   23.3930   27.9850 N.2   610  HEM610      0.0000
     41  NC        23.1830   24.4930   30.1170 N.ar  610  HEM610      0.0000
     42  ND        22.1630   22.5030   31.7780 N.2   610  HEM610      0.0000
     43 FE         21.8650   23.0340   29.9020 Fe    610  HEM610      0.0000
@<TRIPOS>BOND
     1    21    20    1
     2    19    16    1
     3    20    17    1
     4    16    17    2
     5    16    15    1
     6    17    18    1
     7    15     2    1
     8    15    40    2
     9     2     8    2
    10    18     3    2
    11    18    40    1
    12     9     7    1
    13     3    22    1
    14    40    43    1
    15     8     7   ar
    16     8    39   ar
    17     7     6   ar
    18    22    23   ar
    19    22    41   ar
    20    26    23    1
    21    39    43    1
    22    39     5   ar
    23    43    41    1
    24    43    42    1
    25    23    24   ar
    26     6     5   ar
    27     6    10    1
    28    41    25   ar
    29    13    12   ar
    30    14    12   ar
    31     5     1    2
    32    12    11    1
    33    10    11    1
    34    24    25   ar
    35    24    27    1
    36    25     4    1
    37    28    27    1
    38    42    32    2
    39    42    29    1
    40     1    32    1
    41    32    31    1
    42     4    29    2
    43    29    30    1
    44    31    30    2
    45    31    34    1
    46    30    33    1
    47    34    35    1
    48    35    36    1
    49    38    36   ar
    50    36    37   ar
