@<TRIPOS>MOLECULE
3ov1_III_B_1.pdb
 34 35 0 0 0
SMALL
GASTEIGER

@<TRIPOS>ATOM
      1  C        -13.6590   13.3310   -2.4890 C.2     1  ACT1        0.2423
      2  O        -14.1780   12.2070   -2.5230 O.2     1  ACT1       -0.2733
      3  CH3      -13.7790   14.2530   -3.6690 C.3     1  ACT1        0.0964
      4  N        -12.9990   13.8210   -1.4770 N.am    2  TYR2       -0.1974
      5  CA       -12.7650   12.9410   -0.2770 C.3     2  TYR2        0.1770
      6  C        -13.1440   13.6920    1.0160 C.2     2  TYR2        0.2619
      7  O        -12.8720   14.8890    1.1720 O.2     2  TYR2       -0.2715
      8  CB       -11.2870   12.5730   -0.1190 C.3     2  TYR2        0.0574
      9  CG       -10.8580   11.8380   -1.4220 C.ar    2  TYR2       -0.0198
     10  CD1      -10.3740   12.5930   -2.4720 C.ar    2  TYR2       -0.0011
     11  CD2      -11.0310   10.4590   -1.5710 C.ar    2  TYR2       -0.0011
     12  CE1      -10.0200   12.0200   -3.6690 C.ar    2  TYR2        0.0371
     13  CE2      -10.7120    9.9050   -2.8250 C.ar    2  TYR2        0.0371
     14  CZ       -10.2140   10.6580   -3.8910 C.ar    2  TYR2        0.1490
     15  OH        -9.8950   10.1540   -5.1580 O.3     2  TYR2       -0.3998
     16  P        -10.2270    8.6340   -5.6580 P.3     2  TYR2        0.5887
     17  O1P      -10.0090    8.8150   -7.1890 O.2     2  TYR2       -0.2114
     18  O2P       -9.1790    7.7540   -5.0650 O.3     2  TYR2       -0.1039
     19  O3P      -11.6280    8.4060   -5.4010 O.3     2  TYR2       -0.1039
     20  CB       -15.5160   14.3000    3.1210 C.3     3  ALA3        0.0311
     21  CG       -15.3340   13.0410    3.9310 C.3     3  ALA3        0.0311
     22  CA       -14.1810   13.6370    3.1400 C.3     3  ALA3        0.1484
     23  C        -13.0700   14.1400    4.0390 C.2     3  ALA3        0.2595
     24  O        -13.2960   15.0480    4.8690 O.2     3  ALA3       -0.2716
     25  N        -13.7640   12.9400    1.9640 N.am    3  ALA3       -0.1985
     26  N        -11.8530   13.5910    3.8970 N.am    4  ASN4       -0.1958
     27  CA       -10.7050   14.0510    4.6390 C.3     4  ASN4        0.1836
     28  C         -9.7330   14.7920    3.6830 C.2     4  ASN4        0.2811
     29  O         -8.5470   14.9650    4.0270 O.2     4  ASN4       -0.2698
     30  CB       -10.0330   12.8660    5.3610 C.3     4  ASN4        0.1196
     31  CG        -9.5220   11.7930    4.3970 C.2     4  ASN4        0.2630
     32  OD1       -9.9510   11.7660    3.2500 O.2     4  ASN4       -0.2716
     33  ND2       -8.5970   10.9420    4.8900 N.am    4  ASN4       -0.0877
     34  N        -10.2100   15.2760    2.5260 N.am    5  NH25       -0.0863
@<TRIPOS>BOND
     1    17    16    2
     2    16    19    1
     3    16    15    1
     4    16    18    1
     5    15    14    1
     6    14    12   ar
     7    14    13   ar
     8     3     1    1
     9    12    10   ar
    10    13    11   ar
    11     2     1    2
    12     1     4   am
    13    10     9   ar
    14    11     9   ar
    15     4     5    1
    16     9     8    1
    17     5     8    1
    18     5     6    1
    19     6     7    2
    20     6    25   am
    21    25    22    1
    22    34    28   am
    23    20    22    1
    24    20    21    1
    25    22    21    1
    26    22    23    1
    27    32    31    2
    28    28    29    2
    29    28    27    1
    30    26    23   am
    31    26    27    1
    32    23    24    2
    33    31    33   am
    34    31    30    1
    35    27    30    1
