@<TRIPOS>MOLECULE
3ov4_EQU_A_1.pdb
 20 23 0 0 0
SMALL
GASTEIGER

@<TRIPOS>ATOM
      1  C1        -2.2420   35.7250  -10.9660 C.ar  129  EQU129      0.1957
      2  C2        -3.5950   35.6840  -11.2970 C.ar  129  EQU129      0.0420
      3  C3        -4.6130   35.8960  -10.3400 C.ar  129  EQU129      0.0029
      4  C4        -4.2300   36.1140   -8.9840 C.ar  129  EQU129     -0.0041
      5  C5        -2.8700   36.1490   -8.6760 C.ar  129  EQU129      0.0030
      6  C6        -1.9010   35.9400   -9.6350 C.ar  129  EQU129      0.0420
      7  C10       -5.9660   35.8140  -10.6800 C.ar  129  EQU129     -0.0002
      8  C11       -6.8940   36.0340   -9.6850 C.ar  129  EQU129     -0.0046
      9  C12       -6.5100   36.2640   -8.3640 C.ar  129  EQU129     -0.0260
     10  C13       -5.1700   36.3020   -7.9880 C.ar  129  EQU129     -0.0261
     11  C16       -7.6000   36.4700   -7.2410 C.3   129  EQU129      0.0290
     12  C17       -7.0700   37.4460   -6.1520 C.3   129  EQU129      0.0556
     13  C18       -5.9140   36.6790   -5.4970 C.3   129  EQU129      0.0119
     14  C19       -4.7320   36.5390   -6.5110 C.3   129  EQU129      0.0265
     15  C24       -8.9950   36.9920   -7.6060 C.3   129  EQU129      0.0125
     16  C25       -9.6230   37.3400   -6.2110 C.3   129  EQU129      0.0648
     17  C26       -8.3450   37.5100   -5.2900 C.2   129  EQU129      0.1502
     18  C27       -6.5980   38.8760   -6.6160 C.3   129  EQU129      0.0077
     19  O1        -1.2200   35.5530  -11.9010 O.3   129  EQU129     -0.2866
     20  O26       -8.4010   37.6490   -4.0530 O.2   129  EQU129     -0.2961
@<TRIPOS>BOND
     1    19     1    1
     2     2     1   ar
     3     2     3   ar
     4     1     6   ar
     5     7     3   ar
     6     7     8   ar
     7     3     4   ar
     8     8     9   ar
     9     6     5   ar
    10     4     5   ar
    11     4    10   ar
    12     9    10   ar
    13     9    11    1
    14    10    14    1
    15    15    11    1
    16    15    16    1
    17    11    12    1
    18    18    12    1
    19    14    13    1
    20    16    17    1
    21    12    13    1
    22    12    17    1
    23    17    20    2
