@<TRIPOS>MOLECULE
3ov6_MK0_A_1.pdb
 48 48 0 0 0
SMALL
GASTEIGER

@<TRIPOS>ATOM
      1  C1        -4.1980   31.1640  -40.5960 C.3   1105  MK01105     0.2741
      2  O1        -4.8960   30.0580  -41.1680 O.3   1105  MK01105    -0.2859
      3  C2        -3.6750   32.1380  -41.6660 C.3   1105  MK01105     0.2409
      4  O2        -3.4380   31.4530  -42.8800 O.3   1105  MK01105    -0.2149
      5  C3        -4.5640   33.3660  -41.9450 C.3   1105  MK01105     0.2198
      6  O3        -4.8920   33.4140  -43.3250 O.3   1105  MK01105    -0.2174
      7  C4        -5.8640   33.5300  -41.1400 C.3   1105  MK01105     0.2144
      8  O4        -5.9370   34.8730  -40.6770 O.3   1105  MK01105    -0.2176
      9  C5        -6.1020   32.5620  -39.9690 C.3   1105  MK01105     0.1835
     10  O5        -4.9620   31.8100  -39.5850 O.3   1105  MK01105    -0.3254
     11  C6        -7.2730   31.6150  -40.2590 C.3   1105  MK01105     0.2142
     12  O6        -7.2940   30.5640  -39.3120 O.3   1105  MK01105    -0.2176
     13  CAA       -5.8870   30.5350  -26.2370 C.3   1105  MK01105     0.0000
     14  CAB       -2.5040   23.1790  -25.0950 C.3   1105  MK01105     0.0000
     15  CAC       -5.0830   25.5970  -36.3090 C.3   1105  MK01105     0.0000
     16  CAD       -0.7150   17.6840  -29.5860 C.3   1105  MK01105     0.0000
     17  CAE       -7.9000   23.5410  -31.7510 C.3   1105  MK01105     0.0000
     18  CAF       -6.3980   17.2640  -31.5490 C.3   1105  MK01105     0.0000
     19  OAG       -3.0610   28.1630  -40.9530 O.3   1105  MK01105    -0.4373
     20  OAL       -5.3470   27.7470  -42.0210 O.2   1105  MK01105    -0.5172
     21  CAM       -6.3230   29.1540  -26.6520 C.3   1105  MK01105     0.0000
     22  CAN       -5.1690   28.1910  -26.9050 C.3   1105  MK01105     0.0000
     23  CAO       -5.6220   26.7720  -27.0260 C.3   1105  MK01105     0.0000
     24  CAP       -4.6020   25.7490  -27.4790 C.3   1105  MK01105     0.0000
     25  CAQ       -4.3930   24.6100  -26.4740 C.3   1105  MK01105     0.0000
     26  CAR       -6.7020   26.3730  -38.5950 C.3   1105  MK01105     0.0325
     27  CAS       -2.3640   19.9720  -27.2180 C.3   1105  MK01105     0.0000
     28  CAT       -7.3210   24.6680  -34.5190 C.3   1105  MK01105     0.0000
     29  CAU       -3.2260   17.3720  -31.2160 C.3   1105  MK01105     0.0000
     30  CAV       -6.5550   20.4430  -32.3280 C.3   1105  MK01105     0.0000
     31  CAX       -5.6830   26.7610  -39.6590 C.3   1105  MK01105     0.1491
     32  CAY       -3.9070   23.3140  -27.0980 C.3   1105  MK01105     0.0000
     33  CAZ       -6.5210   24.9140  -38.2300 C.3   1105  MK01105     0.0026
     34  CBA       -2.1370   21.4340  -26.7690 C.3   1105  MK01105     0.0000
     35  CBB       -7.4400   25.0890  -35.9690 C.3   1105  MK01105     0.0000
     36  CBC       -1.5550   19.6190  -28.4710 C.3   1105  MK01105     0.0000
     37  CBD       -8.0820   23.3910  -34.2220 C.3   1105  MK01105     0.0000
     38  CBE       -2.7430   18.6360  -30.5410 C.3   1105  MK01105     0.0000
     39  CBF       -7.6790   21.2180  -32.9790 C.3   1105  MK01105     0.0000
     40  CBG       -4.1090   17.7210  -32.4050 C.3   1105  MK01105     0.0000
     41  CBH       -6.1930   19.1530  -33.0380 C.3   1105  MK01105     0.0000
     42  OBI       -5.0270   28.0150  -39.5300 O.3   1105  MK01105    -0.3140
     43  CBL       -3.1800   22.3780  -26.1520 C.3   1105  MK01105     0.0000
     44  CBM       -6.2150   24.7160  -36.7670 C.3   1105  MK01105     0.0001
     45  CBN       -1.9820   18.4010  -29.2430 C.3   1105  MK01105     0.0000
     46  CBO       -7.4690   22.7550  -32.9990 C.3   1105  MK01105     0.0000
     47  CBP       -5.4480   18.3350  -32.0060 C.3   1105  MK01105     0.0000
     48  PBV       -4.5340   28.4490  -40.9780 P.3   1105  MK01105     0.2159
@<TRIPOS>BOND
     1     6     5    1
     2     4     3    1
     3    20    48    2
     4     5     3    1
     5     5     7    1
     6     3     1    1
     7     2    48    1
     8     2     1    1
     9     7     8    1
    10     7     9    1
    11    48    19    1
    12    48    42    1
    13     1    10    1
    14    11     9    1
    15    11    12    1
    16     9    10    1
    17    31    42    1
    18    31    26    1
    19    26    33    1
    20    33    44    1
    21    44    15    1
    22    44    35    1
    23    35    28    1
    24    28    37    1
    25    37    46    1
    26    41    30    1
    27    41    47    1
    28    46    39    1
    29    46    17    1
    30    39    30    1
    31    40    47    1
    32    40    29    1
    33    47    18    1
    34    29    38    1
    35    38    45    1
    36    16    45    1
    37    45    36    1
    38    36    27    1
    39    24    23    1
    40    24    25    1
    41    27    34    1
    42    32    25    1
    43    32    43    1
    44    23    22    1
    45    22    21    1
    46    34    43    1
    47    21    13    1
    48    43    14    1
