@<TRIPOS>MOLECULE
3ov7_ATP_A_1.pdb
 31 33 0 0 0
SMALL
GASTEIGER

@<TRIPOS>ATOM
      1  PG       -45.6660   55.2160    7.5140 P.3   501  ATP501      0.5373
      2  O1G      -44.4240   55.4880    8.3290 O.3   501  ATP501     -0.1143
      3  O2G      -45.3300   54.4390    6.2620 O.2   501  ATP501     -0.2221
      4  O3G      -46.5270   56.4370    7.2960 O.3   501  ATP501     -0.1143
      5  PB       -48.1850   54.0240    8.3310 P.3   501  ATP501      0.2277
      6  O1B      -48.5350   52.7890    9.1210 O.3   501  ATP501     -0.4368
      7  O2B      -48.8350   55.3210    8.7170 O.2   501  ATP501     -0.5168
      8  O3B      -46.5690   54.2180    8.4380 O.3   501  ATP501     -0.2258
      9  PA       -50.0700   53.7810    6.1460 P.3   501  ATP501      0.2189
     10  O1A      -50.6740   55.1700    6.1260 O.3   501  ATP501     -0.4371
     11  O2A      -50.0560   52.9690    4.8780 O.2   501  ATP501     -0.5170
     12  O3A      -48.5570   53.7910    6.7600 O.3   501  ATP501     -0.2700
     13  O5'      -50.9410   52.9400    7.2000 O.3   501  ATP501     -0.3112
     14  C5'      -51.7200   53.5610    8.2040 C.3   501  ATP501      0.1813
     15  C4'      -52.1780   52.4320    9.1020 C.3   501  ATP501      0.1821
     16  O4'      -53.0210   51.5570    8.3690 O.3   501  ATP501     -0.3135
     17  C3'      -51.0570   51.5240    9.5620 C.3   501  ATP501      0.2184
     18  O3'      -50.3980   52.0180   10.7290 O.3   501  ATP501     -0.2174
     19  C2'      -51.7640   50.2030    9.7840 C.3   501  ATP501      0.2570
     20  O2'      -52.6080   50.1990   10.9270 O.3   501  ATP501     -0.2130
     21  C1'      -52.7590   50.1960    8.6780 C.3   501  ATP501      0.3186
     22  N9       -52.1970   49.4780    7.5130 N.pl3 501  ATP501     -0.1439
     23  C8       -51.9390   49.9970    6.2990 C.3   501  ATP501      0.3377
     24  N7       -51.4580   49.0410    5.4670 N.2   501  ATP501     -0.2095
     25  C5       -51.4060   47.8970    6.1470 C.2   501  ATP501      0.2526
     26  C6       -50.9880   46.5200    5.8590 C.2   501  ATP501      0.4393
     27  N6       -50.5220   46.1700    4.6260 N.pl3 501  ATP501      0.2180
     28  N1       -51.0960   45.6200    6.8710 N.2   501  ATP501      0.0021
     29  C2       -51.5700   45.9290    8.0990 C.3   501  ATP501      0.5254
     30  N3       -51.9500   47.1760    8.4160 N.2   501  ATP501     -0.0055
     31  C4       -51.8900   48.1780    7.4970 C.2   501  ATP501      0.3518
@<TRIPOS>BOND
     1    27    26    1
     2    11     9    2
     3    24    25    2
     4    24    23    1
     5    26    25    1
     6    26    28    2
     7    10     9    1
     8     9    12    1
     9     9    13    1
    10    25    31    1
    11     3     1    2
    12    23    22    1
    13    12     5    1
    14    28    29    1
    15    13    14    1
    16     4     1    1
    17    31    22    1
    18    31    30    2
    19    22    21    1
    20     1     2    1
    21     1     8    1
    22    29    30    1
    23    14    15    1
    24     5     8    1
    25     5     7    2
    26     5     6    1
    27    16    21    1
    28    16    15    1
    29    21    19    1
    30    15    17    1
    31    17    19    1
    32    17    18    1
    33    19    20    1
