@<TRIPOS>MOLECULE
3ova_APC_A_1.pdb
 31 33 0 0 0
SMALL
GASTEIGER

@<TRIPOS>ATOM
      1  PG        12.1600    1.5300  -30.9280 P.3   501  APC501      0.5389
      2  O1G       11.2130    2.4610  -30.2050 O.3   501  APC501     -0.1143
      3  O2G       13.2600    0.9890  -30.0370 O.3   501  APC501     -0.1143
      4  O3G       12.6530    2.0980  -32.2280 O.2   501  APC501     -0.2220
      5  PB        11.2620   -0.8880  -32.4130 P.3   501  APC501      0.3895
      6  O1B       10.4420   -2.0040  -31.8190 O.3   501  APC501     -0.1388
      7  O2B       10.7570   -0.2660  -33.7030 O.2   501  APC501     -0.2544
      8  O3B       11.2130    0.2440  -31.2440 O.3   501  APC501     -0.2026
      9  PA        13.5110   -2.1130  -33.9510 P.3   501  APC501      0.3820
     10  O1A       13.3390   -1.1610  -35.1100 O.2   501  APC501     -0.2548
     11  O2A       14.9180   -2.6090  -33.6600 O.3   501  APC501     -0.1392
     12  C3A       12.8280   -1.4160  -32.5990 C.3   501  APC501      0.2357
     13  O5'       12.5810   -3.3800  -34.2630 O.3   501  APC501     -0.2896
     14  C5'       11.4990   -3.2840  -35.1850 C.3   501  APC501      0.1836
     15  C4'       10.5420   -4.4180  -34.9170 C.3   501  APC501      0.1822
     16  O4'       11.2210   -5.6540  -35.1630 O.3   501  APC501     -0.3135
     17  C3'       10.0820   -4.5000  -33.4660 C.3   501  APC501      0.2184
     18  O3'        8.9270   -3.7080  -33.2030 O.3   501  APC501     -0.2174
     19  C2'        9.8370   -5.9790  -33.2830 C.3   501  APC501      0.2570
     20  O2'        8.6050   -6.3700  -33.8780 O.3   501  APC501     -0.2130
     21  C1'       10.9280   -6.5950  -34.1340 C.3   501  APC501      0.3186
     22  N9        12.1710   -6.8610  -33.3630 N.pl3 501  APC501     -0.1439
     23  C8        13.3810   -6.3180  -33.6010 C.3   501  APC501      0.3377
     24  N7        14.3050   -6.7840  -32.7260 N.2   501  APC501     -0.2095
     25  C5        13.6700   -7.6540  -31.9030 C.2   501  APC501      0.2526
     26  C6        14.0410   -8.5060  -30.7520 C.2   501  APC501      0.4393
     27  N6        15.3180   -8.5330  -30.2940 N.pl3 501  APC501      0.2180
     28  N1        13.0620   -9.2570  -30.1800 N.2   501  APC501      0.0021
     29  C2        11.7860   -9.2340  -30.6050 C.3   501  APC501      0.5254
     30  N3        11.3840   -8.4950  -31.6500 N.2   501  APC501     -0.0055
     31  C4        12.2630   -7.6990  -32.3250 C.2   501  APC501      0.3518
@<TRIPOS>BOND
     1    14    15    1
     2    14    13    1
     3    16    15    1
     4    16    21    1
     5    10     9    2
     6    15    17    1
     7    13     9    1
     8    21    22    1
     9    21    19    1
    10     9    11    1
    11     9    12    1
    12    20    19    1
    13     7     5    2
    14    23    22    1
    15    23    24    1
    16    17    19    1
    17    17    18    1
    18    22    31    1
    19    24    25    2
    20    12     5    1
    21     5     6    1
    22     5     8    1
    23    31    25    1
    24    31    30    2
    25     4     1    2
    26    25    26    1
    27    30    29    1
    28     8     1    1
    29     1     2    1
    30     1     3    1
    31    26    27    1
    32    26    28    2
    33    29    28    1
