@<TRIPOS>MOLECULE
3ovb_ATP_A_1.pdb
 31 33 0 0 0
SMALL
GASTEIGER

@<TRIPOS>ATOM
      1  PG        10.2450  -55.0270  -36.8020 P.3   501  ATP501      0.5373
      2  O1G       11.4770  -55.1990  -37.6740 O.2   501  ATP501     -0.2221
      3  O2G       10.5100  -54.2530  -35.5230 O.3   501  ATP501     -0.1143
      4  O3G        9.4330  -56.2780  -36.5930 O.3   501  ATP501     -0.1143
      5  PB         7.7280  -53.8590  -37.8060 P.3   501  ATP501      0.2277
      6  O1B        7.6120  -52.6150  -38.6610 O.2   501  ATP501     -0.5168
      7  O2B        7.0350  -55.1290  -38.1720 O.3   501  ATP501     -0.4368
      8  O3B        9.3380  -54.0250  -37.6940 O.3   501  ATP501     -0.2258
      9  PA         5.8760  -53.5420  -35.5620 P.3   501  ATP501      0.2189
     10  O1A        5.4090  -54.9780  -35.5690 O.2   501  ATP501     -0.5170
     11  O2A        5.9010  -52.8300  -34.2290 O.3   501  ATP501     -0.4371
     12  O3A        7.3460  -53.4550  -36.2530 O.3   501  ATP501     -0.2700
     13  O5'        4.9630  -52.6090  -36.5000 O.3   501  ATP501     -0.3112
     14  C5'        4.0080  -53.1590  -37.4060 C.3   501  ATP501      0.1813
     15  C4'        3.5970  -52.1050  -38.4320 C.3   501  ATP501      0.1821
     16  O4'        2.7660  -51.1570  -37.7600 O.3   501  ATP501     -0.3135
     17  C3'        4.7430  -51.3040  -39.0370 C.3   501  ATP501      0.2184
     18  O3'        5.1760  -51.7900  -40.3140 O.3   501  ATP501     -0.2174
     19  C2'        4.2180  -49.8810  -39.1300 C.3   501  ATP501      0.2570
     20  O2'        3.4740  -49.6080  -40.3300 O.3   501  ATP501     -0.2130
     21  C1'        3.2040  -49.8170  -38.0200 C.3   501  ATP501      0.3186
     22  N9         3.7530  -49.1480  -36.8030 N.pl3 501  ATP501     -0.1439
     23  C8         3.9180  -49.6810  -35.5780 C.3   501  ATP501      0.3377
     24  N7         4.4200  -48.7610  -34.7060 N.2   501  ATP501     -0.2095
     25  C5         4.5820  -47.6040  -35.3820 C.2   501  ATP501      0.2526
     26  C6         5.0760  -46.2250  -35.0930 C.2   501  ATP501      0.4393
     27  N6         5.5040  -45.8470  -33.8540 N.pl3 501  ATP501      0.2180
     28  N1         5.0800  -45.3390  -36.1230 N.2   501  ATP501      0.0021
     29  C2         4.6650  -45.6630  -37.3690 C.3   501  ATP501      0.5254
     30  N3         4.2120  -46.8890  -37.6910 N.2   501  ATP501     -0.0055
     31  C4         4.1440  -47.8770  -36.7630 C.2   501  ATP501      0.3518
@<TRIPOS>BOND
     1    20    19    1
     2    18    17    1
     3    19    17    1
     4    19    21    1
     5    17    15    1
     6     6     5    2
     7    15    16    1
     8    15    14    1
     9     7     5    1
    10    21    16    1
    11    21    22    1
    12     5     8    1
    13     5    12    1
    14     8     1    1
    15    30    29    1
    16    30    31    2
    17     2     1    2
    18    14    13    1
    19    29    28    1
    20    22    31    1
    21    22    23    1
    22     1     4    1
    23     1     3    1
    24    31    25    1
    25    13     9    1
    26    12     9    1
    27    28    26    2
    28    23    24    1
    29    10     9    2
    30     9    11    1
    31    25    26    1
    32    25    24    2
    33    26    27    1
