@<TRIPOS>MOLECULE
3ove_III_B_1.pdb
 38 39 0 0 0
SMALL
GASTEIGER

@<TRIPOS>ATOM
      1  C         -7.5820    7.1450    2.5380 C.2     1  ACT1        0.2423
      2  O         -8.7730    6.5600    2.5770 O.2     1  ACT1       -0.2733
      3  CH3       -6.7720    7.0050    3.6880 C.3     1  ACT1        0.0964
      4  N         -7.1200    7.9360    1.5260 N.am    2  TYR2       -0.1974
      5  CA        -8.0060    8.1670    0.3510 C.3     2  TYR2        0.1770
      6  C         -7.2320    7.7880   -0.8920 C.2     2  TYR2        0.2619
      7  O         -6.0440    8.0950   -0.9580 O.2     2  TYR2       -0.2715
      8  CB        -8.3700    9.6550    0.2570 C.3     2  TYR2        0.0574
      9  CG        -9.1210   10.0390    1.5460 C.ar    2  TYR2       -0.0198
     10  CD1      -10.5190    9.9000    1.6640 C.ar    2  TYR2       -0.0011
     11  CD2       -8.3640   10.4920    2.6000 C.ar    2  TYR2       -0.0011
     12  CE1      -11.1980   10.2020    2.8700 C.ar    2  TYR2        0.0371
     13  CE2       -9.0390   10.7760    3.7940 C.ar    2  TYR2        0.0371
     14  CZ       -10.4190   10.6810    3.9390 C.ar    2  TYR2        0.1490
     15  OH       -10.8740   11.0270    5.2180 O.3     2  TYR2       -0.3998
     16  P        -12.3520   10.6820    5.6980 P.3     2  TYR2        0.5887
     17  O1P      -13.3120   11.7540    5.1280 O.2     2  TYR2       -0.2114
     18  O2P      -12.6700    9.2380    5.3670 O.3     2  TYR2       -0.1039
     19  O3P      -12.2600   10.8720    7.2540 O.3     2  TYR2       -0.1039
     20  O         -5.7030    7.4870   -4.6350 O.2     3  03E3       -0.2715
     21  CAO       -8.2110    3.4420   -3.2480 C.3     3  03E3        0.0258
     22  CAP       -7.3920    3.4140   -1.8870 C.2     3  03E3       -0.0306
     23  CAQ       -9.0920    4.6730   -3.3540 C.3     3  03E3        0.0069
     24  CAR       -6.4180    4.5520   -1.5960 C.2     3  03E3       -0.0285
     25  CAS       -8.4030    5.9290   -3.9250 C.3     3  03E3        0.0296
     26  CAT       -6.1690    5.6180   -2.6910 C.3     3  03E3        0.0546
     27  N         -7.9350    7.1360   -1.8330 N.am    3  03E3       -0.1982
     28  C         -6.7090    7.6910   -3.8710 C.2     3  03E3        0.2598
     29  CA        -7.3250    6.5890   -3.0470 C.3     3  03E3        0.1523
     30  N         -7.4010    8.8360   -3.8310 N.am    4  ASN4       -0.1958
     31  CA        -6.9860   10.0110   -4.5670 C.3     4  ASN4        0.1836
     32  C         -6.2660   11.0090   -3.6720 C.2     4  ASN4        0.2811
     33  O         -6.1950   12.1670   -4.0750 O.2     4  ASN4       -0.2698
     34  CB        -8.2000   10.6410   -5.3250 C.3     4  ASN4        0.1196
     35  CG        -9.2470   11.2750   -4.3600 C.2     4  ASN4        0.2630
     36  OD1       -9.3130   10.8650   -3.1780 O.2     4  ASN4       -0.2716
     37  ND2      -10.0140   12.1970   -4.8870 N.am    4  ASN4       -0.0877
     38  N         -5.7320   10.5940   -2.4830 N.am    5  NH25       -0.0863
@<TRIPOS>BOND
     1    34    31    1
     2    34    35    1
     3    37    35   am
     4    20    28    2
     5    31    30    1
     6    31    32    1
     7    35    36    2
     8    33    32    2
     9    25    23    1
    10    25    29    1
    11    28    30   am
    12    28    29    1
    13    32    38   am
    14    23    21    1
    15    21    22    1
    16    29    26    1
    17    29    27    1
    18    26    24    1
    19    22    24    2
    20    27     6   am
    21     7     6    2
    22     6     5    1
    23     8     5    1
    24     8     9    1
    25     5     4    1
    26     4     1   am
    27     9    10   ar
    28     9    11   ar
    29    10    12   ar
    30     1     2    2
    31     1     3    1
    32    11    13   ar
    33    12    14   ar
    34    13    14   ar
    35    14    15    1
    36    17    16    2
    37    15    16    1
    38    18    16    1
    39    16    19    1
