@<TRIPOS>MOLECULE
3ovm_MZC_A_1.pdb
 20 21 0 0 0
SMALL
GASTEIGER

@<TRIPOS>ATOM
      1  C1        24.2750  -15.3500  -14.8470 C.2   233  MZC233      0.0173
      2  N1        21.2440  -16.9370  -13.7710 N.2   233  MZC233     -0.2482
      3  C2        23.2190  -16.2230  -14.6320 C.2   233  MZC233      0.0127
      4  N2        26.2470  -18.7570  -16.6630 N.am  233  MZC233     -0.2051
      5  O2        26.2880  -14.3880  -16.1470 O.2   233  MZC233     -0.2242
      6  C3        22.0960  -15.8820  -13.7520 C.2   233  MZC233      0.0632
      7  N3        25.2960  -13.2330  -14.4340 N.am  233  MZC233     -0.1428
      8  O3        27.1090  -12.2880  -15.7060 O.3   233  MZC233     -0.4292
      9  C4        22.1270  -14.6300  -13.1480 C.3   233  MZC233      0.0731
     10  C5        23.2020  -13.7640  -13.3890 C.2   233  MZC233     -0.0031
     11  C6        24.2690  -14.1050  -14.2260 C.2   233  MZC233      0.0729
     12  C7        22.9510  -17.5750  -15.1400 C.2   233  MZC233     -0.0001
     13  C8        21.7270  -17.9510  -14.5700 C.2   233  MZC233      0.0942
     14  C10       23.8470  -18.3490  -16.0860 C.3   233  MZC233      0.0514
     15  C11       25.3170  -18.0260  -15.8190 C.3   233  MZC233      0.1199
     16  C13       26.4840  -20.0570  -16.4890 C.2   233  MZC233      0.2419
     17  C14       27.6840  -20.6040  -17.2010 C.3   233  MZC233      0.0964
     18  C17       26.1890  -13.3860  -15.4340 C.2   233  MZC233      0.4255
     19  C18       27.9390  -12.3370  -16.8810 C.3   233  MZC233      0.2574
     20  OXT       25.7620  -20.7610  -15.7980 O.2   233  MZC233     -0.2733
@<TRIPOS>BOND
     1    17    16    1
     2    19     8    1
     3     4    16   am
     4     4    15    1
     5    16    20    2
     6     5    18    2
     7    14    15    1
     8    14    12    1
     9     8    18    1
    10    18     7   am
    11    12     3    1
    12    12    13    2
    13     1     3    2
    14     1    11    1
    15     3     6    1
    16    13     2    1
    17     7    11    1
    18    11    10    2
    19     2     6    2
    20     6     9    1
    21    10     9    1
