@<TRIPOS>MOLECULE
3ovn_MPV_A_1.pdb
 12 13 0 0 0
SMALL
GASTEIGER

@<TRIPOS>ATOM
      1  C1        24.2990    7.5140   11.0560 C.ar  213  MPV213      0.0586
      2  C2        25.4810    8.0050   10.5350 C.ar  213  MPV213      0.1685
      3  N3        25.3100    8.9620    9.6300 N.ar  213  MPV213     -0.2328
      4  N4        23.9230    9.1380    9.4760 N.ar  213  MPV213     -0.1675
      5  C5        23.3840    8.2720   10.3590 C.ar  213  MPV213      0.1098
      6  C6        21.9110    8.1130   10.4970 C.ar  213  MPV213      0.0489
      7  S7        20.8110    8.6870    9.3160 S.2   213  MPV213     -0.0849
      8  C8        19.4770    8.0930   10.2200 C.ar  213  MPV213      0.0355
      9  C9        19.8980    7.4500   11.3750 C.ar  213  MPV213      0.0075
     10  C10       21.2890    7.4590   11.5420 C.ar  213  MPV213      0.0086
     11  C11       26.2200    9.8120    8.8030 C.3   213  MPV213      0.1553
     12  N12       26.7080    7.5920   10.9210 N.pl3 213  MPV213     -0.1075
@<TRIPOS>BOND
     1    11     3    1
     2     7     8   ar
     3     7     6   ar
     4     4     3   ar
     5     4     5   ar
     6     3     2   ar
     7     8     9   ar
     8     5     6    1
     9     5     1   ar
    10     6    10   ar
    11     2    12    1
    12     2     1   ar
    13     9    10   ar
