@<TRIPOS>MOLECULE
3ovq_5RP_A_1.pdb
 14 13 0 0 0
SMALL
GASTEIGER

@<TRIPOS>ATOM
      1  C2         8.5340    7.5110   20.5220 C.3   230  5RP230      0.2486
      2  C3         9.6740    6.9110   21.3080 C.2   230  5RP230      0.2165
      3  C5        10.9210    7.7110   21.6140 C.3   230  5RP230      0.2439
      4  O13       11.7370    7.0250   22.5850 O.3   230  5RP230     -0.2122
      5  C6        10.5930    9.1290   22.0930 C.3   230  5RP230      0.2194
      6  O14       10.0110    9.8880   21.0310 O.3   230  5RP230     -0.2172
      7  C7        11.8370    9.9000   22.5240 C.3   230  5RP230      0.1896
      8  O8        11.9220   11.0630   21.6980 O.3   230  5RP230     -0.2674
      9  P9        11.6350   12.5720   22.2170 P.3   230  5RP230      0.5327
     10  O12       12.4250   12.6710   23.5020 O.3   230  5RP230     -0.1145
     11  O11       12.2060   13.4040   21.0890 O.2   230  5RP230     -0.2224
     12  O10       10.1450   12.6750   22.3720 O.3   230  5RP230     -0.1145
     13  O4         9.5630    5.7500   21.6740 O.2   230  5RP230     -0.2905
     14  O1         7.7400    6.4220   20.0330 O.3   230  5RP230     -0.2118
@<TRIPOS>BOND
     1    14     1    1
     2     1     2    1
     3     6     5    1
     4    11     9    2
     5     2     3    1
     6     2    13    2
     7     3     5    1
     8     3     4    1
     9     8     9    1
    10     8     7    1
    11     5     7    1
    12     9    12    1
    13     9    10    1
