@<TRIPOS>MOLECULE
3ovr_5SP_A_1.pdb
 14 13 0 0 0
SMALL
GASTEIGER

@<TRIPOS>ATOM
      1  O1         7.8470    6.4290   20.0410 O.3   230  5SP230     -0.2118
      2  C2         8.7170    7.5070   20.4070 C.3   230  5SP230      0.2486
      3  C3         9.6640    6.9450   21.4340 C.2   230  5SP230      0.2165
      4  O4         9.5780    5.7600   21.6980 O.2   230  5SP230     -0.2905
      5  C5        10.6620    7.8420   22.1160 C.3   230  5SP230      0.2439
      6  C6        11.0060    8.9720   21.1570 C.3   230  5SP230      0.2194
      7  C7        10.6620   10.3020   21.8090 C.3   230  5SP230      0.1896
      8  O8        11.8480   11.0310   22.1170 O.3   230  5SP230     -0.2674
      9  P9        11.7010   12.6120   22.4250 P.3   230  5SP230      0.5327
     10  O10       10.2140   12.8390   22.5620 O.3   230  5SP230     -0.1145
     11  O11       12.5200   12.7890   23.6880 O.3   230  5SP230     -0.1145
     12  O12       12.3150   13.2610   21.2070 O.2   230  5SP230     -0.2224
     13  O13       11.8420    7.1290   22.5280 O.3   230  5SP230     -0.2122
     14  O14       12.3900    8.9260   20.7860 O.3   230  5SP230     -0.2172
@<TRIPOS>BOND
     1     1     2    1
     2     2     3    1
     3    14     6    1
     4     6     7    1
     5     6     5    1
     6    12     9    2
     7     3     4    2
     8     3     5    1
     9     7     8    1
    10     5    13    1
    11     8     9    1
    12     9    10    1
    13     9    11    1
