@<TRIPOS>MOLECULE
3ovs_CTP_A_1.pdb
 29 30 0 0 0
SMALL
GASTEIGER

@<TRIPOS>ATOM
      1  N1        -4.0030   49.1240  -36.7320 N.am  501  CTP501     -0.1778
      2  C2        -4.1140   47.7370  -36.8580 C.1   501  CTP501      0.2756
      3  N3        -4.7250   47.0070  -35.8500 N.2   501  CTP501     -0.3024
      4  C4        -5.1170   47.6070  -34.6580 C.2   501  CTP501      0.2346
      5  C5        -4.9310   48.9780  -34.5070 C.2   501  CTP501      0.0687
      6  C6        -4.4510   49.7230  -35.5810 C.2   501  CTP501      0.0836
      7  O2        -3.6870   47.1140  -37.8320 O.2   501  CTP501     -0.1925
      8  N4        -5.6580   46.8740  -33.6750 N.pl3 501  CTP501     -0.0921
      9  C1'       -3.3730   49.9720  -37.7730 C.3   501  CTP501      0.2400
     10  C2'       -4.2760   50.1020  -38.9820 C.3   501  CTP501      0.2319
     11  O2'       -3.4450   50.0540  -40.1140 O.3   501  CTP501     -0.2157
     12  C3'       -4.9320   51.4620  -38.8280 C.3   501  CTP501      0.2158
     13  C4'       -3.8590   52.2610  -38.0960 C.3   501  CTP501      0.1799
     14  O4'       -3.1810   51.3020  -37.2980 O.3   501  CTP501     -0.3320
     15  O3'       -5.3080   52.0340  -40.0610 O.3   501  CTP501     -0.2175
     16  C5'       -4.3960   53.3820  -37.2190 C.3   501  CTP501      0.1813
     17  O5'       -5.2740   52.8260  -36.2650 O.3   501  CTP501     -0.3112
     18  PA        -6.1940   53.7250  -35.2910 P.3   501  CTP501      0.2189
     19  O1A       -5.6040   55.1130  -35.1790 O.2   501  CTP501     -0.5170
     20  O2A       -6.3050   53.0570  -33.9390 O.3   501  CTP501     -0.4371
     21  O3A       -7.6750   53.8390  -35.9490 O.3   501  CTP501     -0.2700
     22  PB        -7.9350   54.1610  -37.5110 P.3   501  CTP501      0.2277
     23  O1B       -7.5960   52.8950  -38.2660 O.2   501  CTP501     -0.5168
     24  O2B       -7.1110   55.3460  -37.9570 O.3   501  CTP501     -0.4368
     25  O3B       -9.5150   54.4730  -37.7000 O.3   501  CTP501     -0.2258
     26  PG       -10.4130   55.2330  -36.5900 P.3   501  CTP501      0.5373
     27  O1G       -9.5630   56.3500  -36.0460 O.3   501  CTP501     -0.1143
     28  O2G      -11.6830   55.8290  -37.1810 O.2   501  CTP501     -0.2221
     29  O3G      -10.7310   54.2300  -35.4970 O.3   501  CTP501     -0.1143
@<TRIPOS>BOND
     1    11    10    1
     2    15    12    1
     3    10    12    1
     4    10     9    1
     5    12    13    1
     6    23    22    2
     7    13    14    1
     8    13    16    1
     9    24    22    1
    10     7     2    2
    11     9    14    1
    12     9     1    1
    13    25    22    1
    14    25    26    1
    15    22    21    1
    16    16    17    1
    17    28    26    2
    18     2     1   am
    19     2     3    2
    20     1     6    1
    21    26    27    1
    22    26    29    1
    23    17    18    1
    24    21    18    1
    25     3     4    2
    26     6     5    2
    27    18    19    2
    28    18    20    1
    29     4     5    1
    30     4     8    1
