@<TRIPOS>MOLECULE
3ovu_HEM_C_1.pdb
 43 50 0 0 0
SMALL
GASTEIGER

@<TRIPOS>ATOM
      1  CHA       -6.4910   12.9340   25.7270 C.2   142  HEM142      0.0000
      2  CHB       -7.0360   13.5750   20.9360 C.2   142  HEM142      0.0000
      3  CHC       -6.4030   18.3650   21.4810 C.2   142  HEM142      0.0000
      4  CHD       -5.8370   17.7750   26.2740 C.2   142  HEM142      0.0000
      5  C1A       -6.6940   12.6920   24.3840 C.ar  142  HEM142      0.0000
      6  C2A       -6.9220   11.3950   23.7780 C.ar  142  HEM142      0.0000
      7  C3A       -7.0720   11.5690   22.4630 C.ar  142  HEM142      0.0000
      8  C4A       -6.9440   12.9840   22.1780 C.ar  142  HEM142      0.0000
      9  CMA       -7.3360   10.4560   21.4260 C.3   142  HEM142      0.0000
     10  CAA       -6.9830   10.0410   24.5190 C.3   142  HEM142      0.0000
     11  CBA       -8.4280    9.7070   24.8750 C.3   142  HEM142      0.0000
     12  CGA       -8.5480    8.2300   25.1360 C.2   142  HEM142      0.0000
     13  O1A       -8.0860    7.7780   26.2140 O.co2 142  HEM142      0.0000
     14  O2A       -9.1030    7.5070   24.2680 O.co2 142  HEM142      0.0000
     15  C1B       -6.9130   14.9210   20.6650 C.2   142  HEM142      0.0000
     16  C2B       -7.0090   15.5440   19.3600 C.2   142  HEM142      0.0000
     17  C3B       -6.8360   16.8580   19.5120 C.2   142  HEM142      0.0000
     18  C4B       -6.6230   17.1250   20.9200 C.2   142  HEM142      0.0000
     19  CMB       -7.2680   14.8150   18.0230 C.3   142  HEM142      0.0000
     20  CAB       -6.8540   17.9130   18.3850 C.2   142  HEM142      0.0000
     21  CBB       -8.0030   18.2390   17.7870 C.2   142  HEM142      0.0000
     22  C1C       -6.1950   18.6240   22.8180 C.ar  142  HEM142      0.0000
     23  C2C       -5.9560   19.9260   23.4030 C.ar  142  HEM142      0.0000
     24  C3C       -5.7990   19.7660   24.7180 C.ar  142  HEM142      0.0000
     25  C4C       -5.9320   18.3540   25.0240 C.ar  142  HEM142      0.0000
     26  CMC       -5.8950   21.2680   22.6410 C.3   142  HEM142      0.0000
     27  CAC       -5.5250   20.8980   25.7340 C.2   142  HEM142      0.0000
     28  CBC       -4.3340   20.9740   26.3380 C.2   142  HEM142      0.0000
     29  C1D       -5.9580   16.4330   26.5830 C.2   142  HEM142      0.0000
     30  C2D       -5.8500   15.8720   27.9120 C.2   142  HEM142      0.0000
     31  C3D       -6.0520   14.3600   27.7400 C.2   142  HEM142      0.0000
     32  C4D       -6.2660   14.1580   26.3240 C.2   142  HEM142      0.0000
     33  CMD       -5.5860   16.6310   29.2300 C.3   142  HEM142      0.0000
     34  CAD       -6.0380   13.2870   28.8530 C.3   142  HEM142      0.0000
     35  CBD       -4.8720   12.3210   28.6510 C.3   142  HEM142      0.0000
     36  CGD       -4.7670   11.4080   29.8440 C.2   142  HEM142      0.0000
     37  O1D       -4.2620   11.8610   30.9040 O.co2 142  HEM142      0.0000
     38  O2D       -5.1890   10.2260   29.7380 O.co2 142  HEM142      0.0000
     39  NA        -6.7100   13.6360   23.3750 N.ar  142  HEM142      0.0000
     40  NB        -6.6750   15.9180   21.5950 N.2   142  HEM142      0.0000
     41  NC        -6.1720   17.6890   23.8370 N.ar  142  HEM142      0.0000
     42  ND        -6.2020   15.3950   25.6850 N.2   142  HEM142      0.0000
     43 FE         -6.4410   15.6530   23.6450 Fe    142  HEM142      0.0000
@<TRIPOS>BOND
     1    21    20    2
     2    19    16    1
     3    20    17    1
     4    16    17    2
     5    16    15    1
     6    17    18    1
     7    15     2    1
     8    15    40    2
     9    18     3    2
    10    18    40    1
    11     2     8    2
    12     9     7    1
    13     3    22    1
    14    40    43    1
    15     8     7   ar
    16     8    39   ar
    17     7     6   ar
    18    26    23    1
    19    22    23   ar
    20    22    41   ar
    21    39    43    1
    22    39     5   ar
    23    23    24   ar
    24    43    41    1
    25    43    42    1
    26     6     5   ar
    27     6    10    1
    28    41    25   ar
    29    14    12   ar
    30     5     1    2
    31    10    11    1
    32    24    25   ar
    33    24    27    1
    34    11    12    1
    35    25     4    1
    36    12    13   ar
    37    42    32    2
    38    42    29    1
    39     1    32    1
    40    27    28    2
    41     4    29    2
    42    32    31    1
    43    29    30    1
    44    31    30    2
    45    31    34    1
    46    30    33    1
    47    35    34    1
    48    35    36    1
    49    38    36   ar
    50    36    37   ar
