@<TRIPOS>MOLECULE
3ovv_1SB_A_1.pdb
 21 22 0 0 0
SMALL
GASTEIGER

@<TRIPOS>ATOM
      1  C1        -7.1950   -5.3830   20.1120 C.ar  2001  1SB2001    -0.0100
      2  N1        -8.8170   -8.2500   18.8130 N.am  2001  1SB2001    -0.1109
      3  O1        -8.6640   -8.0400   20.9920 O.2   2001  1SB2001    -0.2715
      4  C2        -8.5030   -5.9550   19.8250 C.3   2001  1SB2001     0.1146
      5  N2        -8.8060   -9.6510   18.7500 N.3   2001  1SB2001    -0.1036
      6  O2        -5.5320   -2.8840   21.9780 O.3   2001  1SB2001    -0.4714
      7  C3        -8.6610   -7.4850   19.9010 C.2   2001  1SB2001     0.2620
      8  O3        -8.7510  -15.7480   16.5370 O.3   2001  1SB2001    -0.2866
      9  C4        -8.9450  -10.1210   17.5620 C.3   2001  1SB2001     0.1398
     10  C5        -8.9240  -11.6270   17.4700 C.ar  2001  1SB2001    -0.0027
     11  C6        -6.1030   -5.9260   19.4790 C.ar  2001  1SB2001    -0.0036
     12  C7        -4.8260   -5.4930   19.6660 C.ar  2001  1SB2001     0.0028
     13  C8        -4.6430   -4.4860   20.5510 C.ar  2001  1SB2001     0.0369
     14  C9        -5.7350   -3.9220   21.1520 C.ar  2001  1SB2001     0.1384
     15  C10       -6.6450   -2.1740   22.6030 C.3   2001  1SB2001     0.2525
     16  C11       -7.0480   -4.3260   20.9920 C.ar  2001  1SB2001     0.0331
     17  C12       -8.9600  -12.5750   18.4750 C.ar  2001  1SB2001     0.0005
     18  C13       -8.8770  -13.9570   18.1410 C.ar  2001  1SB2001     0.0418
     19  C14       -8.8070  -14.4250   16.8590 C.ar  2001  1SB2001     0.1957
     20  C15       -8.7890  -13.4640   15.8540 C.ar  2001  1SB2001     0.0418
     21  C16       -8.8450  -12.0960   16.1640 C.ar  2001  1SB2001     0.0005
@<TRIPOS>BOND
     1    20    21   ar
     2    20    19   ar
     3    21    10   ar
     4     8    19    1
     5    19    18   ar
     6    10     9    1
     7    10    17   ar
     8     9     5    1
     9    18    17   ar
    10     5     2    1
    11     2     7   am
    12    11    12   ar
    13    11     1   ar
    14    12    13   ar
    15     4     7    1
    16     4     1    1
    17     7     3    2
    18     1    16   ar
    19    13    14   ar
    20    16    14   ar
    21    14     6    1
    22     6    15    1
