@<TRIPOS>MOLECULE
3ovx_O64_A_1.pdb
 19 19 0 0 0
SMALL
GASTEIGER

@<TRIPOS>ATOM
      1  C1        28.8940   33.9020   20.4670 C.ar  218  O64218      0.0821
      2  C2        30.0390   33.4370   21.1190 C.ar  218  O64218      0.0047
      3  C3        30.5670   34.1440   22.1980 C.ar  218  O64218      0.0001
      4  C4        29.9540   35.3180   22.6260 C.ar  218  O64218      0.0054
      5  C5        28.8160   35.7860   21.9730 C.ar  218  O64218      0.0655
      6  C6        28.2870   35.0710   20.9080 C.ar  218  O64218      0.0660
      7 CL7        26.8200   35.6600   20.0660 Cl    218  O64218     -0.0822
      8  C8        28.1630   37.0440   22.4750 C.2   218  O64218      0.2656
      9  N9        28.7850   38.2320   22.3940 N.am  218  O64218     -0.2007
     10  O10       27.0650   36.9140   22.9820 O.2   218  O64218     -0.2683
     11  C11       28.2110   39.4860   22.8900 C.3   218  O64218      0.1285
     12  C12       27.9780   40.4220   21.6990 C.3   218  O64218      0.2036
     13  O13       27.0500   41.4590   22.0610 O.3   218  O64218     -0.2185
     14  C14       29.2590   40.0990   23.8190 C.3   218  O64218      0.0244
     15  C15       29.4550   39.2760   25.0740 C.3   218  O64218      0.0019
     16  C16       28.2950   33.1500   19.3040 C.3   218  O64218      0.4194
     17  F17       28.2420   33.9270   18.2420 F     218  O64218     -0.1658
     18  F18       27.0690   32.7540   19.6060 F     218  O64218     -0.1658
     19  F19       29.0040   32.0740   19.0270 F     218  O64218     -0.1658
@<TRIPOS>BOND
     1    17    16    1
     2    19    16    1
     3    16    18    1
     4    16     1    1
     5     7     6    1
     6     1     6   ar
     7     1     2   ar
     8     6     5   ar
     9     2     3   ar
    10    12    13    1
    11    12    11    1
    12     5     8    1
    13     5     4   ar
    14     3     4   ar
    15     9     8   am
    16     9    11    1
    17     8    10    2
    18    11    14    1
    19    14    15    1
