@<TRIPOS>MOLECULE
3ovz_O96_A_1.pdb
 30 31 0 0 0
SMALL
GASTEIGER

@<TRIPOS>ATOM
      1  N1        11.3270  -20.5380   -2.9200 N.am    1  O961       -0.0855
      2  C4        10.0600  -20.1520   -2.5870 C.2     1  O961        0.2929
      3  C5         9.5600  -19.0050   -3.4960 C.3     1  O961        0.2503
      4  C6        10.4580  -17.7460   -3.4680 C.3     1  O961        0.1350
      5  N8         9.9360  -16.6540   -4.3050 N.am    1  O961       -0.2003
      6  C10       10.6330  -16.0130   -5.3140 C.2     1  O961        0.2656
      7  C11        9.8690  -14.9270   -5.9270 C.ar    1  O961        0.0657
      8  C12        9.9860  -13.6810   -5.3200 C.ar    1  O961        0.0085
      9  C14        9.2600  -12.6060   -5.8180 C.ar    1  O961        0.0371
     10  C16        8.3990  -12.7630   -6.9300 C.ar    1  O961        0.1438
     11  C17        8.2720  -14.0040   -7.5500 C.ar    1  O961        0.1160
     12  C18        9.0040  -15.0710   -7.0110 C.ar    1  O961        0.0689
     13 CL19        8.8620  -16.6070   -7.7160 Cl      1  O961       -0.0820
     14  C20        7.3160  -14.1660   -8.7090 C.3     1  O961        0.4222
     15  F21        7.7720  -14.4740   -9.9440 F       1  O961       -0.1657
     16  F22        6.4910  -15.1760   -8.4100 F       1  O961       -0.1657
     17  F23        6.4700  -13.1290   -8.9570 F       1  O961       -0.1657
     18  O24        7.6500  -11.7900   -7.5130 O.3     1  O961       -0.4690
     19  C25        7.7670  -10.4650   -7.0030 C.3     1  O961        0.2508
     20  C28        7.0890   -9.4690   -7.8930 C.ar    1  O961        0.1026
     21  N29        7.2600   -8.1810   -7.5390 N.ar    1  O961       -0.2445
     22  C30        6.6720   -7.2470   -8.3240 C.ar    1  O961        0.0986
     23  C32        5.9250   -7.5500   -9.4460 C.ar    1  O961        0.0207
     24  C34        5.7880   -8.8640   -9.8040 C.ar    1  O961        0.0029
     25  C36        6.3630   -9.8380   -9.0090 C.ar    1  O961        0.0185
     26  O38       11.7590  -16.3050   -5.7010 O.2     1  O961       -0.2683
     27  C39       10.6090  -17.2390   -2.0130 C.3     1  O961        0.0248
     28  C42       11.7430  -16.2360   -1.8720 C.3     1  O961        0.0019
     29  O46        8.1830  -18.7590   -3.2180 O.3     1  O961       -0.2113
     30  O47        9.4240  -20.7000   -1.7010 O.2     1  O961       -0.2688
@<TRIPOS>BOND
     1    15    14    1
     2    24    23   ar
     3    24    25   ar
     4    23    22   ar
     5    25    20   ar
     6    17    14    1
     7    14    16    1
     8    14    11    1
     9    22    21   ar
    10    20    21   ar
    11    20    19    1
    12    13    12    1
    13    11    12   ar
    14    11    10   ar
    15    18    19    1
    16    18    10    1
    17    12     7   ar
    18    10     9   ar
    19     7     8   ar
    20     7     6    1
    21     9     8   ar
    22    26     6    2
    23     6     5   am
    24     5     4    1
    25     3     4    1
    26     3    29    1
    27     3     2    1
    28     4    27    1
    29     1     2   am
    30     2    30    2
    31    27    28    1
