@<TRIPOS>MOLECULE
3ow3_SMY_A_1.pdb
 30 34 0 0 0
SMALL
GASTEIGER

@<TRIPOS>ATOM
      1  N1        11.1820   34.7530   36.8670 N.2   351  SMY351     -0.0403
      2  C2        12.5280   34.7370   37.0060 C.3   351  SMY351      0.3909
      3  N3        13.3080   33.6550   36.9970 N.2   351  SMY351     -0.2259
      4  C4        12.6840   32.4930   36.7520 C.2   351  SMY351      0.0589
      5  C5        11.2740   32.4060   36.6120 C.3   351  SMY351      0.1520
      6  C6        10.5370   33.6060   36.6420 C.2   351  SMY351      0.3070
      7  C7        13.4410   31.2100   36.6910 C.3   351  SMY351      0.0989
      8  S8        12.0440   30.0140   36.5100 S.3   351  SMY351     -0.1340
      9  C9        10.5960   31.0650   36.3230 C.3   351  SMY351      0.0649
     10  C10        9.5300   30.4410   37.3110 C.3   351  SMY351      0.0127
     11  N11        9.1770   33.6140   36.4220 N.pl3 351  SMY351     -0.1678
     12  C12        8.2040   33.9320   37.4140 C.3   351  SMY351      0.2290
     13  C13        7.0290   34.5900   36.7170 C.3   351  SMY351      0.1494
     14  N14        6.3570   33.8360   35.6400 N.am  351  SMY351     -0.2491
     15  C15        7.2220   32.9550   34.8370 C.2   351  SMY351      0.1121
     16  C16        8.6780   32.8090   35.2940 C.2   351  SMY351      0.1920
     17  C17        5.0120   34.0590   35.3900 C.2   351  SMY351      0.2473
     18  O18        4.3660   34.8540   36.0780 O.2   351  SMY351     -0.2730
     19  C19        4.1210   33.4490   34.2950 C.3   351  SMY351      0.1725
     20  C20        3.0950   32.4720   34.9260 C.3   351  SMY351      0.0563
     21  C21        3.5140   31.1160   35.5470 C.2   351  SMY351      0.0000
     22  C22        2.7250   30.3540   36.3700 C.2   351  SMY351      0.0942
     23  N23        3.3040   29.1480   36.7880 N.2   351  SMY351     -0.2482
     24  C24        4.5380   29.1270   36.2120 C.2   351  SMY351      0.0631
     25  C25        4.7210   30.2770   35.4630 C.2   351  SMY351      0.0115
     26  C26        5.5740   28.1660   36.2820 C.3   351  SMY351      0.0717
     27  C27        6.8150   28.3140   35.6180 C.2   351  SMY351     -0.0198
     28  C28        6.9990   29.4830   34.8510 C.2   351  SMY351     -0.0042
     29  C29        5.9530   30.4420   34.7800 C.2   351  SMY351      0.0006
     30  N30        3.5340   34.6350   33.5480 N.3   351  SMY351     -0.1227
@<TRIPOS>BOND
     1    30    19    1
     2    19    20    1
     3    19    17    1
     4    29    28    1
     5    29    25    2
     6    15    16    2
     7    15    14    1
     8    28    27    2
     9    20    21    1
    10    16    11    1
    11    17    14   am
    12    17    18    2
    13    25    21    1
    14    25    24    1
    15    21    22    2
    16    27    26    1
    17    14    13    1
    18    24    26    1
    19    24    23    2
    20     9     8    1
    21     9     5    1
    22     9    10    1
    23    22    23    1
    24    11     6    1
    25    11    12    1
    26     8     7    1
    27     5     6    1
    28     5     4    1
    29     6     1    2
    30     7     4    1
    31    13    12    1
    32     4     3    2
    33     1     2    1
    34     3     2    1
