@<TRIPOS>MOLECULE
3ow4_SMY_A_1.pdb
 30 34 0 0 0
SMALL
GASTEIGER

@<TRIPOS>ATOM
      1  N1        14.8750   -3.9170   15.3650 N.2     1  SMY1       -0.0407
      2  C2        16.1030   -4.3250   15.0060 C.3     1  SMY1        0.3909
      3  N3        17.2190   -3.5850   14.9670 N.2     1  SMY1       -0.2259
      4  C4        17.1050   -2.2990   15.3210 C.2     1  SMY1        0.0589
      5  C5        15.8650   -1.7680   15.7050 C.3     1  SMY1        0.1516
      6  C6        14.7310   -2.6270   15.7100 C.2     1  SMY1        0.3027
      7  C7        18.2720   -1.3470   15.3170 C.3     1  SMY1        0.0989
      8  S8        17.5300    0.2820   15.6260 S.3     1  SMY1       -0.1340
      9  C9        15.8530   -0.2920   16.0540 C.3     1  SMY1        0.0648
     10  C10       14.9140    0.4890   15.1300 C.3     1  SMY1        0.0127
     11  N11       13.4590   -2.2330   16.1130 N.pl3   1  SMY1       -0.1908
     12  C12       13.3480   -1.5350   17.4150 C.3     1  SMY1        0.2236
     13  C13       12.0200   -0.8080   17.6360 C.3     1  SMY1        0.1443
     14  N14       10.9520   -1.8130   17.4960 N.am    1  SMY1       -0.2699
     15  C15       10.9780   -2.5500   16.2190 C.3     1  SMY1        0.1443
     16  C16       12.3480   -3.1770   15.9280 C.3     1  SMY1        0.2236
     17  C17        9.7980   -1.6830   18.1930 C.2     1  SMY1        0.2437
     18  O18        8.8550   -2.4760   18.0590 O.2     1  SMY1       -0.2733
     19  C19        9.8580   -1.0000   19.5320 C.3     1  SMY1        0.1722
     20  C20        8.9970    0.2740   19.6090 C.3     1  SMY1        0.0563
     21  C21        9.3350    1.4750   18.7340 C.2     1  SMY1        0.0000
     22  C22       10.0790    2.5850   19.0550 C.2     1  SMY1        0.0942
     23  N23       10.1780    3.5360   18.0070 N.2     1  SMY1       -0.2482
     24  C24        9.4530    3.0010   16.9810 C.2     1  SMY1        0.0631
     25  C25        8.9230    1.7660   17.3700 C.2     1  SMY1        0.0115
     26  C26        9.2100    3.5180   15.6870 C.3     1  SMY1        0.0717
     27  C27        8.4090    2.7490   14.8060 C.2     1  SMY1       -0.0198
     28  C28        7.8700    1.4970   15.2040 C.2     1  SMY1       -0.0042
     29  C29        8.1250    0.9920   16.4970 C.2     1  SMY1        0.0006
     30  N30        9.4970   -2.0290   20.5450 N.3     1  SMY1       -0.1228
@<TRIPOS>BOND
     1    27    28    2
     2    27    26    1
     3     3     2    1
     4     3     4    2
     5     2     1    1
     6    10     9    1
     7    28    29    1
     8     7     4    1
     9     7     8    1
    10     4     5    1
    11     1     6    2
    12     8     9    1
    13    26    24    1
    14     5     6    1
    15     5     9    1
    16     6    11    1
    17    16    11    1
    18    16    15    1
    19    11    12    1
    20    15    14    1
    21    29    25    2
    22    24    25    1
    23    24    23    2
    24    25    21    1
    25    12    13    1
    26    14    13    1
    27    14    17   am
    28    23    22    1
    29    18    17    2
    30    17    19    1
    31    21    22    2
    32    21    20    1
    33    19    20    1
    34    19    30    1
