@<TRIPOS>MOLECULE
3ow6_MEX_A_1.pdb
 18 20 0 0 0
SMALL
GASTEIGER

@<TRIPOS>ATOM
      1  C1        -0.3290  -11.5360   -2.8250 C.ar    1  MEX1        0.0221
      2  C2        -1.4990  -11.5330   -3.5630 C.ar    1  MEX1        0.1025
      3  C3        -2.6500  -12.0770   -3.0340 C.ar    1  MEX1        0.2130
      4  C4        -2.7180  -12.5710   -1.7450 C.ar    1  MEX1        0.0853
      5  C5        -1.5360  -12.5530   -1.0130 C.ar    1  MEX1        0.1990
      6  C6        -0.3580  -12.0570   -1.5440 C.ar    1  MEX1        0.0435
      7  O7        -1.5290  -13.0030    0.3090 O.3     1  MEX1       -0.2865
      8  O8        -3.7810  -12.0460   -3.8280 O.3     1  MEX1       -0.2851
      9  N9        -1.5740  -10.9670   -4.8700 N.am    1  MEX1       -0.1936
     10  C10       -1.4130   -9.6010   -5.1410 C.3     1  MEX1        0.1646
     11  C11       -1.4550   -9.4510   -6.5020 C.2     1  MEX1        0.1463
     12  N12       -1.6380  -10.7030   -7.0820 N.2     1  MEX1       -0.3234
     13  C13       -1.7350  -11.6480   -6.0540 C.1     1  MEX1        0.2728
     14  C14       -1.2730   -8.5320   -4.2970 C.2     1  MEX1        0.0015
     15  C15       -1.1680   -7.2950   -4.8940 C.2     1  MEX1       -0.0024
     16  C16       -1.1970   -7.1430   -6.2690 C.2     1  MEX1        0.0021
     17  C17       -1.3430   -8.2230   -7.1140 C.2     1  MEX1        0.0306
     18  O18       -1.8860  -12.8530   -6.1640 O.2     1  MEX1       -0.1926
@<TRIPOS>BOND
     1    17    11    1
     2    17    16    2
     3    12    11    2
     4    12    13    2
     5    11    10    1
     6    16    15    1
     7    18    13    2
     8    13     9   am
     9    10     9    1
    10    10    14    1
    11    15    14    2
    12     9     2    1
    13     8     3    1
    14     2     3   ar
    15     2     1   ar
    16     3     4   ar
    17     1     6   ar
    18     4     5   ar
    19     6     5   ar
    20     5     7    1
