@<TRIPOS>MOLECULE
3owb_BSM_A_1.pdb
 27 29 0 0 0
SMALL
GASTEIGER

@<TRIPOS>ATOM
      1  C22       -2.3020    5.6650   28.2240 C.3     1  BSM1        0.2525
      2  O21       -2.7530    6.2040   26.9840 O.3     1  BSM1       -0.4714
      3  C18       -1.7220    6.7420   26.2210 C.ar    1  BSM1        0.1387
      4  C19       -2.0730    7.2370   24.9860 C.ar    1  BSM1        0.0366
      5  C20       -1.1180    7.7730   24.1530 C.ar    1  BSM1       -0.0004
      6  C17       -0.4000    6.7690   26.6130 C.ar    1  BSM1        0.0366
      7  C16        0.5500    7.3460   25.7720 C.ar    1  BSM1       -0.0004
      8  C7         0.2080    7.8470   24.5370 C.ar    1  BSM1       -0.0108
      9  C3         1.1500    8.5410   23.6610 C.3     1  BSM1        0.1108
     10  C2         1.4450    8.1640   22.3670 C.2     1  BSM1        0.1445
     11  C8         0.9770    7.0700   21.5930 C.2     1  BSM1        0.2808
     12  O9         0.4040    6.1250   22.0980 O.2     1  BSM1       -0.2670
     13  N10        1.1500    7.2530   20.2360 N.am    1  BSM1       -0.2006
     14  C26        0.8800    6.1460   19.3390 C.3     1  BSM1        0.1156
     15  C27       -0.2920    6.4240   18.4370 C.3     1  BSM1        0.0253
     16  N1         2.3310    9.0790   21.8850 N.2     1  BSM1       -0.1473
     17  N5         2.6150   10.0560   22.7730 N.2     1  BSM1       -0.1517
     18  C4         1.9010    9.7390   23.8590 C.2     1  BSM1        0.0931
     19  C6         1.9370   10.5780   25.0230 C.ar    1  BSM1        0.0559
     20  C11        0.7410   11.0650   25.5290 C.ar    1  BSM1        0.0191
     21  C12        0.7320   11.8310   26.6740 C.ar    1  BSM1        0.0967
     22 CL25       -0.7600   12.4830   27.3490 Cl      1  BSM1       -0.0789
     23  C13        1.9290   12.0540   27.3090 C.ar    1  BSM1        0.2093
     24  O24        1.9270   12.7630   28.4930 O.3     1  BSM1       -0.2856
     25  C14        3.1360   11.5880   26.8220 C.ar    1  BSM1        0.0849
     26  C15        3.1370   10.8700   25.6490 C.ar    1  BSM1        0.2001
     27  O23        4.3550   10.4290   25.1420 O.3     1  BSM1       -0.2864
@<TRIPOS>BOND
     1    15    14    1
     2    14    13    1
     3    13    11   am
     4    11    12    2
     5    11    10    1
     6    16    10    2
     7    16    17    1
     8    10     9    1
     9    17    18    2
    10     9    18    1
    11     9     8    1
    12    18    19    1
    13     5     8   ar
    14     5     4   ar
    15     8     7   ar
    16     4     3   ar
    17    19    20   ar
    18    19    26   ar
    19    27    26    1
    20    20    21   ar
    21    26    25   ar
    22     7     6   ar
    23     3     6   ar
    24     3     2    1
    25    21    23   ar
    26    21    22    1
    27    25    23   ar
    28     2     1    1
    29    23    24    1
