@<TRIPOS>MOLECULE
3owc_COA_A_1.pdb
 48 50 0 0 0
SMALL
GASTEIGER

@<TRIPOS>ATOM
      1  N1A       15.1180    3.7020   44.1130 N.2   2598  COA2598     0.0021
      2  C2A       16.0310    4.5350   44.6260 C.3   2598  COA2598     0.5254
      3  N3A       15.8250    5.8480   44.7280 N.2   2598  COA2598    -0.0055
      4  C4A       14.6820    6.4210   44.3140 C.2   2598  COA2598     0.3518
      5  C5A       13.6210    5.5930   43.7300 C.2   2598  COA2598     0.2526
      6  C6A       13.9210    4.1380   43.6470 C.2   2598  COA2598     0.4393
      7  N6A       13.0640    3.2400   43.1260 N.pl3 2598  COA2598     0.2180
      8  N7A       12.6130    6.4320   43.4240 N.2   2598  COA2598    -0.2095
      9  C8A       13.0070    7.6820   43.7820 C.3   2598  COA2598     0.3377
     10  N9A       14.2420    7.6560   44.3290 N.pl3 2598  COA2598    -0.1439
     11  C1B       15.0330    8.7810   44.8260 C.3   2598  COA2598     0.3185
     12  C2B       15.7910    8.4880   46.1170 C.3   2598  COA2598     0.2543
     13  O2B       15.1080    8.7420   47.3580 O.3   2598  COA2598    -0.2131
     14  C3B       17.0470    9.3260   45.9850 C.3   2598  COA2598     0.1928
     15  O3B       16.7430   10.7070   46.2030 O.3   2598  COA2598    -0.2673
     16  P3B       16.5300   11.5310   47.5920 P.3   2598  COA2598     0.5327
     17  O7A       16.0190   12.8750   47.1560 O.2   2598  COA2598    -0.2224
     18  O8A       15.5720   10.6940   48.4040 O.3   2598  COA2598    -0.1145
     19  O9A       17.8860   11.6460   48.2300 O.3   2598  COA2598    -0.1145
     20  C4B       17.3450    9.1710   44.5000 C.3   2598  COA2598     0.1795
     21  O4B       16.0930    8.9210   43.8630 O.3   2598  COA2598    -0.3136
     22  C5B       18.4270    8.1580   44.0660 C.3   2598  COA2598     0.1812
     23  O5B       18.2430    6.7180   44.2150 O.3   2598  COA2598    -0.3112
     24  P1A       19.6240    5.8750   44.3890 P.3   2598  COA2598     0.2189
     25  O1A       20.2580    6.4940   45.6170 O.3   2598  COA2598    -0.4371
     26  O2A       19.5140    4.3940   44.1790 O.2   2598  COA2598    -0.5170
     27  O3A       20.3910    6.3690   43.1610 O.3   2598  COA2598    -0.2703
     28  P2A       21.8520    6.8590   43.2270 P.3   2598  COA2598     0.2188
     29  O4A       22.6130    6.2090   44.2860 O.3   2598  COA2598    -0.4371
     30  O5A       21.8210    8.3250   43.1010 O.2   2598  COA2598    -0.5170
     31  O6A       22.0900    6.2220   41.8330 O.3   2598  COA2598    -0.3138
     32  CBP       21.7370    5.7790   39.5010 C.3   2598  COA2598     0.0645
     33  CCP       21.2690    6.5330   40.7330 C.3   2598  COA2598     0.1519
     34  CDP       20.6750    5.9390   38.4160 C.3   2598  COA2598     0.0056
     35  CEP       23.0370    6.4040   39.0010 C.3   2598  COA2598     0.0056
     36  CAP       21.9090    4.3100   39.8920 C.3   2598  COA2598     0.2312
     37  OAP       20.6690    3.8010   40.3750 O.3   2598  COA2598    -0.2131
     38  C9P       22.3790    3.4350   38.7880 C.2   2598  COA2598     0.2719
     39  O9P       23.5420    3.4480   38.4510 O.2   2598  COA2598    -0.2706
     40  N8P       21.4370    2.6620   38.2400 N.am  2598  COA2598    -0.2028
     41  C7P       21.6950    1.6810   37.2230 C.3   2598  COA2598     0.1248
     42  C6P       22.0110    2.2720   35.8610 C.3   2598  COA2598     0.1102
     43  C5P       20.9170    3.1320   35.2300 C.2   2598  COA2598     0.2432
     44  O5P       19.7400    2.8760   35.3110 O.2   2598  COA2598    -0.2733
     45  N4P       21.3780    4.1840   34.6070 N.am  2598  COA2598    -0.2044
     46  C3P       20.6050    5.3240   34.2760 C.3   2598  COA2598     0.1276
     47  C2P       20.3210    5.4040   32.8020 C.3   2598  COA2598     0.0920
     48  S1P       21.7100    5.0130   31.8060 S.3   2598  COA2598    -0.0802
@<TRIPOS>BOND
     1    48    47    1
     2    47    46    1
     3    46    45    1
     4    45    43   am
     5    43    44    2
     6    43    42    1
     7    42    41    1
     8    41    40    1
     9    40    38   am
    10    34    32    1
    11    39    38    2
    12    38    36    1
    13    35    32    1
    14    32    36    1
    15    32    33    1
    16    36    37    1
    17    33    31    1
    18    31    28    1
    19    30    28    2
    20     7     6    1
    21    27    28    1
    22    27    24    1
    23    28    29    1
    24     8     5    2
    25     8     9    1
    26     6     5    1
    27     6     1    2
    28     5     4    1
    29     9    10    1
    30    21    20    1
    31    21    11    1
    32    22    23    1
    33    22    20    1
    34     1     2    1
    35    26    24    2
    36    23    24    1
    37     4    10    1
    38     4     3    2
    39    10    11    1
    40    24    25    1
    41    20    14    1
    42     2     3    1
    43    11    12    1
    44    14    12    1
    45    14    15    1
    46    12    13    1
    47    15    16    1
    48    17    16    2
    49    16    19    1
    50    16    18    1
