@<TRIPOS>MOLECULE
3owd_MEY_A_1.pdb
 34 38 0 0 0
SMALL
GASTEIGER

@<TRIPOS>ATOM
      1  C1        -3.8920    8.1520   23.8240 C.ar    1  MEY1        0.0000
      2  C2        -3.8990    6.8010   24.1600 C.ar    1  MEY1        0.0000
      3  C3        -3.4850    7.0920   19.1550 C.ar    1  MEY1        0.0014
      4  C4        -3.7850    8.5440   22.5040 C.ar    1  MEY1        0.0000
      5  C5        -3.8080    5.8550   23.1500 C.ar    1  MEY1        0.0013
      6  C6        -3.5780    7.9990   20.1880 C.ar    1  MEY1        0.0001
      7  C7        -0.5250    5.6400   22.5430 C.3     1  MEY1        0.0510
      8  C8        -0.2030    6.9560   22.8600 C.2     1  MEY1       -0.0032
      9  C9        -3.5000    5.7490   19.4500 C.ar    1  MEY1        0.0200
     10  C10        0.0160    5.9520   20.2220 C.2     1  MEY1        0.0277
     11  C11       -0.6070   10.3890   23.3900 C.ar    1  MEY1        0.0338
     12  C12        1.7250   11.0630   24.7330 C.ar    1  MEY1        0.0862
     13  C13       -3.6800    7.5920   21.5070 C.ar    1  MEY1        0.0013
     14  C14       -3.7170    6.2440   21.8270 C.ar    1  MEY1        0.0187
     15  C15       -0.4490    5.1350   21.2490 C.2     1  MEY1       -0.0180
     16  C16        0.2400    7.7510   21.8160 C.2     1  MEY1        0.0941
     17  C17        0.3620    7.2480   20.5470 C.2     1  MEY1        0.1593
     18  C18        0.6140    9.9770   22.8910 C.ar    1  MEY1        0.1074
     19  C19        1.7750   10.3570   23.5490 C.ar    1  MEY1        0.2135
     20  C20        0.4930   11.4180   25.2460 C.ar    1  MEY1        0.2094
     21  C21       -3.6160    5.3480   20.7690 C.ar    1  MEY1        0.1235
     22  C22       -0.6570   11.1480   24.5360 C.ar    1  MEY1        0.0980
     23  C23        1.0950    9.3910   20.4980 C.1     1  MEY1        0.2765
     24  C24       -0.8510    3.7170   20.9460 C.3     1  MEY1        0.1380
     25  N25        0.8820    8.2690   19.7050 N.2     1  MEY1       -0.3195
     26  N26        0.6910    9.0770   21.7940 N.am    1  MEY1       -0.1792
     27  N27       -2.0360    3.2630   21.7210 N.3     1  MEY1       -0.0733
     28  O28        1.5110   10.4830   20.1350 O.2     1  MEY1       -0.1923
     29  O29       -4.5480    3.1780   21.9790 O.2     1  MEY1       -0.1516
     30  O30       -3.5760    3.0080   19.6750 O.2     1  MEY1       -0.1516
     31  O31        2.9960   10.0480   22.9820 O.3     1  MEY1       -0.2851
     32  O32        0.4060   12.1280   26.4350 O.3     1  MEY1       -0.2856
     33  S33       -3.5530    3.5770   21.0000 S.O2    1  MEY1        0.0771
     34 CL34       -2.2050   11.6910   25.1340 Cl      1  MEY1       -0.0789
@<TRIPOS>BOND
     1     3     9   ar
     2     3     6   ar
     3     9    21   ar
     4    30    33    2
     5    25    23    2
     6    25    17    2
     7    28    23    2
     8     6    13   ar
     9    10    17    1
    10    10    15    2
    11    23    26   am
    12    17    16    1
    13    21    33    1
    14    21    14   ar
    15    24    15    1
    16    24    27    1
    17    33    27    1
    18    33    29    2
    19    15     7    1
    20    13    14   ar
    21    13     4   ar
    22    26    16    1
    23    26    18    1
    24    16     8    2
    25    14     5   ar
    26     4     1   ar
    27     7     8    1
    28    18    11   ar
    29    18    19   ar
    30    31    19    1
    31     5     2   ar
    32    11    22   ar
    33    19    12   ar
    34     1     2   ar
    35    22    34    1
    36    22    20   ar
    37    12    20   ar
    38    20    32    1
