@<TRIPOS>MOLECULE
3owf_THP_A_1.pdb
 25 26 0 0 0
SMALL
GASTEIGER

@<TRIPOS>ATOM
      1  P2        35.8550  -28.7960    0.2790 P.3   150  THP150      0.5327
      2  O4P       35.7960  -29.8620    1.3540 O.3   150  THP150     -0.1145
      3  O5P       35.8670  -27.3600    0.8750 O.3   150  THP150     -0.1145
      4  O6P       34.7590  -29.0200   -0.7810 O.2   150  THP150     -0.2224
      5  P1        42.3640  -31.9270    1.0000 P.3   150  THP150      0.5326
      6  O1P       43.6290  -31.2700    0.5860 O.2   150  THP150     -0.2224
      7  O2P       42.3750  -33.4680    0.7680 O.3   150  THP150     -0.1145
      8  O3P       41.8560  -31.4270    2.4060 O.3   150  THP150     -0.1145
      9  O5'       37.2320  -28.9690   -0.5710 O.3   150  THP150     -0.2675
     10  C5'       38.4940  -28.9190    0.0980 C.3   150  THP150      0.1857
     11  C4'       39.3380  -30.0450   -0.5250 C.3   150  THP150      0.1748
     12  O4'       39.3160  -29.9040   -1.9610 O.3   150  THP150     -0.3340
     13  C3'       40.8340  -30.0180   -0.0790 C.3   150  THP150      0.1600
     14  O3'       41.2120  -31.4080   -0.0780 O.3   150  THP150     -0.2700
     15  C2'       41.4910  -29.2660   -1.2890 C.3   150  THP150      0.0847
     16  C1'       40.6470  -29.7580   -2.4800 C.3   150  THP150      0.2089
     17  N1        40.6160  -28.7160   -3.5290 N.am  150  THP150     -0.1794
     18  C2        41.5190  -28.7660   -4.5540 C.1   150  THP150      0.2844
     19  O2        42.3010  -29.7220   -4.6360 O.2   150  THP150     -0.1918
     20  N3        41.5810  -27.8070   -5.5210 N.2   150  THP150     -0.2455
     21  C4        40.7850  -26.7210   -5.4580 C.1   150  THP150      0.2134
     22  O4        40.9130  -25.8220   -6.3040 O.2   150  THP150     -0.2088
     23  C5        39.8460  -26.6320   -4.3820 C.2   150  THP150      0.0891
     24  C5M       38.8460  -25.5290   -4.3540 C.3   150  THP150      0.0462
     25  C6        39.7360  -27.6550   -3.4310 C.2   150  THP150      0.0877
@<TRIPOS>BOND
     1    22    21    2
     2    20    21    2
     3    20    18    2
     4    21    23    1
     5    19    18    2
     6    18    17   am
     7    23    24    1
     8    23    25    2
     9    17    25    1
    10    17    16    1
    11    16    12    1
    12    16    15    1
    13    12    11    1
    14    15    13    1
    15     4     1    2
    16     9    10    1
    17     9     1    1
    18    11    13    1
    19    11    10    1
    20    13    14    1
    21    14     5    1
    22     1     3    1
    23     1     2    1
    24     6     5    2
    25     7     5    1
    26     5     8    1
