@<TRIPOS>MOLECULE
3owh_52X_A_1.pdb
 21 22 0 0 0
SMALL
GASTEIGER

@<TRIPOS>ATOM
      1  C1        21.9080  -15.7730  -13.4960 C.ar  232  52X232      0.1318
      2  I1        20.7580  -19.7580  -14.4890 I     232  52X232     -0.0068
      3  N1        21.0340  -16.8310  -13.3550 N.2   232  52X232     -0.3965
      4  O1        27.3990  -20.2610  -17.1200 O.2   232  52X232     -0.2733
      5  C2        22.0380  -14.4780  -12.9600 C.ar  232  52X232      0.0334
      6  N2        25.8160  -18.8830  -16.3790 N.am  232  52X232     -0.2051
      7  O2        26.9910  -12.0950  -15.2500 O.3   232  52X232     -0.4292
      8  C3        23.1110  -13.6570  -13.3840 C.ar  232  52X232      0.0193
      9  N3        25.1560  -13.4810  -14.8350 N.am  232  52X232     -0.1424
     10  O3        25.3090  -11.4980  -13.7740 O.2   232  52X232     -0.2242
     11  C4        24.0770  -14.1060  -14.3100 C.ar  232  52X232      0.0769
     12  C5        23.9860  -15.3710  -14.8510 C.ar  232  52X232      0.0190
     13  C6        22.9660  -16.1760  -14.4700 C.ar  232  52X232      0.0299
     14  C7        22.7110  -17.5260  -14.9330 C.2   232  52X232      0.0172
     15  C8        21.5100  -17.8060  -14.1690 C.2   232  52X232      0.1561
     16  C11       23.4760  -18.3810  -15.9100 C.3   232  52X232      0.0529
     17  C12       24.8600  -18.6390  -15.3290 C.3   232  52X232      0.1199
     18  C14       26.3580  -20.0790  -16.5120 C.2   232  52X232      0.2419
     19  C15       25.6010  -21.1870  -15.8700 C.3   232  52X232      0.0964
     20  C18       25.7440  -12.3380  -14.5430 C.2   232  52X232      0.4255
     21  C33       28.1980  -11.9120  -14.5060 C.3   232  52X232      0.2574
@<TRIPOS>BOND
     1     4    18    2
     2    18     6   am
     3    18    19    1
     4     6    17    1
     5    16    17    1
     6    16    14    1
     7     7    20    1
     8     7    21    1
     9    14    13    2
    10    14    15    1
    11    12    13   ar
    12    12    11   ar
    13     9    20   am
    14     9    11    1
    15    20    10    2
    16     2    15    1
    17    13     1   ar
    18    11     8   ar
    19    15     3    2
    20     1     3    2
    21     1     5   ar
    22     8     5   ar
