@<TRIPOS>MOLECULE
3owj_1EL_A_1.pdb
 21 24 0 0 0
SMALL
GASTEIGER

@<TRIPOS>ATOM
      1  C1        23.2250    7.5970   11.3670 C.2   332  1EL332      0.1923
      2  O1        23.3960    8.4820   10.3420 O.2   332  1EL332     -0.2869
      3  C2        23.1890    6.2250   11.0990 C.2   332  1EL332      0.0440
      4  C3        23.0130    5.2980   12.1270 C.2   332  1EL332      0.0315
      5  C4        22.8730    5.7600   13.4340 C.2   332  1EL332      0.1169
      6  C5        22.9110    7.1200   13.6820 C.3   332  1EL332      0.1015
      7  C6        23.0840    8.0650   12.6740 C.2   332  1EL332      0.0271
      8  N7        22.6900    5.1540   14.6510 N.2   332  1EL332     -0.4062
      9  C8        22.6040    6.0560   15.6850 C.2   332  1EL332      0.1229
     10  C9        22.7390    7.3130   15.1260 C.2   332  1EL332      0.0111
     11  C10       22.4210    5.9360   17.0590 C.2   332  1EL332      0.0048
     12  C11       22.2750    4.5600   17.6680 C.3   332  1EL332      0.0334
     13  C12       22.3800    7.0930   17.8500 C.2   332  1EL332     -0.0032
     14  C13       22.5210    8.3740   17.2730 C.3   332  1EL332      0.1467
     15  C14       22.7040    8.4920   15.8790 C.2   332  1EL332     -0.0256
     16  C15       22.8640    9.8340   15.1940 C.3   332  1EL332      0.0276
     17  C16       22.2020    6.9820   19.2320 C.2   332  1EL332      0.0184
     18  C17       22.1610    8.1280   20.0230 C.2   332  1EL332      0.1105
     19  N18       22.2930    9.3410   19.4580 N.2   332  1EL332     -0.1780
     20  C19       22.4700    9.4920   18.1310 C.1   332  1EL332      0.1374
     21  O19       22.5930   10.7620   17.6490 O.2   332  1EL332     -0.2261
@<TRIPOS>BOND
     1     2     1    1
     2     3     1    1
     3     3     4    2
     4     1     7    2
     5     4     5    1
     6     7     6    1
     7     5     6    1
     8     5     8    2
     9     6    10    1
    10     8     9    2
    11    10     9    1
    12    10    15    2
    13    16    15    1
    14     9    11    1
    15    15    14    1
    16    11    12    1
    17    11    13    2
    18    14    13    1
    19    14    20    1
    20    21    20    2
    21    13    17    1
    22    20    19    2
    23    17    18    2
    24    19    18    1
