@<TRIPOS>MOLECULE
3owk_18E_A_1.pdb
 20 23 0 0 0
SMALL
GASTEIGER

@<TRIPOS>ATOM
      1  C1        23.1820    9.7780   11.0270 C.ar  332  18E332      0.1954
      2  O1        23.3270   10.6800   10.0260 O.3   332  18E332     -0.2866
      3  C2        23.0090   10.2040   12.3510 C.ar  332  18E332      0.0421
      4  C3        22.8670    9.2920   13.4000 C.ar  332  18E332      0.0055
      5  C4        22.8860    7.9370   13.0990 C.ar  332  18E332      0.0258
      6  C5        23.0730    7.4810   11.6850 C.ar  332  18E332     -0.0122
      7  C6        23.2110    8.4260   10.6850 C.ar  332  18E332      0.0382
      8  C7        22.7600    6.9370   14.0510 C.2   332  18E332      0.1271
      9  C8        22.8060    5.5330   13.6260 C.2   332  18E332      0.0163
     10  C9        22.9750    5.1320   12.3070 C.2   332  18E332     -0.0223
     11  C10       23.1090    6.1280   11.3430 C.3   332  18E332      0.0523
     12  N11       22.5790    6.9900   15.4000 N.2   332  18E332     -0.4061
     13  C12       22.4960    5.7340   15.9460 C.2   332  18E332      0.1167
     14  C13       22.6340    4.7680   14.8470 C.3   332  18E332      0.1274
     15  C14       22.3140    5.1370   17.2980 C.2   332  18E332      0.0234
     16  C15       22.1590    6.0020   18.5210 C.3   332  18E332      0.0350
     17  C16       22.2850    3.7420   17.4130 C.2   332  18E332      0.0974
     18  N17       22.4150    2.8950   16.3640 N.2   332  18E332     -0.2363
     19  C18       22.5880    3.3070   15.0810 C.2   332  18E332      0.1263
     20 CL18       22.7420    2.1460   13.7600 Cl    332  18E332     -0.0654
@<TRIPOS>BOND
     1     2     1    1
     2     7     1   ar
     3     7     6   ar
     4     1     3   ar
     5    11     6    1
     6    11    10    1
     7     6     5   ar
     8    10     9    2
     9     3     4   ar
    10     5     4   ar
    11     5     8    1
    12     9     8    1
    13     9    14    1
    14    20    19    1
    15     8    12    2
    16    14    19    1
    17    14    13    1
    18    19    18    2
    19    12    13    2
    20    13    15    1
    21    18    17    1
    22    15    17    2
    23    15    16    1
