@<TRIPOS>MOLECULE
3owl_19E_A_1.pdb
 20 23 0 0 0
SMALL
GASTEIGER

@<TRIPOS>ATOM
      1  C1        23.4930    7.4440   10.8380 C.ar  332  19E332      0.1957
      2  O1        23.7050    7.7690    9.5310 O.3   332  19E332     -0.2866
      3  C2        23.3250    8.4660   11.7630 C.ar  332  19E332      0.0420
      4  C3        23.1020    8.1710   13.1000 C.ar  332  19E332      0.0033
      5  C4        23.0580    6.8340   13.5280 C.ar  332  19E332      0.0028
      6  C5        23.2310    5.8110   12.5910 C.ar  332  19E332      0.0034
      7  C6        23.4480    6.1100   11.2480 C.ar  332  19E332      0.0420
      8  C7        22.9360    9.2320   13.9950 C.ar  332  19E332      0.0027
      9  C8        22.7200    8.9730   15.3410 C.ar  332  19E332      0.0320
     10  C9        22.6750    7.6500   15.7760 C.ar  332  19E332      0.1315
     11  C10       22.8420    6.5950   14.8920 C.ar  332  19E332      0.0343
     12  N11       22.4790    7.0970   17.0120 N.2   332  19E332     -0.4021
     13  C12       22.5100    5.7360   16.9940 C.ar  332  19E332      0.1312
     14  C13       22.7290    5.3460   15.6830 C.ar  332  19E332      0.0602
     15  C14       22.3650    4.7780   17.9910 C.ar  332  19E332      0.0269
     16  C15       22.1200    5.1740   19.4280 C.3   332  19E332      0.0354
     17  C16       22.4410    3.4390   17.6360 C.ar  332  19E332      0.0981
     18  N17       22.6570    3.0840   16.3610 N.ar  332  19E332     -0.2326
     19  C18       22.8070    3.9750   15.3640 C.ar  332  19E332      0.1408
     20 CL18       23.0730    3.2850   13.7560 Cl    332  19E332     -0.0612
@<TRIPOS>BOND
     1     2     1    1
     2     1     7   ar
     3     1     3   ar
     4     7     6   ar
     5     3     4   ar
     6     6     5   ar
     7     4     5   ar
     8     4     8   ar
     9     5    11   ar
    10    20    19    1
    11     8     9   ar
    12    11    14    2
    13    11    10   ar
    14     9    10   ar
    15    19    14   ar
    16    19    18   ar
    17    14    13   ar
    18    10    12    2
    19    18    17   ar
    20    13    12    2
    21    13    15   ar
    22    17    15   ar
    23    15    16    1
