@<TRIPOS>MOLECULE
3owm_HEC_A_1.pdb
 43 50 0 0 0
SMALL
GASTEIGER

@<TRIPOS>ATOM
      1 FE         35.1500   25.0860  148.6760 Fe    1004  HEC1004     0.0000
      2  CHA       36.0000   28.1620  147.5410 C.2   1004  HEC1004     0.0000
      3  CHB       37.6030   23.6840  146.7580 C.2   1004  HEC1004     0.0000
      4  CHC       34.5250   22.0640  150.0260 C.2   1004  HEC1004     0.0000
      5  CHD       32.4850   26.3780  150.3200 C.2   1004  HEC1004     0.0000
      6  NA        36.4830   25.7610  147.4140 N.ar  1004  HEC1004     0.0000
      7  C1A       36.6730   27.0890  147.0560 C.ar  1004  HEC1004     0.0000
      8  C2A       37.6930   27.1620  146.0550 C.ar  1004  HEC1004     0.0000
      9  C3A       38.1360   25.9440  145.7980 C.ar  1004  HEC1004     0.0000
     10  C4A       37.4110   25.0420  146.6720 C.ar  1004  HEC1004     0.0000
     11  CMA       39.2500   25.5550  144.8190 C.3   1004  HEC1004     0.0000
     12  CAA       38.1750   28.4680  145.4290 C.3   1004  HEC1004     0.0000
     13  CBA       39.1780   29.1600  146.3660 C.3   1004  HEC1004     0.0000
     14  CGA       40.3990   28.3360  146.7180 C.2   1004  HEC1004     0.0000
     15  O1A       41.2600   28.1100  145.8400 O.co2 1004  HEC1004     0.0000
     16  O2A       40.4900   27.8840  147.8820 O.co2 1004  HEC1004     0.0000
     17  NB        35.9260   23.2490  148.4390 N.2   1004  HEC1004     0.0000
     18  C1B       37.0110   22.8780  147.6770 C.2   1004  HEC1004     0.0000
     19  C2B       37.4210   21.5210  148.0460 C.2   1004  HEC1004     0.0000
     20  C3B       36.5170   21.0570  148.9340 C.2   1004  HEC1004     0.0000
     21  C4B       35.5980   22.1540  149.2050 C.2   1004  HEC1004     0.0000
     22  CMB       38.5830   20.7460  147.3530 C.3   1004  HEC1004     0.0000
     23  CAB       36.4620   19.6680  149.6300 C.3   1004  HEC1004     0.0000
     24  CBB       37.8270   19.3190  150.2860 C.3   1004  HEC1004     0.0000
     25  NC        33.7940   24.3730  149.9250 N.ar  1004  HEC1004     0.0000
     26  C1C       33.6520   23.0530  150.3190 C.ar  1004  HEC1004     0.0000
     27  C2C       32.5540   22.9400  151.2250 C.ar  1004  HEC1004     0.0000
     28  C3C       31.9090   24.0990  151.2460 C.ar  1004  HEC1004     0.0000
     29  C4C       32.7310   25.0360  150.4680 C.ar  1004  HEC1004     0.0000
     30  CMC       32.0100   21.5570  151.6890 C.3   1004  HEC1004     0.0000
     31  CAC       30.5460   24.4210  151.8640 C.3   1004  HEC1004     0.0000
     32  CBC       30.4470   24.2430  153.3950 C.3   1004  HEC1004     0.0000
     33  ND        34.3920   26.9020  148.8810 N.2   1004  HEC1004     0.0000
     34  C1D       33.2810   27.2340  149.6280 C.2   1004  HEC1004     0.0000
     35  C2D       33.0860   28.6580  149.6600 C.2   1004  HEC1004     0.0000
     36  C3D       34.1740   29.2100  148.8570 C.2   1004  HEC1004     0.0000
     37  C4D       34.9400   28.0730  148.3890 C.2   1004  HEC1004     0.0000
     38  CMD       31.9860   29.4260  150.3780 C.3   1004  HEC1004     0.0000
     39  CAD       34.3910   30.7100  148.6080 C.3   1004  HEC1004     0.0000
     40  CBD       35.0010   31.4360  149.7910 C.3   1004  HEC1004     0.0000
     41  CGD       36.4650   31.1760  150.0160 C.2   1004  HEC1004     0.0000
     42  O1D       37.1320   30.5810  149.1140 O.co2 1004  HEC1004     0.0000
     43  O2D       36.9920   31.5580  151.1030 O.co2 1004  HEC1004     0.0000
@<TRIPOS>BOND
     1    11     9    1
     2    12     8    1
     3    12    13    1
     4     9     8   ar
     5     9    10   ar
     6    15    14   ar
     7     8     7   ar
     8    13    14    1
     9    10     3    2
    10    10     6   ar
    11    14    16   ar
    12     3    18    1
    13     7     6   ar
    14     7     2    2
    15    22    19    1
    16     6     1    1
    17     2    37    1
    18    18    19    1
    19    18    17    2
    20    19    20    2
    21    37    36    1
    22    37    33    2
    23    17     1    1
    24    17    21    1
    25    39    36    1
    26    39    40    1
    27     1    33    1
    28     1    25    1
    29    36    35    2
    30    33    34    1
    31    20    21    1
    32    20    23    1
    33    42    41   ar
    34    21     4    2
    35    34    35    1
    36    34     5    2
    37    23    24    1
    38    35    38    1
    39    40    41    1
    40    25    26   ar
    41    25    29   ar
    42    41    43   ar
    43     4    26    1
    44    26    27   ar
    45     5    29    1
    46    29    28   ar
    47    27    28   ar
    48    27    30    1
    49    28    31    1
    50    31    32    1
