@<TRIPOS>MOLECULE
3own_3OW_B_1.pdb
 49 52 0 0 0
SMALL
GASTEIGER

@<TRIPOS>ATOM
      1  N1        20.7620   -0.7030  -16.7390 N.2   501  3OW501     -0.1993
      2  C2        22.0310   -1.1300  -17.3290 C.3   501  3OW501      0.1744
      3  C3        22.6630   -0.1000  -18.2570 C.3   501  3OW501      0.1780
      4  C4        23.1020    1.1250  -17.4690 C.3   501  3OW501      0.0442
      5  C5        24.3730    1.8070  -17.9350 C.3   501  3OW501      0.0808
      6  C6        25.5480    0.9370  -17.5190 C.2   501  3OW501      0.2410
      7  C7        21.7180   -2.4660  -18.0490 C.3   501  3OW501      0.1702
      8  O8        21.8130    0.2430  -19.3830 O.3   501  3OW501     -0.2209
      9  C9        24.5470    3.2430  -17.4100 C.3   501  3OW501      0.0087
     10  C10       23.2690    4.0570  -17.5630 C.3   501  3OW501      0.0005
     11  C11       25.6890    3.9570  -18.1430 C.3   501  3OW501      0.0005
     12  O12       25.7180    0.6450  -16.3510 O.2   501  3OW501     -0.2734
     13  O13       20.8980   -3.2690  -17.1970 O.3   501  3OW501     -0.3468
     14  C14       27.5510   -0.3230  -18.3760 C.3   501  3OW501      0.1151
     15  C15       28.7810    0.5600  -18.5730 C.3   501  3OW501      0.0217
     16  C16       30.0170   -0.3370  -18.6220 C.3   501  3OW501      0.0018
     17  C17       28.7190    1.3910  -19.8470 C.3   501  3OW501      0.0018
     18  N18       26.3650    0.5210  -18.4680 N.am  501  3OW501     -0.2054
     19  C19       19.3000    0.0330  -14.9360 C.ar  501  3OW501      0.0848
     20  C20       18.9440    1.2190  -14.2730 C.ar  501  3OW501      0.0278
     21  C21       17.6240    1.3470  -13.8240 C.ar  501  3OW501      0.0699
     22  C22       16.6590    0.3470  -14.0440 C.ar  501  3OW501      0.0278
     23  C23       17.0210   -0.8040  -14.7290 C.ar  501  3OW501      0.0848
     24  C24       18.3380   -0.9730  -15.1430 C.ar  501  3OW501      0.0233
     25  C25       20.6690   -0.2850  -15.4590 C.1   501  3OW501      0.1502
     26  C26       16.1260   -1.9750  -14.9850 C.1   501  3OW501      0.1507
     27  N27       17.2090    2.5360  -13.2120 N.pl3 501  3OW501     -0.1925
     28  C28       17.7650    2.9150  -11.9020 C.3   501  3OW501      0.1388
     29  S29       16.2830    3.4880  -14.0400 S.O2  501  3OW501      0.0588
     30  C30       15.3700    2.6390  -15.0600 C.3   501  3OW501      0.1999
     31  O31       15.3640   -2.4110  -14.1200 O.2   501  3OW501     -0.2222
     32  O32       21.6350   -0.2190  -14.7040 O.2   501  3OW501     -0.2222
     33  O33       17.2610    4.2100  -14.8580 O.2   501  3OW501     -0.1542
     34  O34       15.7680    4.5210  -13.1890 O.2   501  3OW501     -0.1542
     35  N35       16.1790   -2.4030  -16.2280 N.2   501  3OW501     -0.1955
     36  C36       15.6980   -3.6430  -16.7790 C.3   501  3OW501      0.1592
     37  C37       16.8150   -4.6120  -16.5260 C.ar  501  3OW501      0.0046
     38  C38       19.2300   -4.9720  -16.9340 C.ar  501  3OW501      0.0070
     39  C39       19.2120   -6.0340  -16.0290 C.ar  501  3OW501     -0.0019
     40  C40       18.0240   -6.3430  -15.3370 C.ar  501  3OW501     -0.0005
     41  C41       16.8230   -5.6200  -15.5360 C.ar  501  3OW501     -0.0021
     42  C42       18.0380   -4.2630  -17.1260 C.ar  501  3OW501     -0.0039
     43  C43       20.4760   -4.5570  -17.7000 C.3   501  3OW501      0.1687
     44  C44       15.2590   -3.5550  -18.2310 C.ar  501  3OW501      0.0048
     45  C45       15.3330   -4.6770  -19.0580 C.ar  501  3OW501     -0.0021
     46  C46       14.9170   -4.6140  -20.3970 C.ar  501  3OW501     -0.0003
     47  C47       14.4170   -3.4320  -20.9390 C.ar  501  3OW501     -0.0000
     48  C48       14.3080   -2.3040  -20.1110 C.ar  501  3OW501     -0.0003
     49  C49       14.7390   -2.3770  -18.7830 C.ar  501  3OW501     -0.0021
@<TRIPOS>BOND
     1    47    46   ar
     2    47    48   ar
     3    46    45   ar
     4    48    49   ar
     5    17    15    1
     6     8     3    1
     7    45    44   ar
     8    49    44   ar
     9    16    15    1
    10    15    14    1
    11    18    14    1
    12    18     6   am
    13     3     4    1
    14     3     2    1
    15    44    36    1
    16    11     9    1
    17     7     2    1
    18     7    13    1
    19     5     6    1
    20     5     4    1
    21     5     9    1
    22    43    13    1
    23    43    38    1
    24    10     9    1
    25     6    12    2
    26     2     1    1
    27    42    38   ar
    28    42    37   ar
    29    38    39   ar
    30    36    37    1
    31    36    35    1
    32     1    25    2
    33    37    41   ar
    34    35    26    2
    35    39    40   ar
    36    41    40   ar
    37    25    19    1
    38    25    32    2
    39    24    19   ar
    40    24    23   ar
    41    30    29    1
    42    26    23    1
    43    26    31    2
    44    19    20   ar
    45    33    29    2
    46    23    22   ar
    47    20    21   ar
    48    22    21   ar
    49    29    27    1
    50    29    34    2
    51    21    27    1
    52    27    28    1
