@<TRIPOS>MOLECULE
3own_3OX_A_1.pdb
 49 52 0 0 0
SMALL
GASTEIGER

@<TRIPOS>ATOM
      1  N1        -9.9390  -27.8780  -36.2410 N.2   500  3OX500     -0.1993
      2  C2       -10.5560  -28.3910  -37.4620 C.3   500  3OX500      0.1744
      3  C3        -9.6020  -29.1800  -38.3600 C.3   500  3OX500      0.1780
      4  C4        -9.1400  -30.4540  -37.6140 C.3   500  3OX500      0.0442
      5  C5        -8.7020  -31.6130  -38.5130 C.3   500  3OX500      0.0808
      6  C6        -9.9720  -32.3060  -38.9350 C.2   500  3OX500      0.2410
      7  C7       -11.1640  -27.1520  -38.1740 C.3   500  3OX500      0.1702
      8  O8        -8.4640  -28.4010  -38.7470 O.3   500  3OX500     -0.2209
      9  C9        -7.7370  -32.5630  -37.7660 C.3   500  3OX500      0.0087
     10  C10       -6.4130  -31.8910  -37.3870 C.3   500  3OX500      0.0005
     11  C11       -7.4720  -33.8280  -38.5930 C.3   500  3OX500      0.0005
     12  O12      -10.7130  -32.7530  -38.0790 O.2   500  3OX500     -0.2734
     13  O13      -12.0270  -26.4020  -37.3280 O.3   500  3OX500     -0.3468
     14  C14      -11.4350  -33.0290  -40.8170 C.3   500  3OX500      0.1151
     15  C15      -11.0680  -34.3030  -41.5620 C.3   500  3OX500      0.0217
     16  C16      -12.3720  -34.8650  -42.1450 C.3   500  3OX500      0.0018
     17  C17      -10.0210  -34.0770  -42.6560 C.3   500  3OX500      0.0018
     18  N18      -10.2460  -32.3990  -40.2310 N.am  500  3OX500     -0.2054
     19  C19       -9.5310  -27.6950  -33.9010 C.ar  500  3OX500      0.0848
     20  C20       -8.6900  -28.1970  -32.9140 C.ar  500  3OX500      0.0278
     21  C21       -8.2630  -27.3390  -31.8860 C.ar  500  3OX500      0.0699
     22  C22       -8.6820  -26.0070  -31.8330 C.ar  500  3OX500      0.0278
     23  C23       -9.5710  -25.5250  -32.7840 C.ar  500  3OX500      0.0848
     24  C24       -9.9880  -26.3800  -33.8010 C.ar  500  3OX500      0.0233
     25  C25      -10.1020  -28.4560  -35.0440 C.1   500  3OX500      0.1502
     26  C26      -10.0520  -24.0990  -32.8060 C.1   500  3OX500      0.1507
     27  N27       -7.3440  -27.8430  -30.9300 N.pl3 500  3OX500     -0.1925
     28  C28       -7.8200  -28.9430  -30.0860 C.3   500  3OX500      0.1388
     29  S29       -5.8700  -27.3680  -30.9420 S.O2  500  3OX500      0.0588
     30  C30       -5.7790  -25.8370  -31.4160 C.3   500  3OX500      0.1999
     31  O31       -9.3050  -23.1680  -32.5880 O.2   500  3OX500     -0.2222
     32  O32      -10.7390  -29.4990  -34.8560 O.2   500  3OX500     -0.2222
     33  O33       -5.1380  -28.1710  -31.9310 O.2   500  3OX500     -0.1542
     34  O34       -5.2460  -27.5510  -29.6560 O.2   500  3OX500     -0.1542
     35  N35      -11.3250  -23.9470  -33.0810 N.2   500  3OX500     -0.1955
     36  C36      -12.1910  -22.8200  -33.3850 C.3   500  3OX500      0.1592
     37  C37      -13.0360  -23.2420  -34.5250 C.ar  500  3OX500      0.0046
     38  C38      -13.0620  -24.3780  -36.6640 C.ar  500  3OX500      0.0070
     39  C39      -14.4630  -24.2550  -36.6680 C.ar  500  3OX500     -0.0019
     40  C40      -15.1420  -23.6620  -35.5990 C.ar  500  3OX500     -0.0005
     41  C41      -14.4230  -23.1700  -34.5060 C.ar  500  3OX500     -0.0021
     42  C42      -12.3530  -23.8870  -35.5650 C.ar  500  3OX500     -0.0039
     43  C43      -12.3770  -25.0820  -37.8130 C.3   500  3OX500      0.1687
     44  C44      -12.9730  -22.3230  -32.2030 C.ar  500  3OX500      0.0048
     45  C45      -13.4270  -23.1850  -31.1930 C.ar  500  3OX500     -0.0021
     46  C46      -14.1280  -22.6980  -30.0940 C.ar  500  3OX500     -0.0003
     47  C47      -14.3770  -21.3240  -29.9940 C.ar  500  3OX500     -0.0000
     48  C48      -13.9180  -20.4610  -30.9810 C.ar  500  3OX500     -0.0003
     49  C49      -13.2200  -20.9510  -32.0810 C.ar  500  3OX500     -0.0021
@<TRIPOS>BOND
     1    17    15    1
     2    16    15    1
     3    15    14    1
     4    14    18    1
     5    18     6   am
     6     6     5    1
     7     6    12    2
     8     8     3    1
     9    11     9    1
    10     5     9    1
    11     5     4    1
    12     3     4    1
    13     3     2    1
    14     7     2    1
    15     7    13    1
    16    43    13    1
    17    43    38    1
    18     9    10    1
    19     2     1    1
    20    39    38   ar
    21    39    40   ar
    22    38    42   ar
    23     1    25    2
    24    40    41   ar
    25    42    37   ar
    26    25    32    2
    27    25    19    1
    28    37    41   ar
    29    37    36    1
    30    19    24   ar
    31    19    20   ar
    32    24    23   ar
    33    36    35    1
    34    36    44    1
    35    35    26    2
    36    20    21   ar
    37    26    23    1
    38    26    31    2
    39    23    22   ar
    40    44    49   ar
    41    44    45   ar
    42    49    48   ar
    43    33    29    2
    44    21    22   ar
    45    21    27    1
    46    30    29    1
    47    45    46   ar
    48    48    47   ar
    49    29    27    1
    50    29    34    2
    51    27    28    1
    52    46    47   ar
