@<TRIPOS>MOLECULE
3owp_2SB_A_1.pdb
 21 22 0 0 0
SMALL
GASTEIGER

@<TRIPOS>ATOM
      1  C1        23.6580  -11.0120    0.4860 C.ar  2001  2SB2001     0.0039
      2  N1        23.4490   -8.5860    0.5120 N.3   2001  2SB2001    -0.1181
      3  O1        25.9560   -9.3740   -0.5100 O.2   2001  2SB2001    -0.2700
      4 BR1        32.3950   -9.9420    5.7230 Br    2001  2SB2001    -0.0457
      5  C2        24.1600   -9.7150    1.0330 C.3   2001  2SB2001     0.1929
      6  N2        26.5450   -9.7990    1.6470 N.am  2001  2SB2001    -0.1097
      7  O2        34.0400   -9.9680    3.2130 O.3   2001  2SB2001    -0.2860
      8  C3        25.5900   -9.6030    0.6380 C.2   2001  2SB2001     0.2792
      9  N3        27.8470   -9.7290    1.3280 N.3   2001  2SB2001    -0.1036
     10  C4        28.5400   -9.9630    2.3690 C.3   2001  2SB2001     0.1398
     11  C5        30.0090   -9.9580    2.4070 C.ar  2001  2SB2001    -0.0022
     12  C6        23.2100  -11.0960   -0.8160 C.ar  2001  2SB2001    -0.0024
     13  C7        22.7480  -12.3090   -1.3120 C.ar  2001  2SB2001    -0.0003
     14  C8        22.7490  -13.4390   -0.5100 C.ar  2001  2SB2001    -0.0000
     15  C9        23.1990  -13.3530    0.7950 C.ar  2001  2SB2001    -0.0003
     16  C10       23.6560  -12.1440    1.2950 C.ar  2001  2SB2001    -0.0024
     17  C11       30.4640   -9.9440    3.6900 C.ar  2001  2SB2001     0.0071
     18  C12       31.8080   -9.9510    3.8980 C.ar  2001  2SB2001     0.0732
     19  C13       32.7070   -9.9670    2.8680 C.ar  2001  2SB2001     0.2018
     20  C14       32.2460   -9.9800    1.5470 C.ar  2001  2SB2001     0.0423
     21  C15       30.8630   -9.9750    1.3050 C.ar  2001  2SB2001     0.0005
@<TRIPOS>BOND
     1    13    12   ar
     2    13    14   ar
     3    12     1   ar
     4     3     8    2
     5    14    15   ar
     6     1     5    1
     7     1    16   ar
     8     2     5    1
     9     8     5    1
    10     8     6   am
    11    15    16   ar
    12    21    20   ar
    13    21    11   ar
    14     9     6    1
    15     9    10    1
    16    20    19   ar
    17    10    11    1
    18    11    17   ar
    19    19     7    1
    20    19    18   ar
    21    17    18   ar
    22    18     4    1
