@<TRIPOS>MOLECULE
3ows_EQU_A_1.pdb
 20 23 0 0 0
SMALL
GASTEIGER

@<TRIPOS>ATOM
      1  C1         4.1090   -5.4710   18.4920 C.ar  200  EQU200      0.1957
      2  C2         5.4030   -4.9770   18.3680 C.ar  200  EQU200      0.0420
      3  C3         5.6720   -3.9360   17.4910 C.ar  200  EQU200      0.0029
      4  C4         4.5470   -3.3670   16.7040 C.ar  200  EQU200     -0.0041
      5  C5         3.2700   -3.8890   16.8610 C.ar  200  EQU200      0.0030
      6  C6         3.0570   -4.9390   17.7540 C.ar  200  EQU200      0.0420
      7  C10        6.9630   -3.4350   17.3500 C.ar  200  EQU200     -0.0002
      8  C11        7.2280   -2.3720   16.4810 C.ar  200  EQU200     -0.0046
      9  C12        6.2310   -1.7830   15.7050 C.ar  200  EQU200     -0.0260
     10  C13        4.8280   -2.2550   15.7670 C.ar  200  EQU200     -0.0261
     11  C16        6.5230   -0.6810   14.7780 C.3   200  EQU200      0.0290
     12  C17        5.3520    0.2710   14.7080 C.3   200  EQU200      0.0556
     13  C18        4.1460   -0.4160   14.0920 C.3   200  EQU200      0.0119
     14  C19        3.7140   -1.6250   14.9360 C.3   200  EQU200      0.0265
     15  C24        7.6760    0.2340   15.1700 C.3   200  EQU200      0.0125
     16  C25        7.4330    1.5110   14.3450 C.3   200  EQU200      0.0648
     17  C26        6.0000    1.3510   13.8900 C.2   200  EQU200      0.1502
     18  C27        5.0590    0.8760   16.0770 C.3   200  EQU200      0.0077
     19  O1         3.8670   -6.4940   19.3680 O.3   200  EQU200     -0.2866
     20  O26        5.3780    2.2430   13.3320 O.2   200  EQU200     -0.2961
@<TRIPOS>BOND
     1    20    17    2
     2    17    16    1
     3    17    12    1
     4    13    12    1
     5    13    14    1
     6    16    15    1
     7    12    11    1
     8    12    18    1
     9    11    15    1
    10    11     9    1
    11    14    10    1
    12     9    10   ar
    13     9     8   ar
    14    10     4   ar
    15     8     7   ar
    16     4     5   ar
    17     4     3   ar
    18     5     6   ar
    19     7     3   ar
    20     3     2   ar
    21     6     1   ar
    22     2     1   ar
    23     1    19    1
