@<TRIPOS>MOLECULE
3owu_EQU_A_1.pdb
 20 23 0 0 0
SMALL
GASTEIGER

@<TRIPOS>ATOM
      1  C1         8.3890   -2.7370    2.6440 C.ar  200  EQU200      0.1957
      2  C2         7.4410   -2.2670    1.7380 C.ar  200  EQU200      0.0420
      3  C3         7.3280   -0.8950    1.5260 C.ar  200  EQU200      0.0029
      4  C4         8.2180    0.0250    2.2750 C.ar  200  EQU200     -0.0041
      5  C5         9.1450   -0.4870    3.1720 C.ar  200  EQU200      0.0030
      6  C6         9.2240   -1.8660    3.3450 C.ar  200  EQU200      0.0420
      7  C10        6.3980   -0.3910    0.6260 C.ar  200  EQU200     -0.0002
      8  C11        6.2650    0.9730    0.4000 C.ar  200  EQU200     -0.0046
      9  C12        7.0630    1.9070    1.0540 C.ar  200  EQU200     -0.0260
     10  C13        8.0880    1.4790    2.0380 C.ar  200  EQU200     -0.0261
     11  C16        6.9240    3.3520    0.8160 C.3   200  EQU200      0.0290
     12  C17        8.2970    3.9810    0.8830 C.3   200  EQU200      0.0556
     13  C18        8.7910    3.9250    2.3180 C.3   200  EQU200      0.0119
     14  C19        8.9670    2.4730    2.7810 C.3   200  EQU200      0.0265
     15  C24        6.3960    3.7720   -0.5500 C.3   200  EQU200      0.0125
     16  C25        6.8630    5.2310   -0.6820 C.3   200  EQU200      0.0648
     17  C26        7.9730    5.3410    0.3430 C.2   200  EQU200      0.1502
     18  C27        9.2620    3.3200   -0.0960 C.3   200  EQU200      0.0077
     19  O1         8.5110   -4.0760    2.8430 O.3   200  EQU200     -0.2866
     20  O26        8.1360    6.3540    1.0090 O.2   200  EQU200     -0.2961
@<TRIPOS>BOND
     1    16    15    1
     2    16    17    1
     3    15    11    1
     4    18    12    1
     5    17    12    1
     6    17    20    2
     7     8     7   ar
     8     8     9   ar
     9     7     3   ar
    10    11    12    1
    11    11     9    1
    12    12    13    1
    13     9    10   ar
    14     3     2   ar
    15     3     4   ar
    16     2     1   ar
    17    10     4   ar
    18    10    14    1
    19     4     5   ar
    20    13    14    1
    21     1    19    1
    22     1     6   ar
    23     5     6   ar
