@<TRIPOS>MOLECULE
3owx_XRA_A_1.pdb
 28 31 0 0 0
SMALL
GASTEIGER

@<TRIPOS>ATOM
      1  N1        -5.9320   -5.3530  -14.1110 N.2   233  XRA233     -0.3317
      2  O1        -4.9060   -9.8510  -15.2270 O.2   233  XRA233     -0.4683
      3  C2        -5.1470   -6.2530  -14.7510 C.2   233  XRA233      0.1376
      4  N2        -4.6330   -3.5180  -14.9020 N.2   233  XRA233     -0.3135
      5  O2        -2.6570   -9.0080  -16.7910 O.2   233  XRA233     -0.4687
      6  C3        -3.9920   -5.7820  -15.5560 C.3   233  XRA233      0.1492
      7  N3        -2.7530   -3.7880  -16.2970 N.pl3 233  XRA233     -0.0962
      8  O3       -10.4380   -2.0920  -10.8600 O.2   233  XRA233     -0.2666
      9  C4        -3.7810   -4.3140  -15.5930 C.2   233  XRA233      0.2204
     10  N4        -6.5330   -3.1470  -13.4950 N.pl3 233  XRA233     -0.2306
     11  O4        -9.2820    0.9520  -11.2810 O.2   233  XRA233     -0.4458
     12  N5        -8.6340   -1.9280  -12.1640 N.am  233  XRA233     -0.2700
     13  C6        -5.6800   -4.0170  -14.1880 C.1   233  XRA233      0.2036
     14  C7        -5.4130   -7.6070  -14.6660 C.2   233  XRA233      0.0693
     15  C8        -4.6030   -8.5190  -15.3330 C.2   233  XRA233      0.1744
     16  C9        -3.4320   -8.0590  -16.1470 C.2   233  XRA233      0.1691
     17  C10       -3.1700   -6.6870  -16.2350 C.2   233  XRA233      0.0292
     18  C12       -6.2680  -10.2680  -15.3720 C.3   233  XRA233      0.2526
     19  C14       -1.4430   -8.7370  -17.5030 C.3   233  XRA233      0.2526
     20  C17       -6.6900   -3.3010  -12.0550 C.3   233  XRA233      0.1247
     21  C18       -8.2010   -3.2930  -11.8580 C.3   233  XRA233      0.1161
     22  C20       -7.8160   -1.1670  -13.1200 C.3   233  XRA233      0.1161
     23  C21       -7.2790   -2.1060  -14.1990 C.3   233  XRA233      0.1247
     24  C22       -9.7250   -1.4150  -11.5830 C.2   233  XRA233      0.2839
     25  C23      -10.1200    0.0080  -11.8060 C.ar  233  XRA233      0.1987
     26  C25       -9.9080    2.2430  -11.6480 C.ar  233  XRA233      0.1798
     27  C26      -11.0620    1.9620  -12.3540 C.ar  233  XRA233      0.0440
     28  C27      -11.2000    0.5890  -12.4540 C.ar  233  XRA233      0.0455
@<TRIPOS>BOND
     1    19     5    1
     2     5    16    1
     3     7     9    1
     4    17    16    2
     5    17     6    1
     6    16    15    1
     7     9     6    1
     8     9     4    2
     9     6     3    1
    10    18     2    1
    11    15     2    1
    12    15    14    2
    13     4    13    2
    14     3    14    1
    15     3     1    2
    16    23    10    1
    17    23    22    1
    18    13     1    2
    19    13    10    1
    20    10    20    1
    21    22    12    1
    22    28    27   ar
    23    28    25   ar
    24    27    26   ar
    25    12    21    1
    26    12    24   am
    27    20    21    1
    28    25    24    1
    29    25    11   ar
    30    26    11   ar
    31    24     8    2
