@<TRIPOS>MOLECULE
3owy_EQU_A_1.pdb
 20 23 0 0 0
SMALL
GASTEIGER

@<TRIPOS>ATOM
      1  C1        21.5390    5.6380    9.0460 C.ar  200  EQU200      0.1957
      2  C2        22.0640    5.1810    7.8340 C.ar  200  EQU200      0.0420
      3  C3        22.9970    4.1450    7.8260 C.ar  200  EQU200      0.0029
      4  C4        23.4010    3.5610    9.1320 C.ar  200  EQU200     -0.0041
      5  C5        22.8590    4.0430   10.3150 C.ar  200  EQU200      0.0030
      6  C6        21.9320    5.0800   10.2620 C.ar  200  EQU200      0.0420
      7  C10       23.5430    3.6560    6.6330 C.ar  200  EQU200     -0.0002
      8  C11       24.4770    2.6180    6.6270 C.ar  200  EQU200     -0.0046
      9  C12       24.9040    2.0190    7.8120 C.ar  200  EQU200     -0.0260
     10  C13       24.3890    2.4610    9.1320 C.ar  200  EQU200     -0.0261
     11  C16       25.8800    0.9210    7.8380 C.3   200  EQU200      0.0290
     12  C17       25.3740   -0.0840    8.8560 C.3   200  EQU200      0.0556
     13  C18       25.5450    0.4740   10.2610 C.3   200  EQU200      0.0119
     14  C19       24.8330    1.8270   10.4430 C.3   200  EQU200      0.0265
     15  C24       26.0250    0.1220    6.5460 C.3   200  EQU200      0.0125
     16  C25       26.5160   -1.2600    7.0120 C.3   200  EQU200      0.0648
     17  C26       26.2220   -1.2650    8.4980 C.2   200  EQU200      0.1502
     18  C27       23.9290   -0.4790    8.5820 C.3   200  EQU200      0.0077
     19  O1        20.6310    6.6520    9.0500 O.3   200  EQU200     -0.2866
     20  O26       26.8960   -1.8850    9.3110 O.2   200  EQU200     -0.2961
@<TRIPOS>BOND
     1    15    16    1
     2    15    11    1
     3     8     7   ar
     4     8     9   ar
     5     7     3   ar
     6    16    17    1
     7     9    11    1
     8     9    10   ar
     9     3     2   ar
    10     3     4   ar
    11     2     1   ar
    12    11    12    1
    13    17    12    1
    14    17    20    2
    15    18    12    1
    16    12    13    1
    17     1    19    1
    18     1     6   ar
    19    10     4   ar
    20    10    14    1
    21     4     5   ar
    22    13    14    1
    23     6     5   ar
