@<TRIPOS>MOLECULE
3ox1_695_B_1.pdb
 21 22 0 0 0
SMALL
GASTEIGER

@<TRIPOS>ATOM
      1  C1        -3.6160   -4.0680  -15.6910 C.ar  233  695233     -0.0163
      2  N1        -6.8670   -8.8370  -15.7120 N.3   233  695233     -0.0762
      3  O1        -6.4660   -7.5490  -13.4700 O.2   233  695233     -0.1516
      4  S1        -5.7520   -8.4730  -14.6180 S.O2  233  695233      0.0769
      5  C2        -2.6030   -3.3310  -16.3100 C.ar  233  695233     -0.0039
      6  N2        -4.4780   -1.0960  -13.7620 N.am  233  695233     -0.1822
      7  O2        -5.2110   -9.8980  -14.0260 O.2   233  695233     -0.1516
      8  C3        -1.5910   -3.9730  -17.0240 C.ar  233  695233     -0.0003
      9  O3        -3.2220   -0.3750  -12.0440 O.2   233  695233     -0.2730
     10  C4        -1.5780   -5.3570  -17.1320 C.ar  233  695233     -0.0000
     11  C5        -2.5780   -6.1040  -16.5210 C.ar  233  695233     -0.0002
     12  C6        -3.5950   -5.4630  -15.8000 C.ar  233  695233     -0.0023
     13  C7        -4.5860   -6.2380  -15.2030 C.ar  233  695233      0.0197
     14  C8        -4.5750   -7.6290  -15.3070 C.ar  233  695233      0.1235
     15  C9        -3.5580   -8.2600  -16.0270 C.ar  233  695233      0.0200
     16  C10       -2.5590   -7.4970  -16.6330 C.ar  233  695233      0.0014
     17  C13       -7.7650   -7.8130  -16.2030 C.3   233  695233      0.1362
     18  C16       -4.7260   -3.3450  -14.9380 C.3   233  695233      0.0705
     19  C17       -4.2190   -2.5350  -13.7460 C.2   233  695233      0.0669
     20  C19       -4.2610   -0.3300  -12.6820 C.2   233  695233      0.2458
     21  C20       -5.3560    0.6140  -12.2700 C.3   233  695233      0.0968
@<TRIPOS>BOND
     1    10     8   ar
     2    10    11   ar
     3     8     5   ar
     4    16    11   ar
     5    16    15   ar
     6    11    12   ar
     7     5     1   ar
     8    17     2    1
     9    15    14   ar
    10    12     1   ar
    11    12    13   ar
    12     2     4    1
    13     1    18    1
    14    14    13   ar
    15    14     4    1
    16    18    19    1
    17     4     7    2
    18     4     3    2
    19     6    19    2
    20     6    20    1
    21    20    21    1
    22    20     9    2
