@<TRIPOS>MOLECULE
3ox2_79X_A_1.pdb
 22 25 0 0 0
SMALL
GASTEIGER

@<TRIPOS>ATOM
      1  C1        23.9930  -11.0080  -12.6480 C.ar  233  79X233      0.0391
      2  N1        24.3130  -14.1980  -14.2140 N.am  233  79X233     -0.2529
      3  O1        25.3970   -9.0310  -12.6680 O.3   233  79X233     -0.2866
      4  C2        23.7770  -12.3050  -13.1130 C.ar  233  79X233     -0.0033
      5  O2        25.6230  -15.5020  -15.8220 O.2   233  79X233     -0.2696
      6  C3        24.6910  -12.8700  -14.0160 C.ar  233  79X233      0.0506
      7  O3        20.2180  -18.3860  -13.4990 O.3   233  79X233     -0.4684
      8  C4        25.8390  -12.2170  -14.4310 C.ar  233  79X233      0.0179
      9  O4        21.8360  -19.5480  -15.1310 O.3   233  79X233     -0.4684
     10  C5        26.0260  -10.9260  -13.9610 C.ar  233  79X233      0.0433
     11  C6        25.1250  -10.3190  -13.0900 C.ar  233  79X233      0.1955
     12  C7        22.7450  -13.3070  -12.8480 C.3   233  79X233      0.0524
     13  C8        23.0780  -14.3920  -13.6480 C.3   233  79X233      0.1070
     14  C10       24.5920  -15.3190  -15.0760 C.2   233  79X233      0.2528
     15  C11       23.5300  -16.3350  -14.7930 C.ar  233  79X233      0.0547
     16  C12       22.6570  -15.6960  -13.9050 C.ar  233  79X233      0.0040
     17  C13       21.5240  -16.3360  -13.4430 C.ar  233  79X233      0.0375
     18  C14       21.2920  -17.6340  -13.8950 C.ar  233  79X233      0.1721
     19  C15       22.1630  -18.2610  -14.7660 C.ar  233  79X233      0.1725
     20  C16       23.3060  -17.6120  -15.2390 C.ar  233  79X233      0.0443
     21  C21       19.1070  -17.8050  -12.8180 C.3   233  79X233      0.2526
     22  C23       22.8350  -20.3920  -15.6990 C.3   233  79X233      0.2526
@<TRIPOS>BOND
     1     5    14    2
     2    22     9    1
     3    20    15   ar
     4    20    19   ar
     5     9    19    1
     6    14    15    1
     7    14     2   am
     8    15    16   ar
     9    19    18   ar
    10     8     6   ar
    11     8    10   ar
    12     2     6    1
    13     2    13    1
    14     6     4   ar
    15    10    11   ar
    16    16    13    1
    17    16    17   ar
    18    18     7    1
    19    18    17   ar
    20    13    12    1
    21     7    21    1
    22     4    12    1
    23     4     1   ar
    24    11     3    1
    25    11     1   ar
