@<TRIPOS>MOLECULE
3ox3_4X4_A_1.pdb
 28 32 0 0 0
SMALL
GASTEIGER

@<TRIPOS>ATOM
      1  N1        25.8110  -14.0190  -15.2630 N.2   233  4X4233     -0.3699
      2  O1        28.4240  -20.1730  -17.3020 O.2   233  4X4233     -0.4458
      3  C2        24.7060  -14.6160  -14.7750 C.ar  233  4X4233      0.1474
      4  N2        22.7740  -14.8300  -13.5970 N.ar  233  4X4233     -0.3202
      5  O2        25.2730  -20.6100  -15.9420 O.2   233  4X4233     -0.2650
      6  C3        23.8120  -13.9770  -13.9080 C.ar  233  4X4233      0.0862
      7  N3        21.7390  -18.1500  -14.3260 N.ar  233  4X4233     -0.2426
      8  O3        27.1820  -12.1360  -15.3480 O.2   233  4X4233     -0.4505
      9  C4        24.0270  -12.6690  -13.4940 C.2   233  4X4233      0.0046
     10  N4        26.5230  -18.7590  -15.7910 N.am  233  4X4233     -0.1987
     11  C5        25.1790  -12.0500  -13.9900 C.3   233  4X4233      0.1266
     12  C6        26.0460  -12.7370  -14.8710 C.2   233  4X4233      0.2569
     13  C7        24.1960  -15.9990  -15.0380 C.ar  233  4X4233      0.0279
     14  C8        22.9750  -16.0200  -14.2200 C.ar  233  4X4233      0.0763
     15  C10       21.5830  -14.7950  -12.7750 C.3   233  4X4233      0.1344
     16  C11       21.1210  -16.1710  -13.0660 C.ar  233  4X4233      0.0195
     17  C12       21.9570  -16.8760  -13.9220 C.ar  233  4X4233      0.0946
     18  C14       20.6410  -18.7610  -13.8510 C.ar  233  4X4233      0.0989
     19  C15       19.7530  -18.1030  -12.9820 C.ar  233  4X4233      0.0204
     20  C16       19.9780  -16.7840  -12.5760 C.ar  233  4X4233      0.0007
     21  C17       24.6210  -17.2140  -15.8220 C.3   233  4X4233      0.0539
     22  C18       25.6160  -17.9890  -14.9610 C.3   233  4X4233      0.1204
     23  C20       26.3580  -20.0570  -16.0510 C.2   233  4X4233      0.2995
     24  C21       27.5590  -20.8390  -16.4750 C.ar  233  4X4233      0.2002
     25  C22       28.0130  -22.1230  -16.1880 C.ar  233  4X4233      0.0455
     26  C23       29.2150  -22.3030  -16.8580 C.ar  233  4X4233      0.0440
     27  C24       29.5210  -21.1390  -17.5500 C.ar  233  4X4233      0.1798
     28  C28       28.2910  -12.0190  -14.4440 C.3   233  4X4233      0.2550
@<TRIPOS>BOND
     1    27     2   ar
     2    27    26   ar
     3     2    24   ar
     4    26    25   ar
     5    24    25   ar
     6    24    23    1
     7    23     5    2
     8    23    10   am
     9    21    13    1
    10    21    22    1
    11    10    22    1
    12     8    12    1
    13     8    28    1
    14     1    12    2
    15     1     3    2
    16    13     3   ar
    17    13    14   ar
    18    12    11    1
    19     3     6   ar
    20     7    17   ar
    21     7    18   ar
    22    14    17    1
    23    14     4   ar
    24    11     9    1
    25    17    16   ar
    26     6     4   ar
    27     6     9    2
    28    18    19   ar
    29     4    15    1
    30    16    15    1
    31    16    20   ar
    32    19    20   ar
