@<TRIPOS>MOLECULE
3ox4_NAD_A_1.pdb
 44 48 0 0 0
SMALL
GASTEIGER

@<TRIPOS>ATOM
      1  PA        35.0780   -9.5990   73.3050 P.3   1385  NAD1385     0.2189
      2  O1A       34.1170   -9.1840   72.3060 O.2   1385  NAD1385    -0.5170
      3  O2A       36.1860  -10.6050   73.4230 O.3   1385  NAD1385    -0.4371
      4  O5B       35.3440   -8.2800   74.3290 O.3   1385  NAD1385    -0.3112
      5  C5B       36.5700   -8.1680   75.0840 C.3   1385  NAD1385     0.1813
      6  C4B       36.5030   -6.9160   76.0010 C.3   1385  NAD1385     0.1821
      7  O4B       36.9440   -5.7110   75.3130 O.3   1385  NAD1385    -0.3135
      8  C3B       35.1690   -6.5470   76.6520 C.3   1385  NAD1385     0.2184
      9  O3B       35.3470   -6.2840   78.0720 O.3   1385  NAD1385    -0.2174
     10  C2B       34.6840   -5.3300   75.9320 C.3   1385  NAD1385     0.2570
     11  O2B       33.7230   -4.4740   76.5720 O.3   1385  NAD1385    -0.2130
     12  C1B       35.9830   -4.7050   75.6100 C.3   1385  NAD1385     0.3186
     13  N9A       35.9440   -3.7180   74.4930 N.pl3 1385  NAD1385    -0.1439
     14  C8A       35.4090   -3.8390   73.1930 C.3   1385  NAD1385     0.3377
     15  N7A       35.5860   -2.7200   72.5070 N.2   1385  NAD1385    -0.2095
     16  C5A       36.2370   -1.8500   73.3350 C.2   1385  NAD1385     0.2526
     17  C6A       36.7190   -0.4990   73.2240 C.2   1385  NAD1385     0.4393
     18  N6A       36.5580    0.1800   72.0850 N.pl3 1385  NAD1385     0.2180
     19  N1A       37.3550    0.0950   74.3030 N.2   1385  NAD1385     0.0021
     20  C2A       37.5260   -0.5950   75.4740 C.3   1385  NAD1385     0.5254
     21  N3A       37.1070   -1.8660   75.6730 N.2   1385  NAD1385    -0.0055
     22  C4A       36.4640   -2.4440   74.5560 C.2   1385  NAD1385     0.3518
     23  O3        36.1910   -9.0520   72.2700 O.3   1385  NAD1385    -0.2703
     24  PN        36.8100   -9.5490   70.8460 P.3   1385  NAD1385     0.2189
     25  O1N       38.2270   -9.8830   71.1040 O.3   1385  NAD1385    -0.4371
     26  O2N       36.5000   -8.4370   69.9080 O.2   1385  NAD1385    -0.5170
     27  O5D       35.7870  -10.7990   70.6170 O.3   1385  NAD1385    -0.3112
     28  C5D       36.2650  -12.2020   70.6620 C.3   1385  NAD1385     0.1813
     29  C4D       35.0440  -13.1520   70.4450 C.3   1385  NAD1385     0.1799
     30  O4D       34.9340  -13.4690   69.0550 O.3   1385  NAD1385    -0.3327
     31  C3D       35.1910  -14.4850   71.1820 C.3   1385  NAD1385     0.2158
     32  O3D       33.9190  -14.8920   71.7280 O.3   1385  NAD1385    -0.2175
     33  C2D       35.7620  -15.4070   70.1410 C.3   1385  NAD1385     0.2309
     34  O2D       35.6070  -16.7740   70.5020 O.3   1385  NAD1385    -0.2158
     35  C1D       34.9770  -14.8980   68.8590 C.3   1385  NAD1385     0.2263
     36  N1N       35.6790  -15.1980   67.5600 N.pl3 1385  NAD1385    -0.2787
     37  C2N       35.0790  -16.2580   66.8000 C.3   1385  NAD1385     0.1244
     38  C3N       35.7100  -16.6050   65.5260 C.2   1385  NAD1385     0.0544
     39  C7N       35.1340  -17.6880   64.7020 C.2   1385  NAD1385     0.2818
     40  O7N       35.6520  -18.8240   64.5900 O.2   1385  NAD1385    -0.2670
     41  N7N       33.9810  -17.4830   64.0220 N.am  1385  NAD1385    -0.0839
     42  C4N       36.8690  -15.8750   65.1260 C.2   1385  NAD1385     0.0033
     43  C5N       37.4370  -14.8460   65.8800 C.2   1385  NAD1385     0.0157
     44  C6N       36.8490  -14.5010   67.0970 C.2   1385  NAD1385     0.0633
@<TRIPOS>BOND
     1    41    39   am
     2    40    39    2
     3    39    38    1
     4    42    38    2
     5    42    43    1
     6    38    37    1
     7    43    44    2
     8    37    36    1
     9    44    36    1
    10    36    35    1
    11    35    30    1
    12    35    33    1
    13    30    29    1
    14    26    24    2
    15    33    34    1
    16    33    31    1
    17    29    28    1
    18    29    31    1
    19    27    28    1
    20    27    24    1
    21    24    25    1
    22    24    23    1
    23    31    32    1
    24    18    17    1
    25    23     1    1
    26     2     1    2
    27    15    14    1
    28    15    16    2
    29    14    13    1
    30    17    16    1
    31    17    19    2
    32     1     3    1
    33     1     4    1
    34    16    22    1
    35    19    20    1
    36     4     5    1
    37    13    22    1
    38    13    12    1
    39    22    21    2
    40     5     6    1
    41     7    12    1
    42     7     6    1
    43    20    21    1
    44    12    10    1
    45    10    11    1
    46    10     8    1
    47     6     8    1
    48     8     9    1
