@<TRIPOS>MOLECULE
3oxc_ROC_A_1.pdb
 49 53 0 0 0
SMALL
GASTEIGER

@<TRIPOS>ATOM
      1  C          6.1770   -6.4120   18.3710 C.2   401  ROC401      0.2949
      2  O          6.7550   -5.9360   19.3950 O.2   401  ROC401     -0.2655
      3  N1         4.9600   -8.2310   17.1490 N.2   401  ROC401     -0.4009
      4  C2         5.1600   -7.5720   18.3300 C.2   401  ROC401      0.1854
      5  C3         4.4570   -7.9930   19.4390 C.2   401  ROC401      0.0330
      6  C4         3.4980   -9.0230   19.3430 C.2   401  ROC401     -0.0123
      7  C5         2.4130  -10.7300   18.0240 C.2   401  ROC401     -0.0150
      8  C6         2.3200  -11.4040   16.8280 C.2   401  ROC401     -0.0038
      9  C7         3.0110  -10.9320   15.7240 C.2   401  ROC401      0.0020
     10  C8         3.9420   -9.9240   15.8020 C.2   401  ROC401      0.0282
     11  C4A        3.3460   -9.6790   18.1210 C.3   401  ROC401      0.0963
     12  C8A        4.0940   -9.2390   17.0270 C.2   401  ROC401      0.1169
     13  N          6.4880   -5.9480   17.1620 N.am  401  ROC401     -0.1913
     14  CA         7.2860   -4.7110   16.9570 C.3   401  ROC401      0.1823
     15  C1         6.5450   -3.7840   15.9510 C.2   401  ROC401      0.2618
     16  O1         6.5510   -3.9780   14.7190 O.2   401  ROC401     -0.2715
     17  CB         8.6740   -5.0780   16.4420 C.3   401  ROC401      0.1195
     18  CG         9.4610   -5.8910   17.4900 C.2   401  ROC401      0.2630
     19  OD1        9.8230   -5.3730   18.5300 O.2   401  ROC401     -0.2716
     20  ND2        9.6760   -7.1570   17.2010 N.am  401  ROC401     -0.0877
     21  C9         5.6350   -0.3890   16.1730 C.3   401  ROC401      0.1879
     22  O2         5.3610    0.0030   17.5450 O.3   401  ROC401     -0.2198
     23  CA1        5.0990   -1.7890   15.8360 C.3   401  ROC401      0.1313
     24  N2         5.8840   -2.7870   16.5750 N.am  401  ROC401     -0.2027
     25  CB1        3.6060   -1.9610   16.0990 C.3   401  ROC401      0.0506
     26  CG1        3.0680   -3.3780   16.1940 C.ar  401  ROC401     -0.0204
     27  CD1        2.6420   -4.0520   15.0640 C.ar  401  ROC401     -0.0042
     28  CD2        2.9570   -4.0030   17.4320 C.ar  401  ROC401     -0.0042
     29  CE1        2.1460   -5.3490   15.1660 C.ar  401  ROC401     -0.0003
     30  CE2        2.4840   -5.3150   17.5500 C.ar  401  ROC401     -0.0003
     31  CZ         2.1210   -6.0060   16.3870 C.ar  401  ROC401     -0.0000
     32  N11        5.9060    0.6920   13.9550 N.3   401  ROC401     -0.2643
     33  CM         5.1910    0.7120   15.2220 C.3   401  ROC401      0.1075
     34  C21        5.1690    1.2770   12.8350 C.3   401  ROC401      0.1365
     35  CC         3.8210    0.6310   12.5220 C.2   401  ROC401      0.2558
     36  O3         3.8210   -0.5980   12.3830 O.2   401  ROC401     -0.2719
     37  C31        5.9850    1.1910   11.5490 C.3   401  ROC401      0.0254
     38  C3A        7.3300    1.9030   11.6680 C.3   401  ROC401      0.0032
     39  C41        8.1840    1.8200   10.3990 C.3   401  ROC401      0.0001
     40  C51        8.5800    0.3350   10.1580 C.3   401  ROC401      0.0000
     41  C61        9.4840   -0.0220   11.3390 C.3   401  ROC401      0.0000
     42  C71        8.5130   -0.0840   12.5620 C.3   401  ROC401      0.0014
     43  C7A        8.0800    1.3620   12.8860 C.3   401  ROC401      0.0161
     44  C81        7.2120    1.4010   14.1400 C.3   401  ROC401      0.0725
     45  N3         2.7730    1.4410   12.3490 N.am  401  ROC401     -0.2077
     46  CD         1.3960    1.0040   12.0530 C.3   401  ROC401      0.0788
     47  C11        0.5600    2.2900   11.9480 C.3   401  ROC401      0.0217
     48  C22        0.8740    0.1950   13.2370 C.3   401  ROC401      0.0217
     49  C32        1.3740    0.1330   10.7970 C.3   401  ROC401      0.0217
@<TRIPOS>BOND
     1    40    39    1
     2    40    41    1
     3    39    38    1
     4    49    46    1
     5    41    42    1
     6    37    38    1
     7    37    34    1
     8    38    43    1
     9    47    46    1
    10    46    45    1
    11    46    48    1
    12    45    35   am
    13    36    35    2
    14    35    34    1
    15    42    43    1
    16    34    32    1
    17    43    44    1
    18    32    44    1
    19    32    33    1
    20    16    15    2
    21    27    29   ar
    22    27    26   ar
    23    29    31   ar
    24    33    21    1
    25     9    10    2
    26     9     8    1
    27    10    12    1
    28    23    25    1
    29    23    21    1
    30    23    24    1
    31    15    24   am
    32    15    14    1
    33    25    26    1
    34    21    22    1
    35    26    28   ar
    36    31    30   ar
    37    17    14    1
    38    17    18    1
    39     8     7    2
    40    14    13    1
    41    12     3    2
    42    12    11    1
    43     3     4    2
    44    13     1   am
    45    20    18   am
    46    28    30   ar
    47    18    19    2
    48     7    11    1
    49    11     6    1
    50     4     1    1
    51     4     5    1
    52     1     2    2
    53     6     5    2
