@<TRIPOS>MOLECULE
3oxf_SAH_A_1.pdb
 26 28 0 0 0
SMALL
GASTEIGER

@<TRIPOS>ATOM
      1  N         37.2930  -12.7770   13.6400 N.3   437  SAH437     -0.1208
      2  CA        36.5190  -12.0050   12.6270 C.3   437  SAH437      0.1952
      3  CB        35.0440  -12.4090   12.6860 C.3   437  SAH437      0.0422
      4  CG        34.7210  -13.6570   11.8540 C.3   437  SAH437      0.0597
      5  SD        34.5870  -13.2990   10.1190 S.3   437  SAH437     -0.1375
      6  C         36.7000  -10.5360   12.8870 C.2   437  SAH437      0.3819
      7  O         37.4460  -10.1450   13.7850 O.co2 437  SAH437     -0.2441
      8  OXT       36.1260   -9.6770   12.2090 O.co2 437  SAH437     -0.2441
      9  C5'       35.6130  -14.5480    9.4020 C.3   437  SAH437      0.0899
     10  C4'       37.0970  -14.2750    9.6390 C.3   437  SAH437      0.1630
     11  O4'       37.4530  -14.6000   10.9870 O.3   437  SAH437     -0.3153
     12  C3'       38.0020  -15.1160    8.7620 C.3   437  SAH437      0.2168
     13  O3'       38.4030  -14.3710    7.6150 O.3   437  SAH437     -0.2175
     14  C2'       39.1910  -15.4510    9.6430 C.3   437  SAH437      0.2569
     15  O2'       40.2290  -14.4740    9.5100 O.3   437  SAH437     -0.2130
     16  C1'       38.6660  -15.3520   11.0590 C.3   437  SAH437      0.3185
     17  N9        38.3890  -16.7040   11.6050 N.pl3 437  SAH437     -0.1439
     18  C8        37.1730  -17.2800   11.7130 C.3   437  SAH437      0.3377
     19  N7        37.2550  -18.5200   12.2610 N.2   437  SAH437     -0.2095
     20  C5        38.5520  -18.7570   12.5060 C.2   437  SAH437      0.2526
     21  C6        39.3360  -19.8740   13.0750 C.2   437  SAH437      0.4393
     22  N6        38.7220  -21.0060   13.4890 N.pl3 437  SAH437      0.2180
     23  N1        40.6790  -19.7260   13.1540 N.2   437  SAH437      0.0021
     24  C2        41.3010  -18.6020   12.7360 C.3   437  SAH437      0.5254
     25  N3        40.6540  -17.5420   12.2160 N.2   437  SAH437     -0.0055
     26  C4        39.3010  -17.5580   12.0780 C.2   437  SAH437      0.3518
@<TRIPOS>BOND
     1    13    12    1
     2    12    10    1
     3    12    14    1
     4     9    10    1
     5     9     5    1
     6    15    14    1
     7    10    11    1
     8    14    16    1
     9     5     4    1
    10    11    16    1
    11    16    17    1
    12    17    18    1
    13    17    26    1
    14    18    19    1
    15     4     3    1
    16    26    25    2
    17    26    20    1
    18     8     6   ar
    19    25    24    1
    20    19    20    2
    21    20    21    1
    22     2     3    1
    23     2     6    1
    24     2     1    1
    25    24    23    1
    26     6     7   ar
    27    21    23    2
    28    21    22    1
