@<TRIPOS>MOLECULE
3oxg_SAH_A_1.pdb
 26 28 0 0 0
SMALL
GASTEIGER

@<TRIPOS>ATOM
      1  N         39.4110    1.7170   14.3380 N.3   432  SAH432     -0.1208
      2  CA        38.6950    2.5780   13.3270 C.3   432  SAH432      0.1952
      3  CB        37.8330    1.7730   12.3300 C.3   432  SAH432      0.0422
      4  CG        37.2660    2.6570   11.1970 C.3   432  SAH432      0.0597
      5  SD        38.0490    4.2570   11.0440 S.3   432  SAH432     -0.1375
      6  C         37.8840    3.7020   13.9630 C.2   432  SAH432      0.3819
      7  O         38.4510    4.6410   14.5500 O.co2 432  SAH432     -0.2441
      8  OXT       36.6380    3.7370   13.8600 O.co2 432  SAH432     -0.2441
      9  C5'       39.7530    3.7580   10.9200 C.3   432  SAH432      0.0899
     10  C4'       40.8540    4.7930   11.1720 C.3   432  SAH432      0.1630
     11  O4'       40.8140    5.2760   12.5280 O.3   432  SAH432     -0.3153
     12  C3'       42.2530    4.1430   11.0050 C.3   432  SAH432      0.2168
     13  O3'       43.1030    4.9420   10.1530 O.3   432  SAH432     -0.2175
     14  C2'       42.8250    4.0540   12.4170 C.3   432  SAH432      0.2569
     15  O2'       44.2520    4.1430   12.5010 O.3   432  SAH432     -0.2130
     16  C1'       42.1920    5.3240   12.9460 C.3   432  SAH432      0.3185
     17  N9        42.3910    5.4710   14.3870 N.pl3 432  SAH432     -0.1439
     18  C8        42.1790    4.5380   15.3250 C.3   432  SAH432      0.3377
     19  N7        42.4720    5.0400   16.5570 N.2   432  SAH432     -0.2095
     20  C5        42.8810    6.3090   16.3900 C.2   432  SAH432      0.2526
     21  C6        43.3390    7.3970   17.2810 C.2   432  SAH432      0.4393
     22  N6        43.3990    7.1600   18.6150 N.pl3 432  SAH432      0.2180
     23  N1        43.6790    8.5920   16.7190 N.2   432  SAH432      0.0021
     24  C2        43.6030    8.7810   15.3780 C.3   432  SAH432      0.5254
     25  N3        43.1950    7.8290   14.4980 N.2   432  SAH432     -0.0055
     26  C4        42.8270    6.5950   14.9480 C.2   432  SAH432      0.3518
@<TRIPOS>BOND
     1    13    12    1
     2     9     5    1
     3     9    10    1
     4    12    10    1
     5    12    14    1
     6     5     4    1
     7    10    11    1
     8     4     3    1
     9     3     2    1
    10    14    15    1
    11    14    16    1
    12    11    16    1
    13    16    17    1
    14     2     6    1
    15     2     1    1
    16     8     6   ar
    17     6     7   ar
    18    17    26    1
    19    17    18    1
    20    25    26    2
    21    25    24    1
    22    26    20    1
    23    18    19    1
    24    24    23    1
    25    20    19    2
    26    20    21    1
    27    23    21    2
    28    21    22    1
