@<TRIPOS>MOLECULE
3oxh_PMB_A_1.pdb
 11 11 0 0 0
SMALL
GASTEIGER

@<TRIPOS>ATOM
      1  C1        33.6590   10.5330    1.7010 C.ar  301  PMB301      0.0000
      2  C2        34.6050   10.1990    2.6630 C.ar  301  PMB301      0.0000
      3  C3        34.7270   10.9660    3.8060 C.ar  301  PMB301      0.0000
      4  C4        33.9010   12.0600    3.9630 C.ar  301  PMB301      0.0000
      5  C5        32.9520   12.4040    3.0050 C.ar  301  PMB301      0.0000
      6  C6        32.8270   11.6330    1.8620 C.ar  301  PMB301      0.0000
      7  S1        33.5670    9.6110    0.4200 S.3   301  PMB301      0.0000
      8  O1        33.0130    8.3120    0.8500 O.3   301  PMB301      0.0000
      9  O2        34.9450    9.4320   -0.0810 O.3   301  PMB301      0.0000
     10  O3        32.7000   10.2210   -0.6070 O.3   301  PMB301      0.0000
     11 HG         34.1400   13.2930    5.8690 Hg    301  PMB301      0.0000
@<TRIPOS>BOND
     1    10     7    1
     2     9     7    1
     3     7     8    1
     4     7     1    1
     5     1     6   ar
     6     1     2   ar
     7     6     5   ar
     8     2     3   ar
     9     5     4   ar
    10     3     4   ar
    11     4    11    1
