@<TRIPOS>MOLECULE
3oxh_XYL_A_1.pdb
 10 9 0 0 0
SMALL
GASTEIGER

@<TRIPOS>ATOM
      1  C1        19.5670   25.2700   -1.2110 C.3   302  XYL302      0.2175
      2  C2        19.0830   24.4470   -0.0040 C.3   302  XYL302      0.2175
      3  C3        17.5790   24.6430    0.2370 C.3   302  XYL302      0.2175
      4  C4        17.0960   23.8430    1.4480 C.3   302  XYL302      0.2175
      5  C5        17.8250   24.3360    2.7070 C.3   302  XYL302      0.2175
      6  O1        19.3430   26.6470   -0.9970 O.3   302  XYL302     -0.2175
      7  O2        19.4190   23.0750   -0.2510 O.3   302  XYL302     -0.2175
      8  O3        16.8130   24.2320   -0.9040 O.3   302  XYL302     -0.2175
      9  O4        15.6890   24.0530    1.6330 O.3   302  XYL302     -0.2175
     10  O5        17.1980   23.7230    3.8330 O.3   302  XYL302     -0.2175
@<TRIPOS>BOND
     1     1     6    1
     2     1     2    1
     3     8     3    1
     4     7     2    1
     5     2     3    1
     6     3     4    1
     7     4     9    1
     8     4     5    1
     9     5    10    1
