@<TRIPOS>MOLECULE
3oxi_SYY_A_1.pdb
 18 19 0 0 0
SMALL
GASTEIGER

@<TRIPOS>ATOM
      1  S          1.8160   -1.6330  -29.3460 S.2     1  SYY1       -0.0787
      2  C1         1.0620   -2.8060  -31.5600 C.ar    1  SYY1        0.0243
      3  N1        -0.9070   -1.3110  -32.0950 N.am    1  SYY1       -0.1782
      4  O1        -1.3960    0.5210  -30.0000 O.2     1  SYY1       -0.2443
      5  C2         0.1590   -1.7480  -31.3770 C.ar    1  SYY1        0.0861
      6  O2         0.2060    1.0350  -28.5700 O.3     1  SYY1       -0.4410
      7  S2        -2.6190    1.2370  -34.2240 S.2     1  SYY1       -0.0903
      8  C3         0.4330   -0.9710  -30.1370 C.ar    1  SYY1        0.1204
      9  O3        -0.6620   -2.9490  -33.6310 O.2     1  SYY1       -0.2726
     10  C5         2.0100   -2.8640  -30.5450 C.ar    1  SYY1        0.0370
     11  C6        -0.3010    0.2010  -29.5950 C.2     1  SYY1        0.3487
     12  C9        -0.5830    2.2240  -28.3940 C.3     1  SYY1        0.2560
     13  C11       -1.2560   -1.9560  -33.2110 C.2     1  SYY1        0.2505
     14  C12       -2.4540   -1.4610  -33.9770 C.3     1  SYY1        0.1200
     15  C14       -3.0560   -0.2110  -33.4020 C.ar    1  SYY1        0.0165
     16  C15       -3.9130    0.0820  -32.3230 C.ar    1  SYY1        0.0032
     17  C16       -4.1860    1.4540  -32.1980 C.ar    1  SYY1        0.0072
     18  C17       -3.5620    2.2280  -33.1660 C.ar    1  SYY1        0.0351
@<TRIPOS>BOND
     1     7    15   ar
     2     7    18   ar
     3    14    15    1
     4    14    13    1
     5     9    13    2
     6    15    16   ar
     7    13     3   am
     8    18    17   ar
     9    16    17   ar
    10     3     5    1
    11     2     5   ar
    12     2    10   ar
    13     5     8   ar
    14    10     1   ar
    15     8    11    1
    16     8     1   ar
    17     4    11    2
    18    11     6    1
    19     6    12    1
