@<TRIPOS>MOLECULE
3oxk_5GP_A_1.pdb
 24 26 0 0 0
SMALL
GASTEIGER

@<TRIPOS>ATOM
      1  P          1.9110    2.4300  -10.3600 P.3   125  5GP125      0.5327
      2  O1P        2.7130    2.0670  -11.5720 O.2   125  5GP125     -0.2224
      3  O2P        2.5090    2.0070   -9.0490 O.3   125  5GP125     -0.1145
      4  O3P        0.4540    2.0050  -10.4350 O.3   125  5GP125     -0.1145
      5  O5'        1.9580    4.0190  -10.0660 O.3   125  5GP125     -0.2675
      6  C5'        2.0110    4.9510  -11.1440 C.3   125  5GP125      0.1859
      7  C4'        1.5700    6.2710  -10.5680 C.3   125  5GP125      0.1801
      8  O4'        2.0450    7.2440  -11.4650 O.3   125  5GP125     -0.3326
      9  C3'        0.0440    6.4010  -10.4670 C.3   125  5GP125      0.2158
     10  O3'       -0.3660    6.7180   -9.1210 O.3   125  5GP125     -0.2175
     11  C2'       -0.2700    7.4920  -11.4930 C.3   125  5GP125      0.2310
     12  O2'       -1.3690    8.3640  -11.1910 O.3   125  5GP125     -0.2158
     13  C1'        1.0560    8.2440  -11.5630 C.3   125  5GP125      0.2293
     14  N9         1.3080    8.8930  -12.8590 N.pl3 125  5GP125     -0.2354
     15  C8         1.2310    8.2640  -14.0440 C.3   125  5GP125      0.2246
     16  N7         1.5480    9.1440  -15.0030 N.2   125  5GP125     -0.2322
     17  C5         1.8150   10.3290  -14.4140 C.2   125  5GP125      0.2182
     18  C6         2.1710   11.5660  -14.9030 C.1   125  5GP125      0.2372
     19  O6         2.2950   11.7780  -16.1450 O.2   125  5GP125     -0.2069
     20  N1         2.3880   12.5590  -14.0190 N.2   125  5GP125     -0.2485
     21  C2         2.2710   12.3820  -12.6830 C.1   125  5GP125      0.2531
     22  N2         2.4960   13.4260  -11.8650 N.pl3 125  5GP125     -0.0226
     23  N3         1.8930   11.2000  -12.1670 N.2   125  5GP125     -0.3074
     24  C4         1.6930   10.1600  -13.0360 C.2   125  5GP125      0.2300
@<TRIPOS>BOND
     1    19    18    2
     2    16    17    2
     3    16    15    1
     4    18    17    1
     5    18    20    2
     6    17    24    1
     7    15    14    1
     8    20    21    2
     9    24    14    1
    10    24    23    2
    11    14    13    1
    12    21    23    2
    13    21    22    1
    14     2     1    2
    15    13    11    1
    16    13     8    1
    17    11    12    1
    18    11     9    1
    19     8     7    1
    20     6     7    1
    21     6     5    1
    22     7     9    1
    23     9    10    1
    24     4     1    1
    25     1     5    1
    26     1     3    1
