@<TRIPOS>MOLECULE
3oxl_SAH_A_1.pdb
 26 28 0 0 0
SMALL
GASTEIGER

@<TRIPOS>ATOM
      1  N        -30.4370    2.4590   -5.6320 N.3   432  SAH432     -0.1208
      2  CA       -28.9690    2.1750   -5.7300 C.3   432  SAH432      0.1952
      3  CB       -28.6520    0.8230   -5.0830 C.3   432  SAH432      0.0422
      4  CG       -27.3940    0.8000   -4.1980 C.3   432  SAH432      0.0597
      5  SD       -26.0180    1.7220   -4.8300 S.3   432  SAH432     -0.1375
      6  C        -28.5310    2.1660   -7.1700 C.2   432  SAH432      0.3819
      7  O        -27.5580    1.4930   -7.5400 O.co2 432  SAH432     -0.2441
      8  OXT      -29.1330    2.8350   -8.0160 O.co2 432  SAH432     -0.2441
      9  C5'      -25.8460    2.9310   -3.5380 C.3   432  SAH432      0.0899
     10  C4'      -26.5090    4.2830   -3.8500 C.3   432  SAH432      0.1630
     11  O4'      -27.9140    4.2950   -3.5440 O.3   432  SAH432     -0.3153
     12  C3'      -25.9050    5.3970   -3.0100 C.3   432  SAH432      0.2168
     13  O3'      -24.8810    6.0820   -3.7440 O.3   432  SAH432     -0.2175
     14  C2'      -27.0850    6.2740   -2.6280 C.3   432  SAH432      0.2569
     15  O2'      -27.3350    7.2370   -3.6530 O.3   432  SAH432     -0.2130
     16  C1'      -28.2610    5.3200   -2.6060 C.3   432  SAH432      0.3185
     17  N9       -28.5010    4.6960   -1.2650 N.pl3 432  SAH432     -0.1439
     18  C8       -28.0660    3.4720   -0.8870 C.3   432  SAH432      0.3377
     19  N7       -28.4460    3.1610    0.3760 N.2   432  SAH432     -0.2095
     20  C5       -29.1600    4.2000    0.8460 C.2   432  SAH432      0.2526
     21  C6       -29.8610    4.5180    2.1180 C.2   432  SAH432      0.4393
     22  N6       -29.8670    3.6470    3.1570 N.pl3 432  SAH432      0.2180
     23  N1       -30.4890    5.7150    2.2050 N.2   432  SAH432      0.0021
     24  C2       -30.4930    6.5960    1.1800 C.3   432  SAH432      0.5254
     25  N3       -29.8760    6.3720   -0.0020 N.2   432  SAH432     -0.0055
     26  C4       -29.2020    5.2100   -0.2360 C.2   432  SAH432      0.3518
@<TRIPOS>BOND
     1     8     6   ar
     2     7     6   ar
     3     6     2    1
     4     2     1    1
     5     2     3    1
     6     3     4    1
     7     5     4    1
     8     5     9    1
     9    10    11    1
    10    10     9    1
    11    10    12    1
    12    13    12    1
    13    15    14    1
    14    11    16    1
    15    12    14    1
    16    14    16    1
    17    16    17    1
    18    17    18    1
    19    17    26    1
    20    18    19    1
    21    26    25    2
    22    26    20    1
    23    25    24    1
    24    19    20    2
    25    20    21    1
    26    24    23    1
    27    21    23    2
    28    21    22    1
