@<TRIPOS>MOLECULE
3oxo_COA_E_1.pdb
 48 50 0 0 0
SMALL
GASTEIGER

@<TRIPOS>ATOM
      1  N1A       46.6530   19.8570   84.6240 N.2   1305  COA1305     0.0021
      2  C2A       46.0680   20.4700   85.7210 C.3   1305  COA1305     0.5254
      3  N3A       45.6950   21.8010   85.6600 N.2   1305  COA1305    -0.0055
      4  C4A       45.9040   22.5180   84.5220 C.2   1305  COA1305     0.3518
      5  C5A       46.4880   21.9230   83.4080 C.2   1305  COA1305     0.2526
      6  C6A       46.8650   20.5800   83.4620 C.2   1305  COA1305     0.4393
      7  N6A       47.4270   19.9940   82.4100 N.pl3 1305  COA1305     0.2180
      8  N7A       46.5670   22.8580   82.4380 N.2   1305  COA1305    -0.2095
      9  C8A       46.0530   24.0220   82.9040 C.3   1305  COA1305     0.3377
     10  N9A       45.6370   23.8220   84.1900 N.pl3 1305  COA1305    -0.1439
     11  C1B       45.0150   24.8090   85.0780 C.3   1305  COA1305     0.3185
     12  C2B       46.0650   25.7190   85.6870 C.3   1305  COA1305     0.2543
     13  O2B       46.5710   25.1900   86.8940 O.3   1305  COA1305    -0.2131
     14  C3B       45.3190   27.0210   85.8850 C.3   1305  COA1305     0.1928
     15  O3B       44.8140   27.0860   87.1980 O.3   1305  COA1305    -0.2673
     16  P3B       44.4050   28.4960   87.8600 P.3   1305  COA1305     0.5327
     17  O7A       45.6330   29.3770   87.8980 O.3   1305  COA1305    -0.1145
     18  O8A       43.3200   29.1690   87.0450 O.2   1305  COA1305    -0.2224
     19  O9A       43.9190   28.2550   89.2690 O.3   1305  COA1305    -0.1145
     20  C4B       44.1680   26.9660   84.8820 C.3   1305  COA1305     0.1795
     21  O4B       44.1220   25.6440   84.3680 O.3   1305  COA1305    -0.3136
     22  C5B       44.3570   27.9640   83.7380 C.3   1305  COA1305     0.1812
     23  O5B       45.4420   27.5500   82.9280 O.3   1305  COA1305    -0.3112
     24  P1A       46.7080   28.4910   82.5700 P.3   1305  COA1305     0.2189
     25  O1A       46.6680   29.7930   83.3260 O.3   1305  COA1305    -0.4371
     26  O2A       47.9910   27.7390   82.8390 O.2   1305  COA1305    -0.5170
     27  O3A       46.5610   28.7790   80.9850 O.3   1305  COA1305    -0.2703
     28  P2A       45.3790   29.6690   80.3250 P.3   1305  COA1305     0.2188
     29  O4A       45.1100   30.9150   81.1420 O.3   1305  COA1305    -0.4371
     30  O5A       45.7500   30.0170   78.9010 O.2   1305  COA1305    -0.5170
     31  O6A       44.0720   28.7210   80.3500 O.3   1305  COA1305    -0.3138
     32  CBP       42.6500   26.9700   79.4650 C.3   1305  COA1305     0.0645
     33  CCP       44.0770   27.4400   79.7480 C.3   1305  COA1305     0.1519
     34  CDP       42.7370   25.5760   78.8570 C.3   1305  COA1305     0.0056
     35  CEP       41.8610   26.9120   80.7710 C.3   1305  COA1305     0.0056
     36  CAP       41.9530   27.9140   78.4840 C.3   1305  COA1305     0.2312
     37  OAP       42.6720   27.9370   77.2710 O.3   1305  COA1305    -0.2131
     38  C9P       40.5180   27.5220   78.2120 C.2   1305  COA1305     0.2719
     39  O9P       39.4840   27.9450   79.0790 O.2   1305  COA1305    -0.2706
     40  N8P       40.2940   26.7830   77.1220 N.am  1305  COA1305    -0.2028
     41  C7P       38.9670   26.3450   76.7330 C.3   1305  COA1305     0.1248
     42  C6P       38.1650   27.4550   76.0610 C.3   1305  COA1305     0.1102
     43  C5P       38.7410   27.8960   74.7290 C.2   1305  COA1305     0.2432
     44  O5P       39.8990   27.6050   74.3800 O.2   1305  COA1305    -0.2733
     45  N4P       37.8900   28.6020   73.9890 N.am  1305  COA1305    -0.2044
     46  C3P       38.2150   29.1770   72.7000 C.3   1305  COA1305     0.1276
     47  C2P       37.7560   30.6270   72.7750 C.3   1305  COA1305     0.0920
     48  S1P       36.9740   31.2610   71.2760 S.3   1305  COA1305    -0.0802
@<TRIPOS>BOND
     1    48    47    1
     2    46    47    1
     3    46    45    1
     4    45    43   am
     5    44    43    2
     6    43    42    1
     7    42    41    1
     8    41    40    1
     9    40    38   am
    10    37    36    1
    11    38    36    1
    12    38    39    2
    13    36    32    1
    14    34    32    1
    15    30    28    2
    16    32    33    1
    17    32    35    1
    18    33    31    1
    19    28    31    1
    20    28    27    1
    21    28    29    1
    22    27    24    1
    23     7     6    1
    24     8     9    1
    25     8     5    2
    26    24    26    2
    27    24    23    1
    28    24    25    1
    29     9    10    1
    30    23    22    1
    31     5     6    1
    32     5     4    1
    33     6     1    2
    34    22    20    1
    35    10     4    1
    36    10    11    1
    37    21    20    1
    38    21    11    1
    39     4     3    2
    40     1     2    1
    41    20    14    1
    42    11    12    1
    43     3     2    1
    44    12    14    1
    45    12    13    1
    46    14    15    1
    47    18    16    2
    48    15    16    1
    49    16    17    1
    50    16    19    1
