@<TRIPOS>MOLECULE
3oxt_3SB_A_1.pdb
 22 23 0 0 0
SMALL
GASTEIGER

@<TRIPOS>ATOM
      1  C1        24.5580  -10.7550    0.4120 C.ar  2001  3SB2001     0.0039
      2  N1        24.3810   -8.3210    0.4730 N.3   2001  3SB2001    -0.1181
      3  O1        26.9680   -8.9360   -0.2220 O.2   2001  3SB2001    -0.2695
      4  C2        25.0190   -9.4600    1.0570 C.3   2001  3SB2001     0.1933
      5  N2        27.4170   -9.6100    1.9590 N.am  2001  3SB2001    -0.0776
      6  O2        35.1480   -9.8310    3.4690 O.3   2001  3SB2001    -0.2865
      7  C3        26.5160   -9.3020    0.8590 C.2   2001  3SB2001     0.2842
      8  N3        28.7930   -9.5100    1.8760 N.2   2001  3SB2001    -0.1544
      9  O3        31.2540   -9.6820    0.6890 O.3   2001  3SB2001    -0.2864
     10  C4        29.4780   -9.8890    2.9590 C.2   2001  3SB2001     0.1225
     11  C5        30.9890   -9.8620    3.0590 C.ar  2001  3SB2001     0.0559
     12  C6        24.1340  -10.7520   -0.9130 C.ar  2001  3SB2001    -0.0024
     13  C7        23.7110  -11.9360   -1.5210 C.ar  2001  3SB2001    -0.0003
     14  C8        23.7200  -13.1280   -0.7950 C.ar  2001  3SB2001    -0.0000
     15  C9        24.1540  -13.1330    0.5220 C.ar  2001  3SB2001    -0.0003
     16  C10       24.5720  -11.9530    1.1340 C.ar  2001  3SB2001    -0.0024
     17  C11       31.5550   -9.9590    4.3280 C.ar  2001  3SB2001    -0.0140
     18  C12       30.6110  -10.0670    5.5130 C.3   2001  3SB2001     0.0313
     19  C13       32.9510   -9.9410    4.4810 C.ar  2001  3SB2001     0.0380
     20  C14       33.7650   -9.8420    3.3560 C.ar  2001  3SB2001     0.1986
     21  C15       33.1940   -9.7460    2.0910 C.ar  2001  3SB2001     0.0840
     22  C16       31.8050   -9.7590    1.9480 C.ar  2001  3SB2001     0.2001
@<TRIPOS>BOND
     1    13    12   ar
     2    13    14   ar
     3    12     1   ar
     4    14    15   ar
     5     3     7    2
     6     1     4    1
     7     1    16   ar
     8     2     4    1
     9    15    16   ar
    10     9    22    1
    11     7     4    1
    12     7     5   am
    13     8     5    1
    14     8    10    2
    15    22    21   ar
    16    22    11   ar
    17    21    20   ar
    18    10    11    1
    19    11    17   ar
    20    20     6    1
    21    20    19   ar
    22    17    19   ar
    23    17    18    1
