@<TRIPOS>MOLECULE
3oxv_478_A_1.pdb
 35 37 0 0 0
SMALL
GASTEIGER

@<TRIPOS>ATOM
      1  C1        -9.9910   -3.2400  -14.0640 C.3   200  478200      0.2536
      2  C2       -10.5710   -1.6550  -12.3310 C.2   200  478200      0.0606
      3  C3       -12.5950   -4.2610  -11.7240 C.2   200  478200      0.4215
      4  C4       -11.0830   -2.8810  -13.0650 C.3   200  478200      0.2390
      5  C5       -11.7780   -6.5040  -11.1530 C.3   200  478200      0.1347
      6  C6       -12.2780   -7.8260  -11.7340 C.3   200  478200      0.1898
      7  C7       -11.3800   -6.6110   -9.6740 C.3   200  478200      0.0508
      8  C8       -10.8910   -5.2700   -9.1470 C.ar  200  478200     -0.0204
      9  C9       -11.6910   -4.5190   -8.2910 C.ar  200  478200     -0.0042
     10  C10       -9.6490   -4.7630   -9.5260 C.ar  200  478200     -0.0042
     11  C11      -11.2400   -3.2840   -7.8250 C.ar  200  478200     -0.0003
     12  C12       -9.2010   -3.5250   -9.0670 C.ar  200  478200     -0.0003
     13  C13      -10.0000   -2.7860   -8.2070 C.ar  200  478200     -0.0000
     14  C14      -11.1590   -8.8500  -11.9820 C.3   200  478200      0.1304
     15  C15       -8.8450   -8.7920  -12.8880 C.3   200  478200      0.0958
     16  C16       -8.0340   -7.5920  -12.4040 C.3   200  478200      0.0178
     17  C17      -10.6670  -10.6490  -14.5970 C.ar  200  478200      0.1223
     18  C18       -9.4590  -11.2800  -14.8970 C.ar  200  478200      0.0213
     19  C19       -9.3640  -12.6740  -14.9500 C.ar  200  478200      0.0194
     20  C20      -10.4870  -13.4690  -14.7270 C.ar  200  478200      0.0892
     21  C21      -11.6990  -12.8450  -14.4350 C.ar  200  478200      0.0194
     22  C22      -11.7870  -11.4530  -14.3780 C.ar  200  478200      0.0213
     23  C23       -8.2100   -6.3750  -13.3070 C.3   200  478200      0.0015
     24  C24       -8.4020   -7.2670  -10.9650 C.3   200  478200      0.0015
     25  C25       -9.1580   -1.4040  -12.8370 C.2   200  478200      0.1715
     26  N1       -12.8280   -5.5040  -11.2990 N.am  200  478200     -0.1675
     27  N2       -10.2680   -8.4590  -13.0990 N.3   200  478200     -0.1529
     28  N3       -10.3920  -14.8280  -14.7880 N.pl3 200  478200     -0.1281
     29  O1       -11.2380   -3.9460  -12.1360 O.3   200  478200     -0.4287
     30  O2       -13.4480   -3.3870  -11.7360 O.2   200  478200     -0.2246
     31  O3       -13.2760   -8.3470  -10.8390 O.3   200  478200     -0.2197
     32  O4        -9.8860   -8.5420  -15.5650 O.2   200  478200     -0.1528
     33  O5       -12.0950   -8.5700  -14.7340 O.2   200  478200     -0.1528
     34  O6        -8.8900   -2.3500  -13.8750 O.2   200  478200     -0.4683
     35  S1       -10.7550   -9.0370  -14.5290 S.O2  200  478200      0.0634
@<TRIPOS>BOND
     1    32    35    2
     2    19    18   ar
     3    19    20   ar
     4    18    17   ar
     5    28    20    1
     6    33    35    2
     7    20    21   ar
     8    17    35    1
     9    17    22   ar
    10    35    27    1
    11    21    22   ar
    12     1    34    1
    13     1     4    1
    14    34    25    1
    15    23    16    1
    16    27    15    1
    17    27    14    1
    18     4     2    1
    19     4    29    1
    20    15    16    1
    21    25     2    2
    22    16    24    1
    23    29     3    1
    24    14     6    1
    25    30     3    2
    26     6     5    1
    27     6    31    1
    28     3    26   am
    29    26     5    1
    30     5     7    1
    31     7     8    1
    32    10     8   ar
    33    10    12   ar
    34     8     9   ar
    35    12    13   ar
    36     9    11   ar
    37    13    11   ar
