@<TRIPOS>MOLECULE
3oxw_017_B_1.pdb
 38 41 0 0 0
SMALL
GASTEIGER

@<TRIPOS>ATOM
      1  N1       -25.5120   12.4820    5.6510 N.pl3 200  017200     -0.1281
      2  C2       -24.6270   13.2710    5.0050 C.ar  200  017200      0.0892
      3  C3       -23.5340   13.8010    5.6820 C.ar  200  017200      0.0194
      4  C4       -22.6570   14.6200    4.9890 C.ar  200  017200      0.0213
      5  C5       -22.8290   14.8890    3.6330 C.ar  200  017200      0.1223
      6  C6       -23.9460   14.3780    2.9790 C.ar  200  017200      0.0213
      7  C7       -24.8480   13.5780    3.6720 C.ar  200  017200      0.0194
      8  S8       -21.8080   15.8250    2.8070 S.O2  200  017200      0.0634
      9  O9       -22.5560   16.3450    1.6870 O.2   200  017200     -0.1528
     10  O10      -21.3470   16.9060    3.6140 O.2   200  017200     -0.1528
     11  N11      -20.5550   14.9210    2.2700 N.3   200  017200     -0.1529
     12  C12      -19.8820   14.0660    3.2690 C.3   200  017200      0.0958
     13  C13      -18.3540   14.0400    3.0670 C.3   200  017200      0.0178
     14  C14      -17.7230   15.4230    3.0370 C.3   200  017200      0.0015
     15  C15      -17.6830   13.2470    4.1860 C.3   200  017200      0.0015
     16  C16      -20.8940   14.1680    1.0480 C.3   200  017200      0.1304
     17  C17      -19.9870   14.6130   -0.0930 C.3   200  017200      0.1898
     18  O18      -20.0430   13.6250   -1.1210 O.3   200  017200     -0.2197
     19  C19      -20.3330   15.9980   -0.6240 C.3   200  017200      0.1347
     20  N20      -19.2650   16.4510   -1.4820 N.am  200  017200     -0.1675
     21  C21      -18.3620   17.3970   -1.2240 C.2   200  017200      0.4211
     22  O22      -18.1730   18.0150   -0.1840 O.2   200  017200     -0.2246
     23  O23      -17.4620   17.5890   -2.3480 O.3   200  017200     -0.4345
     24  C24      -16.6530   18.7670   -2.3770 C.3   200  017200      0.2048
     25  C25      -15.2860   18.3260   -2.9100 C.3   200  017200      0.1884
     26  O26      -15.4510   18.3210   -4.3340 O.3   200  017200     -0.3265
     27  C27      -16.5080   19.2140   -4.7290 C.3   200  017200      0.2388
     28  O28      -17.5310   18.6160   -5.5480 O.3   200  017200     -0.3304
     29  C29      -18.8190   18.7390   -4.9420 C.3   200  017200      0.1451
     30  C30      -18.6650   19.6990   -3.7680 C.3   200  017200      0.0409
     31  C31      -17.1600   19.7120   -3.4540 C.3   200  017200      0.1016
     32  C32      -21.6310   16.0090   -1.4320 C.3   200  017200      0.0508
     33  C33      -21.9160   17.6290   -3.3420 C.ar  200  017200     -0.0042
     34  C34      -22.1580   18.9070   -3.8310 C.ar  200  017200     -0.0003
     35  C35      -22.4610   19.9430   -2.9440 C.ar  200  017200     -0.0000
     36  C36      -22.4900   19.6970   -1.5770 C.ar  200  017200     -0.0003
     37  C37      -22.2330   18.4130   -1.0840 C.ar  200  017200     -0.0042
     38  C38      -21.9370   17.3830   -1.9670 C.ar  200  017200     -0.0204
@<TRIPOS>BOND
     1    28    29    1
     2    28    27    1
     3    29    30    1
     4    27    26    1
     5    27    31    1
     6    26    25    1
     7    34    33   ar
     8    34    35   ar
     9    30    31    1
    10    31    24    1
    11    33    38   ar
    12    35    36   ar
    13    25    24    1
    14    24    23    1
    15    23    21    1
    16    38    32    1
    17    38    37   ar
    18    36    37   ar
    19    20    21   am
    20    20    19    1
    21    32    19    1
    22    21    22    2
    23    18    17    1
    24    19    17    1
    25    17    16    1
    26    16    11    1
    27     9     8    2
    28    11     8    1
    29    11    12    1
    30     8    10    2
    31     8     5    1
    32     6     5   ar
    33     6     7   ar
    34    14    13    1
    35    13    12    1
    36    13    15    1
    37     5     4   ar
    38     7     2   ar
    39     4     3   ar
    40     2     1    1
    41     2     3   ar
