@<TRIPOS>MOLECULE
3oxz_0LI_A_1.pdb
 39 43 0 0 0
SMALL
GASTEIGER

@<TRIPOS>ATOM
      1  N1        16.2310   -9.9090    7.9150 N.ar    1  0LI1       -0.2228
      2  N3        12.9000   -5.1270   23.2000 N.3     1  0LI1       -0.2665
      3  C4        17.3260   -9.9860   12.5720 C.1     1  0LI1       -0.0585
      4  C5        17.2980  -10.2030   14.0150 C.ar    1  0LI1        0.0382
      5  C6        17.8810  -11.3660   14.6810 C.ar    1  0LI1       -0.0142
      6  C7        17.7750  -11.4770   16.1130 C.ar    1  0LI1       -0.0035
      7  C8        17.1060  -10.4650   16.8650 C.ar    1  0LI1        0.0043
      8  C10       16.6420   -9.2130   14.7850 C.ar    1  0LI1        0.0125
      9  C13       14.7600   -7.7420   19.1280 C.ar    1  0LI1        0.0736
     10  C15       14.1970   -7.0990   21.4420 C.ar    1  0LI1       -0.0016
     11  C17       12.6950   -6.3770   19.5660 C.ar    1  0LI1        0.0701
     12  C20       12.1430   -5.7110   22.0850 C.3     1  0LI1        0.0992
     13  C21       13.8140   -4.0230   22.7780 C.3     1  0LI1        0.0899
     14  C22       14.6900   -3.5660   23.9660 C.3     1  0LI1        0.0897
     15  C24       12.0190   -4.6430   24.2810 C.3     1  0LI1        0.0899
     16  C81       17.8810   -8.3560    6.7910 C.ar    1  0LI1        0.0405
     17  C82       18.9680   -7.5460    7.0730 C.ar    1  0LI1        0.0256
     18  C83       19.4380   -7.4590    8.4160 C.ar    1  0LI1        0.1207
     19  N81       18.9160   -8.1000    9.4720 N.ar    1  0LI1       -0.1616
     20  N82       17.8350   -8.8910    9.1390 N.ar    1  0LI1       -0.2030
     21  C84       17.2570   -9.0790    7.8570 C.ar    1  0LI1        0.1646
     22  C1        16.1200  -10.2720    9.2430 C.ar    1  0LI1        0.1281
     23  C2        17.0820   -9.6650    9.9810 C.ar    1  0LI1        0.1451
     24  C3        17.2530   -9.8180   11.3670 C.1     1  0LI1       -0.0388
     25  C9        16.5350   -9.3160   16.1960 C.ar    1  0LI1        0.0560
     26  C11       18.6010  -12.4810   13.9240 C.3     1  0LI1        0.0317
     27  C12       15.8260   -8.2210   16.9350 C.2     1  0LI1        0.2690
     28  O1        15.4400   -7.2170   16.3280 O.2     1  0LI1       -0.2680
     29  N2        15.6540   -8.4150   18.2560 N.am    1  0LI1       -0.1755
     30  C14       15.0600   -7.7600   20.5120 C.ar    1  0LI1        0.0163
     31  C16       13.0080   -6.3980   21.0010 C.ar    1  0LI1       -0.0022
     32  C18       13.5810   -7.0510   18.6710 C.ar    1  0LI1        0.0202
     33  C19       11.4650   -5.6670   18.9560 C.3     1  0LI1        0.4184
     34  F1        11.6320   -4.3580   19.0130 F       1  0LI1       -0.1659
     35  F2        11.2790   -5.9720   17.6740 F       1  0LI1       -0.1659
     36  F3        10.3470   -6.0030   19.6050 F       1  0LI1       -0.1659
     37  C23       12.8390   -4.0700   25.4790 C.3     1  0LI1        0.0897
     38  C25       14.6190   -2.5080   26.1490 C.3     1  0LI1        0.0897
     39  N4        13.8310   -3.0380   25.0450 N.3     1  0LI1       -0.2691
@<TRIPOS>BOND
     1    16    17   ar
     2    16    21   ar
     3    17    18   ar
     4    21     1   ar
     5    21    20   ar
     6     1    22   ar
     7    18    19   ar
     8    20    19   ar
     9    20    23   ar
    10    22    23   ar
    11    23    24    1
    12    24     3    3
    13     3     4    1
    14    26     5    1
    15     4     5   ar
    16     4     8   ar
    17     5     6   ar
    18     8    25   ar
    19     6     7   ar
    20    25     7   ar
    21    25    27    1
    22    28    27    2
    23    27    29   am
    24    35    33    1
    25    29     9    1
    26    32     9   ar
    27    32    11   ar
    28    33    34    1
    29    33    11    1
    30    33    36    1
    31     9    30   ar
    32    11    31   ar
    33    30    10   ar
    34    31    10   ar
    35    31    12    1
    36    12     2    1
    37    13     2    1
    38    13    14    1
    39     2    15    1
    40    14    39    1
    41    15    37    1
    42    39    37    1
    43    39    38    1
