@<TRIPOS>MOLECULE
3oy0_OY0_A_1.pdb
 21 21 0 0 0
SMALL
GASTEIGER

@<TRIPOS>ATOM
      1  CAA       -0.7630    9.2030   14.8930 C.3   263  OY0263      0.0000
      2  CAB       -0.9660    6.4220   10.6070 C.3   263  OY0263      0.0005
      3  CAC       -2.4710    8.1060    9.7820 C.3   263  OY0263      0.0005
      4  CAD       -3.3330    5.8950   10.2970 C.3   263  OY0263      0.0005
      5  NAE       -5.3370   -0.4290   16.1280 N.3   263  OY0263      0.0392
      6  OAF       -4.6840    6.6930   13.0190 O.2   263  OY0263     -0.2730
      7  OAG       -7.3160    1.2060   16.6320 O.2   263  OY0263     -0.1503
      8  OAH       -5.3820    1.2190   18.1210 O.2   263  OY0263     -0.1503
      9  CAI       -3.0910    3.2550   14.8580 C.ar  263  OY0263      0.0180
     10  CAJ       -5.1380    4.4490   14.5580 C.ar  263  OY0263      0.0180
     11  CAK       -3.7510    2.2800   15.5990 C.ar  263  OY0263      0.0213
     12  CAL       -5.8180    3.4470   15.2740 C.ar  263  OY0263      0.0213
     13  CAM       -1.6300    8.1190   14.3540 C.3   263  OY0263      0.0005
     14  CAN       -1.4350    7.7540   12.9180 C.3   263  OY0263      0.0091
     15  NAO       -2.9380    5.3070   13.6040 N.am  263  OY0263     -0.1792
     16  CAP       -3.4910    6.4630   12.9350 C.2   263  OY0263      0.2451
     17  CAQ       -3.7530    4.3630   14.3540 C.ar  263  OY0263      0.0734
     18  CAR       -5.1150    2.3410   15.8070 C.ar  263  OY0263      0.1251
     19  CAS       -2.6560    7.4230   12.1320 C.3   263  OY0263      0.0785
     20  CAT       -2.3540    6.9510   10.7230 C.3   263  OY0263      0.0082
     21  SAU       -5.8580    1.0130   16.7430 S.O2  263  OY0263      0.0935
@<TRIPOS>BOND
     1     3    20    1
     2     4    20    1
     3     2    20    1
     4    20    19    1
     5    19    14    1
     6    19    16    1
     7    14    13    1
     8    16     6    2
     9    16    15   am
    10    15    17    1
    11    17    10   ar
    12    17     9   ar
    13    13     1    1
    14    10    12   ar
    15     9    11   ar
    16    12    18   ar
    17    11    18   ar
    18    18    21    1
    19     5    21    1
    20     7    21    2
    21    21     8    2
