@<TRIPOS>MOLECULE
3oy1_589_A_1.pdb
 35 40 0 0 0
SMALL
GASTEIGER

@<TRIPOS>ATOM
      1  C1       -17.3960   11.9000  -36.4350 C.ar    1  5891        0.0000
      2  C2       -18.3760   11.6940  -35.5180 C.ar    1  5891        0.0001
      3  C3       -18.3450   12.3980  -34.2390 C.ar    1  5891        0.0014
      4  C4       -17.3080   13.2680  -33.9990 C.ar    1  5891        0.0000
      5  C5       -16.3320   13.4410  -34.9370 C.ar    1  5891        0.0000
      6  C6       -16.3880   12.7750  -36.1330 C.ar    1  5891        0.0000
      7  C7       -19.3440   12.1770  -33.3190 C.ar    1  5891        0.0177
      8  C8       -20.3880   11.3190  -33.5110 C.ar    1  5891        0.0697
      9  C9       -20.3640   10.6910  -34.7470 C.ar    1  5891        0.0177
     10  C10      -19.4020   10.8450  -35.7290 C.ar    1  5891        0.0015
     11  N11      -21.3340   11.1230  -32.6040 N.ar    1  5891       -0.2423
     12  C12      -21.7130    9.9670  -32.0810 C.ar    1  5891        0.1708
     13  N13      -22.7020   10.2500  -31.2490 N.ar    1  5891       -0.1475
     14  N14      -22.8720   11.5740  -31.2630 N.ar    1  5891       -0.2023
     15  C15      -22.0140   12.0740  -32.0940 C.ar    1  5891        0.3522
     16  O16      -21.8700   13.2810  -32.3970 O.2     1  5891       -0.2444
     17  C17      -23.9180   11.9890  -30.3460 C.3     1  5891        0.1149
     18  C18      -25.1120   12.5780  -30.9870 C.3     1  5891        0.0566
     19  C19      -26.1970   12.5140  -29.9740 C.3     1  5891        0.1442
     20  O20      -25.8880   13.3920  -28.9400 O.3     1  5891       -0.3536
     21  C21      -24.6230   13.2110  -28.3240 C.3     1  5891        0.1442
     22  C22      -23.4830   12.9380  -29.2810 C.3     1  5891        0.0566
     23  C23      -21.2980    8.5610  -32.2970 C.ar    1  5891        0.0406
     24  C24      -20.0340    8.2450  -32.6630 C.ar    1  5891        0.0238
     25  C25      -19.6930    6.9450  -32.8320 C.ar    1  5891        0.1005
     26  N26      -20.5390    5.9800  -32.6720 N.ar    1  5891       -0.2277
     27  C27      -21.7910    6.2200  -32.3010 C.ar    1  5891        0.1476
     28  C28      -22.1760    7.5250  -32.1070 C.ar    1  5891        0.0388
     29  N29      -22.6050    5.1780  -32.1550 N.pl3   1  5891       -0.2221
     30  C30      -23.8990    5.2040  -31.5690 C.3     1  5891        0.0940
     31  C31      -24.6320    3.9500  -31.9480 C.3     1  5891        0.0216
     32  C32      -25.9780    3.8970  -31.2740 C.3     1  5891        0.0018
     33  C33      -25.8950    3.9370  -29.7770 C.3     1  5891        0.0001
     34  C34      -25.1140    5.1560  -29.3770 C.3     1  5891        0.0018
     35  C35      -23.7730    5.2590  -30.0680 C.3     1  5891        0.0216
@<TRIPOS>BOND
     1     1     6   ar
     2     1     2   ar
     3     6     5   ar
     4    10     2   ar
     5    10     9   ar
     6     2     3   ar
     7     5     4   ar
     8     9     8   ar
     9     3     4   ar
    10     3     7   ar
    11     8     7   ar
    12     8    11    1
    13    25    26   ar
    14    25    24   ar
    15    26    27   ar
    16    24    23   ar
    17    11    15   ar
    18    11    12   ar
    19    16    15    2
    20    27    29    1
    21    27    28   ar
    22    23    28   ar
    23    23    12    1
    24    29    30    1
    25    15    14   ar
    26    12    13   ar
    27    31    30    1
    28    31    32    1
    29    30    35    1
    30    32    33    1
    31    14    13   ar
    32    14    17    1
    33    18    17    1
    34    18    19    1
    35    17    22    1
    36    35    34    1
    37    19    20    1
    38    33    34    1
    39    22    21    1
    40    20    21    1
