@<TRIPOS>MOLECULE
3oy3_XY3_A_1.pdb
 41 44 0 0 0
SMALL
GASTEIGER

@<TRIPOS>ATOM
      1  N1        24.8300    9.5410    3.7640 N.ar    1  XY31       -0.2203
      2  N3         9.2620    4.9440    5.3110 N.3     1  XY31       -0.2665
      3  C4        20.3560    9.8190    2.3720 C.1     1  XY31       -0.0586
      4  C5        18.9550   10.0990    2.2990 C.ar    1  XY31        0.0382
      5  C6        18.4510   11.2980    1.6760 C.ar    1  XY31       -0.0142
      6  C7        17.0520   11.5210    1.6480 C.ar    1  XY31       -0.0035
      7  C8        16.1480   10.5620    2.2220 C.ar    1  XY31        0.0043
      8  C10       18.0830    9.1540    2.8590 C.ar    1  XY31        0.0125
      9  C13       13.4560    7.6850    4.0430 C.ar    1  XY31        0.0736
     10  C15       11.0810    7.0100    4.2800 C.ar    1  XY31       -0.0016
     11  C17       12.7320    6.2390    5.9830 C.ar    1  XY31        0.0701
     12  C20       10.2130    5.5360    6.2040 C.3     1  XY31        0.0992
     13  C21        9.8130    3.9040    4.3850 C.3     1  XY31        0.0899
     14  C22        8.7300    3.5040    3.3360 C.3     1  XY31        0.0897
     15  C24        8.0450    4.4480    6.0100 C.3     1  XY31        0.0899
     16  C26       23.4610    8.4620    0.5800 C.3     1  XY31        0.1327
     17  C81       26.2290    8.4960    1.9470 C.2     1  XY31        0.3185
     18  O2        26.2580    8.1960    0.6080 O.2     1  XY31       -0.2633
     19  N82       23.7740    9.0310    1.8000 N.ar    1  XY31       -0.2994
     20  C84       25.0210    9.0120    2.5520 C.ar    1  XY31        0.2021
     21  C1        23.4850    9.7220    3.8910 C.ar    1  XY31        0.1263
     22  C2        22.8630    9.4620    2.7170 C.ar    1  XY31        0.1235
     23  C3        21.5140    9.6270    2.5040 C.1     1  XY31       -0.0406
     24  C9        16.6700    9.3530    2.8380 C.ar    1  XY31        0.0560
     25  C11       19.3940   12.3320    1.0510 C.3     1  XY31        0.0317
     26  C12       15.8070    8.2880    3.4620 C.2     1  XY31        0.2690
     27  O1        16.3510    7.3650    4.1180 O.2     1  XY31       -0.2680
     28  N2        14.4590    8.3940    3.2930 N.am    1  XY31       -0.1755
     29  C14       12.1160    7.7070    3.5720 C.ar    1  XY31        0.0163
     30  C16       11.3770    6.2720    5.4910 C.ar    1  XY31       -0.0022
     31  C18       13.7530    6.9410    5.2560 C.ar    1  XY31        0.0202
     32  C19       13.1210    5.4700    7.2590 C.3     1  XY31        0.4184
     33  F1        13.0280    4.1700    7.0270 F       1  XY31       -0.1659
     34  F2        14.3550    5.6860    7.6580 F       1  XY31       -0.1659
     35  F3        12.3230    5.8250    8.2610 F       1  XY31       -0.1659
     36  C23        6.9510    4.0860    4.9680 C.3     1  XY31        0.0897
     37  C25        6.4400    2.6170    2.9750 C.3     1  XY31        0.1081
     38  N4         7.4550    3.0520    3.9930 N.3     1  XY31       -0.2681
     39  N5        27.1300    8.3730    2.5860 N.am    1  XY31       -0.0810
     40  C27        5.3990    2.3950    3.4020 C.3     1  XY31        0.1993
     41  O3         5.3430    0.9830    4.0450 O.3     1  XY31       -0.2189
@<TRIPOS>BOND
     1    16    19    1
     2    18    17    2
     3    25     5    1
     4     6     5   ar
     5     6     7   ar
     6     5     4   ar
     7    19    20   ar
     8    19    22   ar
     9    17    20    1
    10    17    39   am
    11     7    24   ar
    12     4     3    1
    13     4     8   ar
    14     3    23    3
    15    23    22    1
    16    20     1   ar
    17    22    21   ar
    18    24     8   ar
    19    24    26    1
    20    37    40    1
    21    37    38    1
    22    28    26   am
    23    28     9    1
    24    14    38    1
    25    14    13    1
    26    40    41    1
    27    26    27    2
    28    29     9   ar
    29    29    10   ar
    30     1    21   ar
    31    38    36    1
    32     9    31   ar
    33    10    30   ar
    34    13     2    1
    35    36    15    1
    36    31    11   ar
    37     2    15    1
    38     2    12    1
    39    30    11   ar
    40    30    12    1
    41    11    32    1
    42    33    32    1
    43    32    34    1
    44    32    35    1
