@<TRIPOS>MOLECULE
3oy4_017_B_1.pdb
 38 41 0 0 0
SMALL
GASTEIGER

@<TRIPOS>ATOM
      1  N1        14.6970   35.3890   18.1830 N.pl3 200  017200     -0.1281
      2  C2        15.5250   34.6670   17.3880 C.ar  200  017200      0.0892
      3  C3        16.5720   35.3030   16.7290 C.ar  200  017200      0.0194
      4  C4        17.4300   34.5700   15.9130 C.ar  200  017200      0.0213
      5  C5        17.2440   33.2010   15.7560 C.ar  200  017200      0.1223
      6  C6        16.1920   32.5700   16.4220 C.ar  200  017200      0.0213
      7  C7        15.3290   33.2970   17.2380 C.ar  200  017200      0.0194
      8  S8        18.2340   32.3480   14.8210 S.O2  200  017200      0.0634
      9  O9        17.4710   31.2380   14.2240 O.2   200  017200     -0.1528
     10  O10       18.8400   33.1890   13.7730 O.2   200  017200     -0.1528
     11  N11       19.4860   31.7190   15.6500 N.3   200  017200     -0.1529
     12  C12       20.1930   32.7140   16.4950 C.3   200  017200      0.0958
     13  C13       21.6920   32.4120   16.5130 C.3   200  017200      0.0178
     14  C14       22.2960   32.3510   15.1110 C.3   200  017200      0.0015
     15  C15       22.4350   33.4400   17.3730 C.3   200  017200      0.0015
     16  C16       19.1570   30.4590   16.3440 C.3   200  017200      0.1304
     17  C17       20.0400   29.3580   15.7590 C.3   200  017200      0.1898
     18  O18       20.0250   28.1900   16.5900 O.3   200  017200     -0.2197
     19  C19       19.6500   28.9840   14.3190 C.3   200  017200      0.1347
     20  N20       20.7280   28.1190   13.8660 N.am  200  017200     -0.1675
     21  C21       21.5790   28.4330   12.8920 C.2   200  017200      0.4211
     22  O22       21.6320   29.4800   12.2630 O.2   200  017200     -0.2246
     23  O23       22.5760   27.4370   12.6470 O.3   200  017200     -0.4345
     24  C24       23.3560   27.5660   11.4700 C.3   200  017200      0.2048
     25  C25       24.6930   27.0040   11.9100 C.3   200  017200      0.1884
     26  O26       24.4840   25.5930   11.8160 O.3   200  017200     -0.3265
     27  C27       23.5760   25.3010   10.7570 C.3   200  017200      0.2388
     28  O28       22.5860   24.3500   11.1510 O.3   200  017200     -0.3304
     29  C29       21.2890   24.9620   11.1930 C.3   200  017200      0.1451
     30  C30       21.3940   26.2310   10.3640 C.3   200  017200      0.0409
     31  C31       22.8720   26.6020   10.4030 C.3   200  017200      0.1016
     32  C32       18.3510   28.1880   14.2070 C.3   200  017200      0.0508
     33  C33       18.1590   26.4660   12.4010 C.ar  200  017200     -0.0042
     34  C34       17.9400   26.0820   11.0820 C.ar  200  017200     -0.0003
     35  C35       17.6790   27.0460   10.1150 C.ar  200  017200     -0.0000
     36  C36       17.6200   28.3870   10.4750 C.ar  200  017200     -0.0003
     37  C37       17.8380   28.7700   11.7980 C.ar  200  017200     -0.0042
     38  C38       18.0990   27.8030   12.7660 C.ar  200  017200     -0.0204
@<TRIPOS>BOND
     1    35    36   ar
     2    35    34   ar
     3    30    31    1
     4    30    29    1
     5    31    27    1
     6    31    24    1
     7    36    37   ar
     8    27    28    1
     9    27    26    1
    10    34    33   ar
    11    28    29    1
    12    24    25    1
    13    24    23    1
    14    37    38   ar
    15    26    25    1
    16    22    21    2
    17    33    38   ar
    18    23    21    1
    19    38    32    1
    20    21    20   am
    21    10     8    2
    22    20    19    1
    23    32    19    1
    24     9     8    2
    25    19    17    1
    26     8    11    1
    27     8     5    1
    28    14    13    1
    29    11    16    1
    30    11    12    1
    31     5     4   ar
    32     5     6   ar
    33    17    16    1
    34    17    18    1
    35     4     3   ar
    36     6     7   ar
    37    12    13    1
    38    13    15    1
    39     3     2   ar
    40     7     2   ar
    41     2     1    1
