@<TRIPOS>MOLECULE
3oy7_GDD_A_1.pdb
 39 42 0 0 0
SMALL
GASTEIGER

@<TRIPOS>ATOM
      1  N2       -25.1640  -57.1360  -35.1850 N.pl3 414  GDD414     -0.0226
      2  C2       -24.5760  -56.0590  -34.6710 C.1   414  GDD414      0.2531
      3  N1       -24.7040  -54.8220  -35.3250 N.2   414  GDD414     -0.2485
      4  N3       -23.8650  -56.1590  -33.5320 N.2   414  GDD414     -0.3074
      5  C4       -23.2600  -55.0830  -32.9890 C.2   414  GDD414      0.2300
      6  C5       -23.3540  -53.8300  -33.5970 C.2   414  GDD414      0.2182
      7  C6       -24.0840  -53.6890  -34.7800 C.1   414  GDD414      0.2372
      8  O6       -24.1870  -52.5960  -35.3400 O.2   414  GDD414     -0.2069
      9  N7       -22.6660  -52.9720  -32.8450 N.2   414  GDD414     -0.2322
     10  C8       -22.1610  -53.6440  -31.8110 C.3   414  GDD414      0.2246
     11  N9       -22.5180  -54.9300  -31.8940 N.pl3 414  GDD414     -0.2354
     12  C1'      -22.1570  -56.0190  -30.9320 C.3   414  GDD414      0.2293
     13  C2'      -20.6410  -56.1570  -30.7830 C.3   414  GDD414      0.2310
     14  O2'      -20.1370  -57.0290  -31.8030 O.3   414  GDD414     -0.2158
     15  C3'      -20.4860  -56.7760  -29.3830 C.3   414  GDD414      0.2158
     16  O3'      -20.0340  -58.1330  -29.4700 O.3   414  GDD414     -0.2175
     17  C4'      -21.9130  -56.7550  -28.8120 C.3   414  GDD414      0.1799
     18  O4'      -22.5770  -55.7320  -29.5830 O.3   414  GDD414     -0.3326
     19  C5'      -21.9520  -56.4920  -27.2790 C.3   414  GDD414      0.1813
     20  O5'      -21.5140  -55.1820  -26.8760 O.3   414  GDD414     -0.3112
     21  PA       -20.7750  -54.9400  -25.4230 P.3   414  GDD414      0.2189
     22  O1A      -19.4070  -54.4080  -25.6050 O.2   414  GDD414     -0.5170
     23  O2A      -20.7220  -56.3600  -24.6740 O.3   414  GDD414     -0.4371
     24  O3A      -21.6970  -53.9370  -24.5090 O.3   414  GDD414     -0.2703
     25  PB       -23.2120  -54.2870  -24.0110 P.3   414  GDD414      0.2208
     26  O2B      -24.1210  -53.0790  -24.5920 O.2   414  GDD414     -0.5170
     27  O3B      -23.6890  -55.5990  -24.5090 O.3   414  GDD414     -0.4371
     28  O1B      -23.2310  -54.1190  -22.4000 O.3   414  GDD414     -0.2857
     29  C11      -23.2390  -55.2170  -21.4080 C.3   414  GDD414      0.2742
     30  O51      -23.5920  -56.5610  -21.9080 O.3   414  GDD414     -0.3254
     31  C51      -22.5560  -57.6130  -22.0910 C.3   414  GDD414      0.1835
     32  C61      -23.1290  -58.9000  -21.4770 C.3   414  GDD414      0.2142
     33  O6A      -22.8210  -60.0190  -22.3110 O.3   414  GDD414     -0.2176
     34  C21      -21.9110  -55.1640  -20.6300 C.3   414  GDD414      0.2409
     35  O21      -22.0960  -55.7510  -19.3420 O.3   414  GDD414     -0.2149
     36  C31      -20.8070  -55.8980  -21.3860 C.3   414  GDD414      0.2198
     37  O31      -19.5600  -55.7210  -20.7160 O.3   414  GDD414     -0.2174
     38  C41      -21.1400  -57.3870  -21.5060 C.3   414  GDD414      0.2144
     39  O41      -20.1590  -58.0090  -22.3380 O.3   414  GDD414     -0.2176
@<TRIPOS>BOND
     1     8     7    2
     2     3     7    2
     3     3     2    2
     4     1     2    1
     5     7     6    1
     6     2     4    2
     7     6     5    1
     8     6     9    2
     9     4     5    2
    10     5    11    1
    11     9    10    1
    12    11    10    1
    13    11    12    1
    14    14    13    1
    15    12    13    1
    16    12    18    1
    17    13    15    1
    18    18    17    1
    19    16    15    1
    20    15    17    1
    21    17    19    1
    22    19    20    1
    23    20    21    1
    24    22    21    2
    25    21    23    1
    26    21    24    1
    27    26    25    2
    28    24    25    1
    29    27    25    1
    30    25    28    1
    31    28    29    1
    32    39    38    1
    33    33    32    1
    34    31    30    1
    35    31    38    1
    36    31    32    1
    37    30    29    1
    38    38    36    1
    39    29    34    1
    40    36    37    1
    41    36    34    1
    42    34    35    1
