@<TRIPOS>MOLECULE
3oy8_GAL_A_1.pdb
 11 11 0 0 0
SMALL
GASTEIGER

@<TRIPOS>ATOM
      1  C1        23.3490    0.1910   17.9290 C.3   500  GAL500      0.1777
      2  C2        23.9110    1.4600   17.2830 C.3   500  GAL500      0.2141
      3  C3        23.1930    2.6990   17.8260 C.3   500  GAL500      0.2173
      4  C4        21.6770    2.5290   17.7030 C.3   500  GAL500      0.2142
      5  C5        21.2560    1.2360   18.4100 C.3   500  GAL500      0.1810
      6  C6        19.7530    1.0050   18.3310 C.3   500  GAL500      0.2141
      7  O2        25.2960    1.5570   17.5260 O.3   500  GAL500     -0.2176
      8  O3        23.6200    3.8570   17.1440 O.3   500  GAL500     -0.2175
      9  O4        21.3080    2.4860   16.3340 O.3   500  GAL500     -0.2176
     10  O5        21.9300    0.1400   17.8240 O.3   500  GAL500     -0.3481
     11  O6        19.4270   -0.1960   18.9850 O.3   500  GAL500     -0.2176
@<TRIPOS>BOND
     1     9     4    1
     2     8     3    1
     3     2     7    1
     4     2     3    1
     5     2     1    1
     6     4     3    1
     7     4     5    1
     8    10     1    1
     9    10     5    1
    10     6     5    1
    11     6    11    1
