@<TRIPOS>MOLECULE
3oy8_GCO_A_1.pdb
 13 12 0 0 0
SMALL
GASTEIGER

@<TRIPOS>ATOM
      1  C1        23.2520   -5.6550   16.3750 C.2   501  GCO501      0.3973
      2  C2        23.4320   -4.6380   17.4670 C.3   501  GCO501      0.2865
      3  C3        23.6630   -3.2390   16.8770 C.3   501  GCO501      0.2260
      4  C4        23.9880   -2.1900   17.9510 C.3   501  GCO501      0.2180
      5  C5        25.3480   -2.4370   18.6270 C.3   501  GCO501      0.2175
      6  C6        26.5430   -2.0210   17.7670 C.3   501  GCO501      0.2175
      7  O11       22.2350   -6.3810   16.4100 O.co2 501  GCO501     -0.2427
      8  O12       24.1120   -5.7400   15.4680 O.co2 501  GCO501     -0.2427
      9  O2        22.2740   -4.6320   18.3100 O.3   501  GCO501     -0.2080
     10  O3        22.5140   -2.8330   16.1230 O.3   501  GCO501     -0.2169
     11  O4        23.9340   -0.8740   17.3790 O.3   501  GCO501     -0.2175
     12  O5        25.3960   -1.7370   19.8780 O.3   501  GCO501     -0.2175
     13  O6        27.7520   -2.2400   18.5040 O.3   501  GCO501     -0.2175
@<TRIPOS>BOND
     1     8     1   ar
     2    10     3    1
     3     1     7   ar
     4     1     2    1
     5     3     2    1
     6     3     4    1
     7    11     4    1
     8     2     9    1
     9     6    13    1
    10     6     5    1
    11     4     5    1
    12     5    12    1
