@<TRIPOS>MOLECULE
3oya_RLT_A_1.pdb
 32 34 0 0 0
SMALL
GASTEIGER

@<TRIPOS>ATOM
      1  CAA      -41.9650   23.6760  -19.5410 C.3   398  RLT398      0.0967
      2  CAB      -36.9360   27.7590  -19.6380 C.3   398  RLT398      0.1223
      3  CAC      -38.6440   30.2110  -22.9940 C.3   398  RLT398      0.0304
      4  CAD      -36.4480   28.9470  -23.0790 C.3   398  RLT398      0.0304
      5  OAE      -36.2290   34.1250  -18.9680 O.2   398  RLT398     -0.2658
      6  OAF      -40.0050   28.9410  -20.4120 O.2   398  RLT398     -0.2631
      7  OAG      -36.3460   29.3030  -17.5050 O.2   398  RLT398     -0.2713
      8  OAH      -36.2910   31.9910  -17.4080 O.3   398  RLT398     -0.2053
      9  FAI      -41.2080   38.7360  -20.5490 F     398  RLT398     -0.2042
     10  CAJ      -39.2620   37.6890  -19.6920 C.ar  398  RLT398      0.0294
     11  CAK      -39.9370   37.3540  -21.9970 C.ar  398  RLT398      0.0294
     12  CAL      -38.1780   36.8460  -19.9140 C.ar  398  RLT398     -0.0002
     13  CAM      -38.8560   36.5190  -22.2330 C.ar  398  RLT398     -0.0002
     14  CAN      -36.7980   35.3760  -21.4310 C.3   398  RLT398      0.1419
     15  NAO      -39.7570   24.4610  -20.4550 N.ar  398  RLT398     -0.1112
     16  NAP      -39.1710   25.4970  -20.7930 N.ar  398  RLT398     -0.1024
     17  NAQ      -37.2760   31.3130  -20.8700 N.2   398  RLT398     -0.3860
     18  NAR      -37.0370   33.9850  -21.0750 N.am  398  RLT398     -0.1948
     19  NAS      -38.4310   28.0270  -21.8120 N.am  398  RLT398     -0.1929
     20  OAT      -41.1820   26.1530  -20.0990 O.2   398  RLT398     -0.4161
     21  CAU      -36.8440   33.5080  -19.8430 C.2   398  RLT398      0.2937
     22  CAV      -39.4860   27.9690  -20.9580 C.2   398  RLT398      0.3205
     23  CAW      -40.9790   24.7790  -20.0260 C.ar  398  RLT398      0.2271
     24  CAX      -40.1470   37.9230  -20.7400 C.ar  398  RLT398      0.1401
     25  CAY      -37.9920   36.2610  -21.1840 C.ar  398  RLT398     -0.0004
     26  CAZ      -36.6180   31.3180  -18.5600 C.3   398  RLT398      0.2837
     27  CBA      -39.9710   26.5500  -20.6210 C.ar  398  RLT398      0.3055
     28  CBB      -36.9560   31.9890  -19.7500 C.2   398  RLT398      0.2041
     29  CBC      -37.2790   29.9730  -20.9080 C.2   398  RLT398      0.1835
     30  CBD      -36.6300   29.9260  -18.5400 C.2   398  RLT398      0.2687
     31  NBE      -36.9500   29.2410  -19.7230 N.am  398  RLT398     -0.2320
     32  CBF      -37.6950   29.2750  -22.2260 C.3   398  RLT398      0.1386
@<TRIPOS>BOND
     1     4    32    1
     2     3    32    1
     3    13    11   ar
     4    13    25   ar
     5    32    19    1
     6    32    29    1
     7    11    24   ar
     8    19    22   am
     9    14    25    1
    10    14    18    1
    11    25    12   ar
    12    18    21   am
    13    22    27    1
    14    22     6    2
    15    29    17    2
    16    29    31    1
    17    17    28    2
    18    16    27   ar
    19    16    15   ar
    20    24     9    1
    21    24    10   ar
    22    27    20   ar
    23    15    23   ar
    24    20    23   ar
    25    23     1    1
    26    12    10   ar
    27    21    28    1
    28    21     5    2
    29    28    26    1
    30    31     2    1
    31    31    30   am
    32    26    30    1
    33    26     8    1
    34    30     7    2
