@<TRIPOS>MOLECULE
3oyb_ZZX_A_1.pdb
 32 35 0 0 0
SMALL
GASTEIGER

@<TRIPOS>ATOM
      1  CAA      -37.9280   26.2410  -19.2660 C.3   398  ZZX398      0.0233
      2  CAB      -39.9080   31.7910  -25.4970 C.3   398  ZZX398      0.1389
      3  CAC      -38.1720   29.2040  -21.8590 C.3   398  ZZX398      0.0263
      4  OAD      -40.7020   31.7260  -22.8510 O.2   398  ZZX398     -0.2666
      5  OAE      -37.5030   29.3120  -17.5160 O.2   398  ZZX398     -0.2682
      6  OAF      -37.1030   34.8910  -19.0540 O.2   398  ZZX398     -0.2653
      7  OAG      -37.1910   32.3030  -17.5280 O.3   398  ZZX398     -0.2846
      8  FAH      -42.2720   39.3920  -21.5820 F     398  ZZX398     -0.2033
      9 CLAI      -41.2790   38.9070  -18.9330 Cl    398  ZZX398     -0.0799
     10  CAJ      -40.6560   38.1460  -22.7930 C.ar  398  ZZX398      0.0303
     11  CAK      -39.5150   37.3470  -22.7480 C.ar  398  ZZX398      0.0000
     12  CAL      -39.4710   37.5460  -20.3210 C.ar  398  ZZX398      0.0113
     13  CAM      -38.8940   27.1090  -18.4800 C.3   398  ZZX398      0.0939
     14  CAN      -37.7050   36.2380  -21.3900 C.3   398  ZZX398      0.1571
     15  CAO      -39.8930   28.6930  -20.1920 C.3   398  ZZX398      0.1162
     16  NAP      -38.5740   34.2100  -22.0550 N.ar  398  ZZX398     -0.1603
     17  NAQ      -39.1550   32.3960  -24.3670 N.am  398  ZZX398     -0.1984
     18  CAR      -39.6270   32.2430  -23.1190 C.2   398  ZZX398      0.2857
     19  CAS      -38.2950   29.5290  -18.4430 C.2   398  ZZX398      0.2682
     20  CAT      -41.1840   38.6150  -21.6030 C.ar  398  ZZX398      0.1506
     21  CAU      -38.9470   37.0600  -21.5130 C.ar  398  ZZX398      0.0032
     22  CAV      -40.6000   38.3150  -20.3880 C.ar  398  ZZX398      0.0848
     23  CAW      -37.7830   32.0070  -18.7230 C.ar  398  ZZX398      0.2218
     24  CAX      -38.8870   32.9130  -21.9570 C.ar  398  ZZX398      0.1716
     25  CAY      -38.2940   30.7670  -19.0770 C.ar  398  ZZX398      0.1537
     26  CAZ      -37.6650   34.2430  -19.9390 C.ar  398  ZZX398      0.2812
     27  CBA      -37.9730   32.9030  -19.7580 C.ar  398  ZZX398      0.1154
     28  CBB      -38.6010   32.2240  -20.7830 C.ar  398  ZZX398      0.0920
     29  CBC      -39.3710   29.7720  -21.1040 C.3   398  ZZX398      0.1056
     30  NBD      -38.9730   28.4620  -19.0610 N.am  398  ZZX398     -0.2729
     31  NBE      -38.0080   34.8380  -21.1560 N.ar  398  ZZX398     -0.2118
     32  NBF      -38.8040   30.9040  -20.3750 N.ar  398  ZZX398     -0.3197
@<TRIPOS>BOND
     1     2    17    1
     2    17    18   am
     3    18     4    2
     4    18    24    1
     5    10    11   ar
     6    10    20   ar
     7    11    21   ar
     8    16    24   ar
     9    16    31   ar
    10    24    28   ar
    11     3    29    1
    12    20     8    1
    13    20    22   ar
    14    21    14    1
    15    21    12   ar
    16    14    31    1
    17    31    26   ar
    18    29    32    1
    19    29    15    1
    20    28    32   ar
    21    28    27   ar
    22    22    12   ar
    23    22     9    1
    24    32    25   ar
    25    15    30    1
    26    26    27   ar
    27    26     6    2
    28    27    23   ar
    29     1    13    1
    30    25    23   ar
    31    25    19    1
    32    30    13    1
    33    30    19   am
    34    23     7    1
    35    19     5    2
