@<TRIPOS>MOLECULE
3oyc_ZZW_A_1.pdb
 25 28 0 0 0
SMALL
GASTEIGER

@<TRIPOS>ATOM
      1  OAA      -36.8410   31.7370  -16.9820 O.2   398  ZZW398     -0.5351
      2  OAB      -36.9500   29.1670  -17.4430 O.3   398  ZZW398     -0.4023
      3  FAC      -42.1010   38.9030  -20.2560 F     398  ZZW398     -0.2042
      4  CAD      -38.5260   32.9670  -25.1780 C.ar  398  ZZW398      0.0001
      5  CAE      -38.4290   34.3320  -25.4810 C.ar  398  ZZW398      0.0015
      6  CAF      -40.7660   38.0880  -22.0290 C.ar  398  ZZW398      0.0294
      7  CAG      -39.9540   38.1630  -19.7230 C.ar  398  ZZW398      0.0294
      8  CAH      -39.5500   37.5450  -22.4320 C.ar  398  ZZW398     -0.0001
      9  CAI      -38.7430   37.6410  -20.1370 C.ar  398  ZZW398     -0.0001
     10  CAJ      -38.2560   32.4740  -23.8870 C.ar  398  ZZW398      0.0012
     11  CAK      -38.0420   35.2180  -24.4710 C.ar  398  ZZW398      0.0172
     12  CAL      -36.8910   34.7050  -19.7250 C.3   398  ZZW398      0.1682
     13  CAM      -37.4660   32.1230  -20.6080 C.3   398  ZZW398      0.0748
     14  CAN      -37.2110   36.7580  -21.9210 C.3   398  ZZW398      0.1325
     15  NAO      -36.8140   33.6790  -18.9030 N.2   398  ZZW398     -0.2661
     16  NAP      -37.0580   30.0810  -18.4650 N.am  398  ZZW398     -0.1972
     17  CAQ      -36.9590   31.3620  -18.1520 C.2   398  ZZW398      0.1239
     18  CAR      -40.9430   38.3850  -20.6750 C.ar  398  ZZW398      0.1401
     19  CAS      -38.5480   37.3300  -21.4920 C.ar  398  ZZW398      0.0005
     20  CAT      -37.0840   32.4100  -19.2830 C.2   398  ZZW398      0.0811
     21  CAU      -37.8720   33.3580  -22.8640 C.ar  398  ZZW398      0.0133
     22  CAV      -37.5480   33.2060  -21.5030 C.ar  398  ZZW398     -0.0012
     23  CAW      -37.7710   34.7340  -23.1690 C.ar  398  ZZW398      0.0596
     24  CAX      -37.2550   34.4950  -21.0410 C.ar  398  ZZW398      0.0583
     25  NAY      -37.4040   35.3410  -22.0440 N.ar  398  ZZW398     -0.3249
@<TRIPOS>BOND
     1     5     4   ar
     2     5    11   ar
     3     4    10   ar
     4    11    23   ar
     5    10    21   ar
     6    23    21   ar
     7    23    25   ar
     8    21    22   ar
     9     8     6   ar
    10     8    19   ar
    11    25    14    1
    12    25    24   ar
    13     6    18   ar
    14    14    19    1
    15    22    24   ar
    16    22    13    1
    17    19     9   ar
    18    24    12    1
    19    18     3    1
    20    18     7   ar
    21    13    20    1
    22     9     7   ar
    23    12    15    1
    24    20    15    2
    25    20    17    1
    26    16    17   am
    27    16     2    1
    28    17     1    2
