@<TRIPOS>MOLECULE
3oyd_ZZV_A_1.pdb
 29 32 0 0 0
SMALL
GASTEIGER

@<TRIPOS>ATOM
      1  CAA      -36.4340   29.6020  -23.3260 C.3   398  ZZV398      0.1388
      2  CAB      -39.9220   30.2760  -21.1540 C.3   398  ZZV398      0.1999
      3  OAC      -35.7030   34.1120  -18.5330 O.2   398  ZZV398     -0.2698
      4  OAD      -39.3220   30.7840  -23.7630 O.2   398  ZZV398     -0.1542
      5  OAE      -39.2570   28.5100  -23.0340 O.2   398  ZZV398     -0.1542
      6  OAF      -35.6990   31.6100  -17.1820 O.3   398  ZZV398     -0.2848
      7  FAG      -40.9570   38.4670  -21.0970 F     398  ZZV398     -0.2042
      8  CAH      -36.6750   27.1590  -19.0680 C.ar  398  ZZV398      0.0207
      9  CAI      -36.2510   27.6650  -17.8300 C.ar  398  ZZV398      0.0989
     10  CAJ      -39.2290   37.5970  -19.8750 C.ar  398  ZZV398      0.0294
     11  CAK      -39.3390   37.1040  -22.2620 C.ar  398  ZZV398      0.0294
     12  CAL      -38.0750   36.8210  -19.8350 C.ar  398  ZZV398     -0.0003
     13  CAM      -38.2030   36.3150  -22.2170 C.ar  398  ZZV398     -0.0003
     14  CAN      -36.9200   28.0370  -20.1350 C.ar  398  ZZV398      0.0045
     15  CAO      -36.3230   35.3490  -21.0370 C.3   398  ZZV398      0.1208
     16  CAP      -36.9280   32.9040  -21.6410 C.3   398  ZZV398      0.1223
     17  NAQ      -36.0750   28.9700  -17.6360 N.ar  398  ZZV398     -0.2406
     18  CAR      -36.1770   33.4730  -19.4880 C.2   398  ZZV398      0.2525
     19  CAS      -39.8450   37.7110  -21.0950 C.ar  398  ZZV398      0.1401
     20  CAT      -37.5880   36.1670  -20.9970 C.ar  398  ZZV398     -0.0022
     21  CAU      -36.1030   31.1820  -18.4250 C.ar  398  ZZV398      0.2172
     22  CAV      -36.7520   31.6730  -20.7320 C.ar  398  ZZV398      0.0202
     23  CAW      -36.3220   32.0880  -19.4590 C.ar  398  ZZV398      0.0929
     24  CAX      -36.9670   30.3240  -20.9970 C.ar  398  ZZV398      0.0679
     25  CAY      -36.7340   29.4030  -19.9480 C.ar  398  ZZV398      0.0355
     26  CAZ      -36.3080   29.8310  -18.6630 C.ar  398  ZZV398      0.1214
     27  NBA      -37.3730   29.9640  -22.2380 N.pl3 398  ZZV398     -0.1927
     28  NBB      -36.5020   33.9610  -20.7090 N.am  398  ZZV398     -0.2677
     29  SBC      -38.9600   29.9070  -22.6020 S.O2  398  ZZV398      0.0588
@<TRIPOS>BOND
     1     4    29    2
     2     1    27    1
     3     5    29    2
     4    29    27    1
     5    29     2    1
     6    11    13   ar
     7    11    19   ar
     8    27    24    1
     9    13    20   ar
    10    16    22    1
    11    16    28    1
    12     7    19    1
    13    19    10   ar
    14    15    20    1
    15    15    28    1
    16    20    12   ar
    17    24    22   ar
    18    24    25   ar
    19    22    23   ar
    20    28    18   am
    21    14    25   ar
    22    14     8   ar
    23    25    26   ar
    24    10    12   ar
    25    18    23    1
    26    18     3    2
    27    23    21   ar
    28     8     9   ar
    29    26    21   ar
    30    26    17   ar
    31    21     6    1
    32     9    17   ar
