@<TRIPOS>MOLECULE
3oye_ZYY_A_1.pdb
 34 37 0 0 0
SMALL
GASTEIGER

@<TRIPOS>ATOM
      1  ND       -39.5470   31.8530  -22.3230 N.pl3 398  ZYY398     -0.1733
      2  NE       -38.1380   28.1780  -18.9470 N.am  398  ZYY398     -0.2745
      3  NF       -37.8680   34.6540  -21.0000 N.ar  398  ZYY398     -0.2107
      4  NG       -38.4260   30.7050  -20.0090 N.ar  398  ZYY398     -0.3188
      5  CAA      -37.3590   25.9490  -19.6270 C.3   398  ZYY398      0.0215
      6  CAB      -39.4710   26.2450  -18.3180 C.3   398  ZYY398      0.0215
      7  CAC      -38.1240   29.5270  -21.9430 C.3   398  ZYY398      0.0263
      8  CAD      -40.6880   31.1620  -21.6760 C.3   398  ZYY398      0.1405
      9  CAE      -41.2370   33.3800  -23.9180 C.3   398  ZYY398      0.1999
     10  OAF      -37.0920   29.2370  -17.1490 O.2   398  ZYY398     -0.2682
     11  OAG      -36.7520   34.8190  -18.9910 O.2   398  ZYY398     -0.2653
     12  OAH      -38.6850   32.2460  -24.4240 O.2   398  ZYY398     -0.1542
     13  OAI      -40.7610   30.8180  -24.2150 O.2   398  ZYY398     -0.1542
     14  OAJ      -36.6140   32.1590  -17.3700 O.3   398  ZYY398     -0.2846
     15  FAK      -42.1620   39.2320  -20.5510 F     398  ZYY398     -0.2042
     16  CAL      -40.7690   38.0160  -22.0060 C.ar  398  ZYY398      0.0294
     17  CAM      -40.2750   38.1960  -19.6250 C.ar  398  ZYY398      0.0294
     18  CAN      -39.6460   37.2200  -22.2020 C.ar  398  ZYY398     -0.0000
     19  CAO      -39.1390   37.4050  -19.8110 C.ar  398  ZYY398     -0.0000
     20  CAP      -37.6250   36.0690  -21.3010 C.3   398  ZYY398      0.1571
     21  CAQ      -38.9140   28.2630  -20.1820 C.3   398  ZYY398      0.1161
     22  NAR      -38.4900   33.9460  -21.8100 N.ar  398  ZYY398     -0.1484
     23  CAS      -37.7540   29.3330  -18.1830 C.2   398  ZYY398      0.2681
     24  CAT      -41.0750   38.4790  -20.7270 C.ar  398  ZYY398      0.1401
     25  CAU      -38.8490   36.9220  -21.1010 C.ar  398  ZYY398      0.0024
     26  CAV      -37.3040   31.8450  -18.4990 C.ar  398  ZYY398      0.2218
     27  CAW      -37.8260   30.5790  -18.7840 C.ar  398  ZYY398      0.1537
     28  CAX      -38.7190   32.6130  -21.5890 C.ar  398  ZYY398      0.1860
     29  CAY      -37.3750   34.1060  -19.7840 C.ar  398  ZYY398      0.2813
     30  CAZ      -37.6030   32.7500  -19.5100 C.ar  398  ZYY398      0.1166
     31  CBA      -38.2900   32.0170  -20.4280 C.ar  398  ZYY398      0.1031
     32  CBB      -38.0390   26.7660  -18.5180 C.3   398  ZYY398      0.0759
     33  CBC      -39.0610   29.6210  -20.7390 C.3   398  ZYY398      0.1056
     34  SBH      -40.0580   32.0510  -23.7570 S.O2  398  ZYY398      0.0601
@<TRIPOS>BOND
     1    12    34    2
     2    13    34    2
     3     9    34    1
     4    34     1    1
     5     1     8    1
     6     1    28    1
     7    18    16   ar
     8    18    25   ar
     9    16    24   ar
    10     7    33    1
    11    22    28   ar
    12    22     3   ar
    13    28    31   ar
    14    20    25    1
    15    20     3    1
    16    25    19   ar
    17     3    29   ar
    18    33    21    1
    19    33     4    1
    20    24    15    1
    21    24    17   ar
    22    31     4   ar
    23    31    30   ar
    24    21     2    1
    25     4    27   ar
    26    19    17   ar
    27    29    30   ar
    28    29    11    2
    29     5    32    1
    30    30    26   ar
    31     2    32    1
    32     2    23   am
    33    27    26   ar
    34    27    23    1
    35    32     6    1
    36    26    14    1
    37    23    10    2
