@<TRIPOS>MOLECULE
3oyf_ZYP_A_1.pdb
 30 33 0 0 0
SMALL
GASTEIGER

@<TRIPOS>ATOM
      1  OAA      -35.6450   34.0750  -18.4250 O.2   398  ZYP398     -0.2658
      2  OAB      -39.8160   29.3730  -21.7540 O.2   398  ZYP398     -0.1542
      3  OAC      -39.3490   31.0550  -23.4630 O.2   398  ZYP398     -0.1542
      4  OAD      -35.9320   32.0170  -17.4160 O.3   398  ZYP398     -0.2087
      5  FAE      -41.0940   38.6730  -20.3600 F     398  ZYP398     -0.2042
      6  CAF      -36.7290   27.3950  -18.9880 C.ar  398  ZYP398      0.0208
      7  CAG      -36.3530   27.9990  -17.7740 C.ar  398  ZYP398      0.0986
      8  CAH      -39.1710   37.4940  -19.5520 C.ar  398  ZYP398      0.0294
      9  CAI      -39.9110   37.3610  -21.8490 C.ar  398  ZYP398      0.0294
     10  CAJ      -38.1260   36.6210  -19.8740 C.ar  398  ZYP398     -0.0002
     11  CAK      -38.8820   36.5010  -22.1590 C.ar  398  ZYP398     -0.0002
     12  CAL      -36.9700   28.2220  -20.1080 C.ar  398  ZYP398      0.0068
     13  CAM      -36.7460   29.7440  -24.6250 C.3   398  ZYP398      0.0253
     14  CAN      -37.7070   28.6250  -25.0740 C.3   398  ZYP398      0.0292
     15  CAO      -36.2800   29.5760  -23.1880 C.3   398  ZYP398      0.1181
     16  CAP      -36.9170   35.1080  -21.6010 C.3   398  ZYP398      0.1419
     17  CAQ      -38.9390   28.5180  -24.1520 C.3   398  ZYP398      0.1728
     18  NAR      -36.2100   29.3330  -17.6760 N.ar  398  ZYP398     -0.2451
     19  NAS      -36.8950   31.8550  -20.9250 N.2   398  ZYP398     -0.3822
     20  NAT      -36.2640   34.8160  -20.3710 N.am  398  ZYP398     -0.1948
     21  CAU      -36.2720   33.8480  -19.4690 C.2   398  ZYP398      0.2936
     22  CAV      -40.0630   37.8400  -20.5620 C.ar  398  ZYP398      0.1401
     23  CAW      -37.9850   36.1200  -21.1860 C.ar  398  ZYP398     -0.0004
     24  CAX      -36.2950   31.5130  -18.6430 C.3   398  ZYP398      0.2478
     25  CAY      -36.5300   32.3710  -19.7510 C.2   398  ZYP398      0.2012
     26  CAZ      -37.0610   30.4980  -21.0480 C.2   398  ZYP398      0.2026
     27  CBA      -36.8240   29.6170  -19.9880 C.ar  398  ZYP398      0.0618
     28  CBB      -36.4420   30.1390  -18.7510 C.ar  398  ZYP398      0.0999
     29  NBC      -37.3960   29.9590  -22.2940 N.pl3 398  ZYP398     -0.1679
     30  SBD      -38.9030   29.7840  -22.8410 S.O2  398  ZYP398      0.0588
@<TRIPOS>BOND
     1    14    13    1
     2    14    17    1
     3    13    15    1
     4    17    30    1
     5     3    30    2
     6    15    29    1
     7    30    29    1
     8    30     2    2
     9    29    26    1
    10    11     9   ar
    11    11    23   ar
    12     9    22   ar
    13    16    23    1
    14    16    20    1
    15    23    10   ar
    16    26    19    2
    17    26    27    1
    18    19    25    2
    19    22     5    1
    20    22     8   ar
    21    20    21   am
    22    12    27   ar
    23    12     6   ar
    24    27    28   ar
    25    10     8   ar
    26    25    21    1
    27    25    24    1
    28    21     1    2
    29     6     7   ar
    30    28    24    1
    31    28    18   ar
    32    24     4    1
    33     7    18   ar
