@<TRIPOS>MOLECULE
3oyg_ZYO_A_1.pdb
 36 40 0 0 0
SMALL
GASTEIGER

@<TRIPOS>ATOM
      1  NE       -40.5200   31.5480  -24.9460 N.3   398  ZYO398     -0.1393
      2  NF       -38.6190   28.3710  -19.1070 N.am  398  ZYO398     -0.2729
      3  NG       -38.9540   32.2980  -23.1390 N.pl3 398  ZYO398     -0.1598
      4  NH       -37.6890   34.7830  -21.1160 N.ar  398  ZYO398     -0.2107
      5  NI       -38.3840   30.8230  -20.4200 N.ar  398  ZYO398     -0.3188
      6  CAA      -37.6340   26.0880  -19.3470 C.3   398  ZYO398      0.0233
      7  CAB      -37.5520   29.0620  -21.7880 C.3   398  ZYO398      0.0263
      8  CAC      -40.2620   30.0960  -25.0530 C.3   398  ZYO398      0.1164
      9  OAD      -37.2740   29.2340  -17.4540 O.2   398  ZYO398     -0.2682
     10  OAE      -36.9490   34.8310  -18.9460 O.2   398  ZYO398     -0.2653
     11  OAF      -41.0350   30.9740  -22.5020 O.2   398  ZYO398     -0.1376
     12  OAG      -41.3480   33.2480  -23.5300 O.2   398  ZYO398     -0.1376
     13  OAH      -37.0120   32.3320  -17.4600 O.3   398  ZYO398     -0.2846
     14  FAI      -42.1540   39.0780  -21.7000 F     398  ZYO398     -0.2033
     15 CLAJ      -41.2230   38.8280  -19.0340 Cl    398  ZYO398     -0.0799
     16  CAK      -40.4640   37.8540  -22.8200 C.ar  398  ZYO398      0.0303
     17  CAL      -39.2860   37.1320  -22.7020 C.ar  398  ZYO398      0.0000
     18  CAM      -39.2670   37.4760  -20.2670 C.ar  398  ZYO398      0.0113
     19  CAN      -38.5720   26.9920  -18.5350 C.3   398  ZYO398      0.0939
     20  CAO      -39.4010   32.3950  -25.4430 C.3   398  ZYO398      0.1206
     21  CAP      -38.2670   32.2000  -24.4240 C.3   398  ZYO398      0.1378
     22  CAQ      -37.4270   36.1830  -21.3200 C.3   398  ZYO398      0.1571
     23  CAR      -39.4710   28.6120  -20.3030 C.3   398  ZYO398      0.1162
     24  NAS      -38.1460   34.1420  -22.0610 N.ar  398  ZYO398     -0.1484
     25  CAT      -37.9780   29.4490  -18.4510 C.2   398  ZYO398      0.2682
     26  CAU      -41.0300   38.3590  -21.6560 C.ar  398  ZYO398      0.1506
     27  CAV      -38.7110   36.9500  -21.4440 C.ar  398  ZYO398      0.0032
     28  CAW      -40.4440   38.1760  -20.4100 C.ar  398  ZYO398      0.0848
     29  CAX      -37.5140   31.9640  -18.6930 C.ar  398  ZYO398      0.2218
     30  CAY      -38.4400   32.8290  -22.0140 C.ar  398  ZYO398      0.1871
     31  CAZ      -37.9640   30.6980  -19.0740 C.ar  398  ZYO398      0.1537
     32  CBA      -37.4150   34.1880  -19.8880 C.ar  398  ZYO398      0.2813
     33  CBB      -37.6790   32.8390  -19.7510 C.ar  398  ZYO398      0.1166
     34  CBC      -38.2090   32.1410  -20.8260 C.ar  398  ZYO398      0.1031
     35  CBD      -38.8380   29.6570  -21.1840 C.3   398  ZYO398      0.1056
     36  SBJ      -40.5260   31.9930  -23.4450 S.O2  398  ZYO398      0.1174
@<TRIPOS>BOND
     1    20     1    1
     2    20    21    1
     3     8     1    1
     4     1    36    1
     5    21     3    1
     6    12    36    2
     7    36     3    1
     8    36    11    2
     9     3    30    1
    10    16    17   ar
    11    16    26   ar
    12    17    27   ar
    13    24    30   ar
    14    24     4   ar
    15    30    34   ar
    16     7    35    1
    17    14    26    1
    18    26    28   ar
    19    27    22    1
    20    27    18   ar
    21    22     4    1
    22    35     5    1
    23    35    23    1
    24     4    32   ar
    25    34     5   ar
    26    34    33   ar
    27     5    31   ar
    28    28    18   ar
    29    28    15    1
    30    23     2    1
    31    32    33   ar
    32    32    10    2
    33    33    29   ar
    34     6    19    1
    35     2    19    1
    36     2    25   am
    37    31    29   ar
    38    31    25    1
    39    29    13    1
    40    25     9    2
