@<TRIPOS>MOLECULE
3oyh_ZYN_A_1.pdb
 30 32 0 0 0
SMALL
GASTEIGER

@<TRIPOS>ATOM
      1  CAA      -37.8370   27.0320  -18.4500 C.3   398  ZYN398      0.0246
      2  CAB      -35.3940   26.9240  -19.0680 C.3   398  ZYN398      0.0246
      3  CAC      -36.6280   27.4940  -23.8780 C.3   398  ZYN398      0.1153
      4  CAD      -34.8320   28.7100  -22.4910 C.3   398  ZYN398      0.1153
      5  OAE      -38.4220   28.4850  -22.0120 O.2   398  ZYN398     -0.2683
      6  OAF      -36.1260   33.9720  -18.9160 O.2   398  ZYN398     -0.2698
      7  OAG      -36.1150   29.3040  -17.2470 O.2   398  ZYN398     -0.2634
      8  OAH      -35.8890   31.9850  -17.3660 O.3   398  ZYN398     -0.2813
      9  FAI      -40.8520   38.1640  -21.4140 F     398  ZYN398     -0.2033
     10 CLAJ      -39.9250   37.7130  -18.8730 Cl    398  ZYN398     -0.0799
     11  CAK      -39.2040   37.0320  -22.6460 C.ar  398  ZYN398      0.0302
     12  CAL      -38.0350   36.2670  -22.5950 C.ar  398  ZYN398     -0.0003
     13  CAM      -37.9680   36.3910  -20.1880 C.ar  398  ZYN398      0.0111
     14  CAN      -36.9930   31.6380  -22.1870 C.3   398  ZYN398      0.0497
     15  CAO      -36.3660   32.9860  -22.3690 C.3   398  ZYN398      0.0988
     16  CAP      -36.1320   35.1800  -21.3430 C.3   398  ZYN398      0.1205
     17  CAQ      -37.2130   28.7680  -21.8970 C.2   398  ZYN398      0.2648
     18  CAR      -36.2760   33.2160  -19.8870 C.2   398  ZYN398      0.2523
     19  CAS      -39.7350   37.4370  -21.4490 C.ar  398  ZYN398      0.1506
     20  CAT      -37.4370   35.9400  -21.3830 C.ar  398  ZYN398     -0.0013
     21  CAU      -39.1270   37.1280  -20.2570 C.ar  398  ZYN398      0.0848
     22  CAV      -36.1860   31.2180  -18.4750 C.ar  398  ZYN398      0.2553
     23  CAW      -36.7170   31.0320  -20.8390 C.ar  398  ZYN398      0.0075
     24  CAX      -36.3840   31.8210  -19.7290 C.ar  398  ZYN398      0.0949
     25  CAY      -36.8160   29.6440  -20.6990 C.ar  398  ZYN398      0.1127
     26  CAZ      -36.3010   29.8230  -18.3480 C.ar  398  ZYN398      0.3001
     27  CBA      -36.7510   27.5290  -19.4120 C.3   398  ZYN398      0.0887
     28  NBB      -36.2430   28.3510  -22.7360 N.am  398  ZYN398     -0.2714
     29  NBC      -36.3160   33.7780  -21.1630 N.am  398  ZYN398     -0.2715
     30  NBD      -36.6290   29.0170  -19.4670 N.ar  398  ZYN398     -0.2911
@<TRIPOS>BOND
     1     3    28    1
     2    28     4    1
     3    28    17   am
     4    11    12   ar
     5    11    19   ar
     6    12    20   ar
     7    15    14    1
     8    15    29    1
     9    14    23    1
    10     5    17    2
    11    17    25    1
    12    19     9    1
    13    19    21   ar
    14    20    16    1
    15    20    13   ar
    16    16    29    1
    17    29    18   am
    18    23    25   ar
    19    23    24   ar
    20    25    30   ar
    21    21    13   ar
    22    21    10    1
    23    18    24    1
    24    18     6    2
    25    24    22   ar
    26    30    27    1
    27    30    26   ar
    28    27     2    1
    29    27     1    1
    30    22    26   ar
    31    22     8    1
    32    26     7    2
