@<TRIPOS>MOLECULE
3oyj_ZZX_A_1.pdb
 32 35 0 0 0
SMALL
GASTEIGER

@<TRIPOS>ATOM
      1  CAA      -38.0070   26.4320  -19.3860 C.3   398  ZZX398      0.0233
      2  CAB      -40.2290   31.9520  -25.4710 C.3   398  ZZX398      0.1389
      3  CAC      -38.5190   29.4580  -22.0290 C.3   398  ZZX398      0.0263
      4  OAD      -41.0520   31.8800  -22.8350 O.2   398  ZZX398     -0.2666
      5  OAE      -37.7000   29.4700  -17.5120 O.2   398  ZZX398     -0.2682
      6  OAF      -37.4240   35.1100  -19.0660 O.2   398  ZZX398     -0.2653
      7  OAG      -37.4560   32.4710  -17.5370 O.3   398  ZZX398     -0.2846
      8  FAH      -42.7100   39.7530  -21.5340 F     398  ZZX398     -0.2033
      9 CLAI      -41.6320   39.1680  -18.8880 Cl    398  ZZX398     -0.0799
     10  CAJ      -41.1150   38.5060  -22.7810 C.ar  398  ZZX398      0.0303
     11  CAK      -39.9810   37.7140  -22.7810 C.ar  398  ZZX398      0.0000
     12  CAL      -39.8850   37.8370  -20.3800 C.ar  398  ZZX398      0.0113
     13  CAM      -39.0630   27.2040  -18.5890 C.3   398  ZZX398      0.0939
     14  CAN      -38.1250   36.5060  -21.5300 C.3   398  ZZX398      0.1571
     15  CAO      -40.0600   28.8200  -20.2450 C.3   398  ZZX398      0.1162
     16  NAP      -38.9460   34.4430  -22.0880 N.ar  398  ZZX398     -0.1603
     17  NAQ      -39.4840   32.5630  -24.3450 N.am  398  ZZX398     -0.1984
     18  CAR      -39.9750   32.4210  -23.1050 C.2   398  ZZX398      0.2857
     19  CAS      -38.4980   29.6840  -18.4530 C.2   398  ZZX398      0.2682
     20  CAT      -41.6160   38.9640  -21.5770 C.ar  398  ZZX398      0.1506
     21  CAU      -39.3860   37.3710  -21.5830 C.ar  398  ZZX398      0.0032
     22  CAV      -41.0030   38.6210  -20.3890 C.ar  398  ZZX398      0.0848
     23  CAW      -38.0440   32.1980  -18.7380 C.ar  398  ZZX398      0.2218
     24  CAX      -39.2300   33.1210  -21.9630 C.ar  398  ZZX398      0.1716
     25  CAY      -38.5350   30.9450  -19.0840 C.ar  398  ZZX398      0.1537
     26  CAZ      -37.9760   34.4840  -19.9610 C.ar  398  ZZX398      0.2812
     27  CBA      -38.2530   33.1180  -19.7620 C.ar  398  ZZX398      0.1154
     28  CBB      -38.9020   32.4250  -20.7800 C.ar  398  ZZX398      0.0920
     29  CBC      -39.6420   29.9640  -21.1220 C.3   398  ZZX398      0.1056
     30  NBD      -39.1370   28.5900  -19.1100 N.am  398  ZZX398     -0.2729
     31  NBE      -38.3670   35.0980  -21.2060 N.ar  398  ZZX398     -0.2118
     32  NBF      -39.0690   31.0920  -20.3770 N.ar  398  ZZX398     -0.3197
@<TRIPOS>BOND
     1     2    17    1
     2    17    18   am
     3    18     4    2
     4    18    24    1
     5    10    11   ar
     6    10    20   ar
     7    11    21   ar
     8    16    24   ar
     9    16    31   ar
    10     3    29    1
    11    24    28   ar
    12    21    14    1
    13    21    12   ar
    14    20     8    1
    15    20    22   ar
    16    14    31    1
    17    31    26   ar
    18    29    32    1
    19    29    15    1
    20    28    32   ar
    21    28    27   ar
    22    22    12   ar
    23    22     9    1
    24    32    25   ar
    25    15    30    1
    26    26    27   ar
    27    26     6    2
    28    27    23   ar
    29     1    13    1
    30    30    13    1
    31    30    19   am
    32    25    23   ar
    33    25    19    1
    34    23     7    1
    35    19     5    2
