@<TRIPOS>MOLECULE
3oyl_ZZX_A_1.pdb
 32 35 0 0 0
SMALL
GASTEIGER

@<TRIPOS>ATOM
      1  CAA      -37.4750   25.8350  -19.2040 C.3   398  ZZX398      0.0233
      2  CAB      -39.5630   31.5660  -25.5030 C.3   398  ZZX398      0.1389
      3  CAC      -37.8110   28.8740  -21.8570 C.3   398  ZZX398      0.0263
      4  OAD      -40.4400   31.3380  -22.8720 O.2   398  ZZX398     -0.2666
      5  OAE      -37.0620   28.9420  -17.4880 O.2   398  ZZX398     -0.2682
      6  OAF      -36.8060   34.5820  -19.0190 O.2   398  ZZX398     -0.2653
      7  OAG      -36.7970   31.9980  -17.5200 O.3   398  ZZX398     -0.2846
      8  FAH      -42.1640   38.9480  -21.6640 F     398  ZZX398     -0.2033
      9 CLAI      -41.2420   38.5860  -19.0300 Cl    398  ZZX398     -0.0799
     10  CAJ      -40.4760   37.7330  -22.8330 C.ar  398  ZZX398      0.0303
     11  CAK      -39.3080   36.9760  -22.7430 C.ar  398  ZZX398      0.0000
     12  CAL      -39.3150   37.2330  -20.3220 C.ar  398  ZZX398      0.0113
     13  CAM      -38.5090   26.6820  -18.4540 C.3   398  ZZX398      0.0939
     14  CAN      -37.4770   35.9480  -21.3300 C.3   398  ZZX398      0.1571
     15  CAO      -39.5020   28.3300  -20.1170 C.3   398  ZZX398      0.1162
     16  NAP      -38.3090   33.8870  -21.9940 N.ar  398  ZZX398     -0.1603
     17  NAQ      -38.8560   32.1300  -24.3240 N.am  398  ZZX398     -0.1984
     18  CAR      -39.3590   31.9060  -23.0940 C.2   398  ZZX398      0.2857
     19  CAS      -37.8630   29.1550  -18.4080 C.2   398  ZZX398      0.2682
     20  CAT      -41.0450   38.2150  -21.6640 C.ar  398  ZZX398      0.1506
     21  CAU      -38.7510   36.7320  -21.4900 C.ar  398  ZZX398      0.0032
     22  CAV      -40.4740   37.9670  -20.4330 C.ar  398  ZZX398      0.0848
     23  CAW      -37.4000   31.6730  -18.7000 C.ar  398  ZZX398      0.2218
     24  CAX      -38.6100   32.5710  -21.9070 C.ar  398  ZZX398      0.1716
     25  CAY      -37.8920   30.4120  -19.0340 C.ar  398  ZZX398      0.1537
     26  CAZ      -37.3640   33.9300  -19.8990 C.ar  398  ZZX398      0.2812
     27  CBA      -37.6420   32.5750  -19.7250 C.ar  398  ZZX398      0.1154
     28  CBB      -38.2790   31.8820  -20.7420 C.ar  398  ZZX398      0.0920
     29  CBC      -38.9900   29.4120  -21.0430 C.3   398  ZZX398      0.1056
     30  NBD      -38.5630   28.0730  -19.0050 N.am  398  ZZX398     -0.2729
     31  NBE      -37.7410   34.5350  -21.1030 N.ar  398  ZZX398     -0.2118
     32  NBF      -38.4330   30.5560  -20.3270 N.ar  398  ZZX398     -0.3197
@<TRIPOS>BOND
     1     2    17    1
     2    17    18   am
     3    18     4    2
     4    18    24    1
     5    10    11   ar
     6    10    20   ar
     7    11    21   ar
     8    16    24   ar
     9    16    31   ar
    10    24    28   ar
    11     3    29    1
    12     8    20    1
    13    20    22   ar
    14    21    14    1
    15    21    12   ar
    16    14    31    1
    17    31    26   ar
    18    29    32    1
    19    29    15    1
    20    28    32   ar
    21    28    27   ar
    22    22    12   ar
    23    22     9    1
    24    32    25   ar
    25    15    30    1
    26    26    27   ar
    27    26     6    2
    28    27    23   ar
    29     1    13    1
    30    25    23   ar
    31    25    19    1
    32    30    13    1
    33    30    19   am
    34    23     7    1
    35    19     5    2
