@<TRIPOS>MOLECULE
3oyn_ZZX_A_1.pdb
 32 35 0 0 0
SMALL
GASTEIGER

@<TRIPOS>ATOM
      1  CAA      -38.0170   26.2650  -19.2350 C.3   398  ZZX398      0.0233
      2  CAB      -40.0170   31.8150  -25.3950 C.3   398  ZZX398      0.1389
      3  CAC      -38.2740   29.2170  -21.7880 C.3   398  ZZX398      0.0263
      4  OAD      -40.7590   31.7220  -22.7680 O.2   398  ZZX398     -0.2666
      5  OAE      -37.5360   29.4100  -17.3540 O.2   398  ZZX398     -0.2682
      6  OAF      -37.1280   34.9100  -18.9660 O.2   398  ZZX398     -0.2653
      7  OAG      -37.2160   32.3940  -17.4180 O.3   398  ZZX398     -0.2846
      8  FAH      -42.3340   39.3920  -21.5090 F     398  ZZX398     -0.2033
      9 CLAI      -41.2820   38.9450  -18.9520 Cl    398  ZZX398     -0.0799
     10  CAJ      -40.7550   38.1430  -22.7760 C.ar  398  ZZX398      0.0303
     11  CAK      -39.5980   37.3630  -22.7290 C.ar  398  ZZX398      0.0000
     12  CAL      -39.4820   37.5820  -20.3130 C.ar  398  ZZX398      0.0113
     13  CAM      -38.8740   27.1540  -18.3250 C.3   398  ZZX398      0.0939
     14  CAN      -37.7420   36.2640  -21.3910 C.3   398  ZZX398      0.1571
     15  CAO      -39.8960   28.7090  -20.0420 C.3   398  ZZX398      0.1162
     16  NAP      -38.6110   34.2350  -21.9900 N.ar  398  ZZX398     -0.1603
     17  NAQ      -39.2490   32.4250  -24.2830 N.am  398  ZZX398     -0.1984
     18  CAR      -39.6840   32.2520  -23.0330 C.2   398  ZZX398      0.2857
     19  CAS      -38.3240   29.6000  -18.2930 C.2   398  ZZX398      0.2682
     20  CAT      -41.2500   38.6200  -21.5770 C.ar  398  ZZX398      0.1506
     21  CAU      -38.9840   37.0820  -21.5060 C.ar  398  ZZX398      0.0032
     22  CAV      -40.6290   38.3360  -20.3890 C.ar  398  ZZX398      0.0848
     23  CAW      -37.8080   32.0710  -18.6170 C.ar  398  ZZX398      0.2218
     24  CAX      -38.9240   32.9320  -21.8830 C.ar  398  ZZX398      0.1716
     25  CAY      -38.3300   30.8230  -18.9440 C.ar  398  ZZX398      0.1537
     26  CAZ      -37.6890   34.2860  -19.8670 C.ar  398  ZZX398      0.2812
     27  CBA      -37.9960   32.9510  -19.6730 C.ar  398  ZZX398      0.1154
     28  CBB      -38.6300   32.2570  -20.6930 C.ar  398  ZZX398      0.0920
     29  CBC      -39.4240   29.7940  -20.9660 C.3   398  ZZX398      0.1056
     30  NBD      -38.9770   28.5100  -18.9000 N.am  398  ZZX398     -0.2729
     31  NBE      -38.0440   34.8760  -21.0990 N.ar  398  ZZX398     -0.2118
     32  NBF      -38.8410   30.9330  -20.2510 N.ar  398  ZZX398     -0.3197
@<TRIPOS>BOND
     1     2    17    1
     2    17    18   am
     3    18     4    2
     4    18    24    1
     5    10    11   ar
     6    10    20   ar
     7    11    21   ar
     8    16    24   ar
     9    16    31   ar
    10    24    28   ar
    11     3    29    1
    12    20     8    1
    13    20    22   ar
    14    21    14    1
    15    21    12   ar
    16    14    31    1
    17    31    26   ar
    18    29    32    1
    19    29    15    1
    20    28    32   ar
    21    28    27   ar
    22    22    12   ar
    23    22     9    1
    24    32    25   ar
    25    15    30    1
    26    26    27   ar
    27    26     6    2
    28    27    23   ar
    29     1    13    1
    30    25    23   ar
    31    25    19    1
    32    30    13    1
    33    30    19   am
    34    23     7    1
    35    19     5    2
