@<TRIPOS>MOLECULE
3oyp_III_E_1.pdb
 43 47 0 0 0
SMALL
GASTEIGER

@<TRIPOS>ATOM
      1  C1        11.1980  -34.9210  -12.2920 C.2     1  PPI1        0.2418
      2  C2        10.4400  -35.3950  -13.5050 C.3     1  PPI1        0.0868
      3  C3         9.7290  -36.7340  -13.3050 C.3     1  PPI1        0.0101
      4  O1        11.4970  -33.7480  -12.2310 O.2     1  PPI1       -0.2733
      5  N         11.5600  -35.7740  -11.2630 N.am    2  DAL2       -0.1978
      6  CA        12.3190  -35.3140  -10.0860 C.3     2  DAL2        0.1713
      7  CB        12.9560  -36.5220   -9.3860 C.3     2  DAL2        0.0333
      8  C         11.4450  -34.5260   -9.0940 C.2     2  DAL2        0.2459
      9  O         10.3400  -34.9660   -8.8690 O.2     2  DAL2       -0.2730
     10  C1        15.1570  -30.7430   -3.6010 C.ar    3  PRO3        0.1021
     11  N2        14.5860  -31.0600   -4.8260 N.ar    3  PRO3       -0.2101
     12  C3        15.2720  -31.7180   -2.6220 C.ar    3  PRO3        0.0209
     13  C4        14.1320  -32.3460   -5.0810 C.ar    3  PRO3        0.2247
     14  C5        14.8210  -33.0040   -2.8730 C.ar    3  PRO3        0.0061
     15  C6        14.2490  -33.3260   -4.1020 C.ar    3  PRO3        0.0537
     16  C7        13.9330  -35.5860   -3.3340 C.ar    3  PRO3        0.0347
     17  C8        13.8050  -34.6240   -4.3290 C.ar    3  PRO3        0.0113
     18  C9        14.5030  -35.2670   -2.1120 C.ar    3  PRO3        0.0067
     19  C10       14.9490  -33.9730   -1.8840 C.ar    3  PRO3        0.0007
     20 BR1        13.3350  -37.3390   -3.6410 Br      3  PRO3       -0.0490
     21  O12       13.5730  -32.6560   -6.2890 O.3     3  PRO3       -0.4621
     22  C13       13.1930  -31.7620   -7.3310 C.3     3  PRO3        0.1894
     23  C14       11.7740  -31.2630   -7.1690 C.3     3  PRO3        0.0746
     24  C15       11.0130  -32.5430   -7.4880 C.3     3  PRO3        0.1573
     25  N16       11.8430  -33.3410   -8.4510 N.am    3  PRO3       -0.2677
     26  C17       13.1290  -32.6250   -8.5850 C.3     3  PRO3        0.1373
     27  C18        9.6300  -32.3930   -8.1000 C.2     3  PRO3        0.2599
     28  O19        9.5210  -32.0720   -9.2660 O.2     3  PRO3       -0.2715
     29  N20        8.4980  -32.6670   -7.3420 N.am    4  0Y94       -0.1982
     30  C21        7.1290  -32.7000   -7.8930 C.3     4  0Y94        0.1539
     31  C22        6.8660  -33.6580   -9.0710 C.3     4  0Y94        0.0510
     32  C23        6.2040  -33.9080   -7.7130 C.3     4  0Y94        0.0358
     33  C24        6.0860  -33.2430  -10.2800 C.2     4  0Y94       -0.0242
     34  C25        6.6610  -33.4360  -11.4630 C.2     4  0Y94       -0.0049
     35  C26        6.5990  -31.2880   -7.8350 C.2     4  0Y94        0.2800
     36  O27        5.4420  -31.1120   -8.1460 O.2     4  0Y94       -0.2699
     37  N28        7.3200  -30.1840   -7.4370 N.am    5  0YA5       -0.0615
     38  S29        6.7070  -28.6600   -7.3720 S.O2    5  0YA5        0.0740
     39  O30        6.5210  -28.1330   -8.7000 O.2     5  0YA5       -0.1528
     40  O31        5.4270  -28.6960   -6.7150 O.2     5  0YA5       -0.1528
     41  C32        7.8130  -27.6210   -6.4010 C.3     5  0YA5        0.1510
     42  C33        7.5630  -27.4520   -4.8840 C.3     5  0YA5        0.0274
     43  C34        7.3990  -26.2950   -5.8210 C.3     5  0YA5        0.0274
@<TRIPOS>BOND
     1     2     3    1
     2     2     1    1
     3     1     4    2
     4     1     5   am
     5    34    33    2
     6     5     6    1
     7    33    31    1
     8     6     7    1
     9     6     8    1
    10    28    27    2
    11     8     9    2
    12     8    25   am
    13    31    30    1
    14    31    32    1
    15    39    38    2
    16    26    25    1
    17    26    22    1
    18    25    24    1
    19    36    35    2
    20    27    24    1
    21    27    29   am
    22    30    35    1
    23    30    32    1
    24    30    29    1
    25    35    37   am
    26    24    23    1
    27    37    38    1
    28    38    40    2
    29    38    41    1
    30    22    23    1
    31    22    21    1
    32    41    43    1
    33    41    42    1
    34    21    13    1
    35    43    42    1
    36    13    11   ar
    37    13    15   ar
    38    11    10   ar
    39    17    15   ar
    40    17    16   ar
    41    15    14   ar
    42    20    16    1
    43    10    12   ar
    44    16    18   ar
    45    14    12   ar
    46    14    19   ar
    47    18    19   ar
