@<TRIPOS>MOLECULE
3oyq_OYQ_A_1.pdb
 19 19 0 0 0
SMALL
GASTEIGER

@<TRIPOS>ATOM
      1  CAA       -0.2910   10.2450   14.9080 C.3   263  OYQ263      0.0000
      2  CAB        0.3270    8.1210   13.1670 C.3   263  OYQ263      0.0000
      3  NAC       -5.3460   -0.4520   16.0600 N.3   263  OYQ263      0.0392
      4  OAD       -4.7630    6.7140   13.0320 O.2   263  OYQ263     -0.2730
      5  OAE       -5.3770    1.2400   18.0450 O.2   263  OYQ263     -0.1503
      6  OAF       -7.3160    1.1810   16.5400 O.2   263  OYQ263     -0.1503
      7  CAG       -5.1920    4.4030   14.5200 C.ar  263  OYQ263      0.0180
      8  CAH       -3.1020    3.2280   14.7680 C.ar  263  OYQ263      0.0180
      9  CAI       -5.8370    3.3890   15.2430 C.ar  263  OYQ263      0.0213
     10  CAJ       -3.7260    2.2440   15.4980 C.ar  263  OYQ263      0.0213
     11  CAK       -0.9520    8.9190   15.0920 C.3   263  OYQ263      0.0000
     12  CAL       -2.6310    7.3190   12.2220 C.3   263  OYQ263      0.0872
     13  CAM       -2.0520    8.4300   13.0060 C.3   263  OYQ263      0.0096
     14  NAN       -3.0400    5.2590   13.5640 N.am  263  OYQ263     -0.1792
     15  CAO       -3.5750    6.4350   12.9590 C.2   263  OYQ263      0.2456
     16  CAP       -3.8170    4.3070   14.2930 C.ar  263  OYQ263      0.0734
     17  CAQ       -5.0920    2.2980   15.7430 C.ar  263  OYQ263      0.1251
     18  CAR       -0.9620    8.0160   13.9160 C.3   263  OYQ263      0.0005
     19  SAS       -5.8440    0.9830   16.6910 S.O2  263  OYQ263      0.0935
@<TRIPOS>BOND
     1    12    15    1
     2    12    13    1
     3    15     4    2
     4    15    14   am
     5    13    18    1
     6     2    18    1
     7    14    16    1
     8    18    11    1
     9    16     7   ar
    10    16     8   ar
    11     7     9   ar
    12     8    10   ar
    13     1    11    1
    14     9    17   ar
    15    10    17   ar
    16    17    19    1
    17     3    19    1
    18     6    19    2
    19    19     5    2
