@<TRIPOS>MOLECULE
3oyr_IPE_B_1.pdb
 14 13 0 0 0
SMALL
GASTEIGER

@<TRIPOS>ATOM
      1  C1        34.2350   -5.5630  -15.0430 C.3   336  IPE336      0.1747
      2  O1        34.8160   -5.2980  -16.3270 O.3   336  IPE336     -0.3089
      3  C2        33.1940   -6.4920  -15.5590 C.2   336  IPE336     -0.0024
      4  C3        33.3740   -7.8150  -15.5930 C.2   336  IPE336     -0.0454
      5  C4        34.5780   -8.4940  -14.9950 C.3   336  IPE336      0.0261
      6  C5        32.2890   -8.6230  -16.2340 C.3   336  IPE336      0.0261
      7  PA        36.2900   -4.7350  -16.6150 P.3   336  IPE336      0.2233
      8  O1A       37.2700   -5.5530  -15.8210 O.3   336  IPE336     -0.4370
      9  O2A       36.5530   -4.6440  -18.1050 O.2   336  IPE336     -0.5169
     10  O3A       36.0740   -3.2780  -15.9380 O.3   336  IPE336     -0.2261
     11  PB        36.6140   -1.8220  -16.4170 P.3   336  IPE336      0.5373
     12  O1B       38.0460   -1.9420  -16.8640 O.3   336  IPE336     -0.1143
     13  O2B       36.3890   -1.1120  -15.0990 O.3   336  IPE336     -0.1143
     14  O3B       35.6720   -1.3650  -17.5140 O.2   336  IPE336     -0.2221
@<TRIPOS>BOND
     1     9     7    2
     2    14    11    2
     3    12    11    1
     4     7     2    1
     5     7    10    1
     6     7     8    1
     7    11    10    1
     8    11    13    1
     9     2     1    1
    10     6     4    1
    11     4     3    2
    12     4     5    1
    13     3     1    1
