@<TRIPOS>MOLECULE
3oys_OYS_A_1.pdb
 20 21 0 0 0
SMALL
GASTEIGER

@<TRIPOS>ATOM
      1  NAA       -5.3280   -0.4210   16.1140 N.3   263  OYS263      0.0392
      2  OAB       -4.6990    6.6580   12.9200 O.2   263  OYS263     -0.2726
      3  OAC       -7.2340    1.2280   16.5590 O.2   263  OYS263     -0.1503
      4  OAD       -5.3090    1.1810   18.0700 O.2   263  OYS263     -0.1503
      5  CAE       -1.3100   10.6070   14.3680 C.ar  263  OYS263     -0.0000
      6  CAF       -1.9380   10.7840   13.1400 C.ar  263  OYS263     -0.0003
      7  CAG       -1.0770    9.3270   14.9110 C.ar  263  OYS263     -0.0003
      8  CAH       -2.3170    9.6520   12.4220 C.ar  263  OYS263     -0.0038
      9  CAI       -1.4820    8.2050   14.1740 C.ar  263  OYS263     -0.0038
     10  CAJ       -3.0610    3.1890   14.7390 C.ar  263  OYS263      0.0180
     11  CAK       -5.1640    4.3450   14.4710 C.ar  263  OYS263      0.0180
     12  CAL       -3.6880    2.1960   15.4730 C.ar  263  OYS263      0.0213
     13  CAM       -5.7890    3.3400   15.2160 C.ar  263  OYS263      0.0213
     14  CAN       -2.4880    7.1780   12.1710 C.3   263  OYS263      0.1135
     15  NAO       -3.0180    5.2010   13.5170 N.am  263  OYS263     -0.1789
     16  CAP       -3.5140    6.3590   12.8850 C.2   263  OYS263      0.2500
     17  CAQ       -2.0550    8.3730   12.9390 C.ar  263  OYS263     -0.0130
     18  CAR       -3.7840    4.2610   14.2440 C.ar  263  OYS263      0.0735
     19  CAS       -5.0580    2.2690   15.7380 C.ar  263  OYS263      0.1251
     20  SAT       -5.8120    0.9960   16.7060 S.O2  263  OYS263      0.0935
@<TRIPOS>BOND
     1    14    16    1
     2    14    17    1
     3     8    17   ar
     4     8     6   ar
     5    16     2    2
     6    16    15   am
     7    17     9   ar
     8     6     5   ar
     9    15    18    1
    10     9     7   ar
    11    18    11   ar
    12    18    10   ar
    13     5     7   ar
    14    11    13   ar
    15    10    12   ar
    16    13    19   ar
    17    12    19   ar
    18    19    20    1
    19     1    20    1
    20     3    20    2
    21    20     4    2
