@<TRIPOS>MOLECULE
3oyw_TDG_A_1.pdb
 23 24 0 0 0
SMALL
GASTEIGER

@<TRIPOS>ATOM
      1  C1        23.3850    0.3650   17.8970 C.3   600  TDG600      0.1976
      2  S1        24.2870   -0.9310   17.0980 S.3   600  TDG600     -0.0782
      3  C2        23.7660    1.7360   17.3280 C.3   600  TDG600      0.2220
      4  O2        25.1250    2.0480   17.6380 O.3   600  TDG600     -0.2167
      5  C3        22.8600    2.8230   17.9150 C.3   600  TDG600      0.2181
      6  O3        23.1370    4.1010   17.3370 O.3   600  TDG600     -0.2175
      7  C4        21.3920    2.4600   17.7130 C.3   600  TDG600      0.2143
      8  O4        21.0960    2.3730   16.3080 O.3   600  TDG600     -0.2176
      9  C5        21.1440    1.1140   18.3860 C.3   600  TDG600      0.1820
     10  O5        21.9720    0.1300   17.7440 O.3   600  TDG600     -0.3397
     11  C6        19.6770    0.7020   18.3270 C.3   600  TDG600      0.2142
     12  O6        19.4940   -0.5220   19.0620 O.3   600  TDG600     -0.2176
     13  C1'       23.5920   -2.3020   17.9770 C.3   600  TDG600      0.1976
     14  C2'       23.2320   -3.4670   17.0420 C.3   600  TDG600      0.2220
     15  O2'       22.2210   -3.0770   16.1020 O.3   600  TDG600     -0.2167
     16  C3'       22.7020   -4.6520   17.8640 C.3   600  TDG600      0.2181
     17  O3'       22.5190   -5.8040   17.0360 O.3   600  TDG600     -0.2175
     18  C4'       23.6100   -4.9960   19.0480 C.3   600  TDG600      0.2143
     19  O4'       24.8390   -5.5500   18.5670 O.3   600  TDG600     -0.2176
     20  C5'       23.8910   -3.7310   19.8650 C.3   600  TDG600      0.1820
     21  O5'       24.4950   -2.7500   19.0040 O.3   600  TDG600     -0.3397
     22  C6'       24.7180   -4.0130   21.1260 C.3   600  TDG600      0.2142
     23  O6'       26.0670   -3.5470   20.9940 O.3   600  TDG600     -0.2176
@<TRIPOS>BOND
     1    15    14    1
     2     8     7    1
     3    17    16    1
     4    14    16    1
     5    14    13    1
     6     2     1    1
     7     2    13    1
     8     3     4    1
     9     3     1    1
    10     3     5    1
    11     6     5    1
    12     7     5    1
    13     7     9    1
    14    10     1    1
    15    10     9    1
    16    16    18    1
    17    13    21    1
    18    11     9    1
    19    11    12    1
    20    19    18    1
    21    21    20    1
    22    18    20    1
    23    20    22    1
    24    23    22    1
