@<TRIPOS>MOLECULE
3oz0_3OZ_A_1.pdb
 33 36 0 0 0
SMALL
GASTEIGER

@<TRIPOS>ATOM
      1  C1        -0.9320  -17.8450   47.7160 C.ar    1  3OZ1        0.0840
      2  C2        -1.9680  -18.6360   48.2060 C.ar    1  3OZ1        0.0738
      3  C3         0.3370  -18.4220   47.6140 C.ar    1  3OZ1        0.0183
      4  C4        -1.7610  -19.9550   48.5760 C.ar    1  3OZ1        0.0241
      5  C5         0.5450  -19.7500   47.9860 C.ar    1  3OZ1        0.0128
      6  C6        -0.5050  -20.5210   48.4690 C.ar    1  3OZ1        0.0586
      7 CL7        -0.2740  -22.1670   48.9310 Cl      1  3OZ1       -0.0822
      8 CL8        -3.5520  -17.9940   48.3620 Cl      1  3OZ1       -0.0809
      9  N9        -1.2370  -16.4940   47.3540 N.am    1  3OZ1       -0.1769
     10  C10       -0.3970  -15.5330   46.8000 C.2     1  3OZ1        0.2644
     11  C11       -0.9430  -14.1450   46.4980 C.3     1  3OZ1        0.1599
     12  O12        0.7690  -15.7470   46.5680 O.2     1  3OZ1       -0.2712
     13  C13       -1.0430  -13.8440   45.0480 C.ar    1  3OZ1       -0.0016
     14  C14       -0.1250  -12.8920   44.7230 C.ar    1  3OZ1       -0.0084
     15  C15        0.6680  -12.4860   45.9300 C.3     1  3OZ1        0.0997
     16  N16        0.0010  -13.1580   47.0880 N.3     1  3OZ1       -0.2553
     17  C17       -0.6700  -12.2640   48.0570 C.3     1  3OZ1        0.1000
     18  C18       -1.9030  -14.3700   44.1020 C.ar    1  3OZ1       -0.0028
     19  C19       -1.7940  -13.9060   42.7930 C.ar    1  3OZ1       -0.0003
     20  C20       -0.8490  -12.9340   42.4530 C.ar    1  3OZ1       -0.0003
     21  C21       -0.0010  -12.4170   43.4270 C.ar    1  3OZ1       -0.0032
     22  C22        0.5330  -12.0730   51.6590 C.ar    1  3OZ1        0.0119
     23  C23        1.8490  -11.6450   51.4870 C.ar    1  3OZ1        0.1353
     24  C24       -0.2890  -12.2760   50.5570 C.ar    1  3OZ1       -0.0042
     25  C25        2.3220  -11.4200   50.2020 C.ar    1  3OZ1        0.0363
     26  C26        0.1970  -12.0430   49.2790 C.ar    1  3OZ1       -0.0062
     27  C27        1.5040  -11.6220   49.1100 C.ar    1  3OZ1        0.0002
     28  C28       -0.0140  -12.3280   53.0400 C.3     1  3OZ1        0.0342
     29  O29        2.6690  -11.4350   52.5640 O.3     1  3OZ1       -0.4640
     30  C30        4.0120  -11.9230   52.5770 C.3     1  3OZ1        0.3186
     31  C31        5.0030  -10.9110   52.0450 C.2     1  3OZ1        0.4084
     32  O32        6.1600  -11.2130   51.8510 O.co2   1  3OZ1       -0.2415
     33  O33        4.5810   -9.6510   51.7700 O.co2   1  3OZ1       -0.2415
@<TRIPOS>BOND
     1    20    19   ar
     2    20    21   ar
     3    19    18   ar
     4    21    14   ar
     5    18    13   ar
     6    14    13   ar
     7    14    15    1
     8    13    11    1
     9    15    16    1
    10    11    10    1
    11    11    16    1
    12    12    10    2
    13    10     9   am
    14    16    17    1
    15     9     1    1
    16     3     1   ar
    17     3     5   ar
    18     1     2   ar
    19     5     6   ar
    20    17    26    1
    21     2     8    1
    22     2     4   ar
    23     6     4   ar
    24     6     7    1
    25    27    26   ar
    26    27    25   ar
    27    26    24   ar
    28    25    23   ar
    29    24    22   ar
    30    23    22   ar
    31    23    29    1
    32    22    28    1
    33    33    31   ar
    34    32    31   ar
    35    31    30    1
    36    29    30    1
