@<TRIPOS>MOLECULE
3oz1_BMB_A_1.pdb
 45 49 0 0 0
SMALL
GASTEIGER

@<TRIPOS>ATOM
      1  C        -16.8850  -30.0740   -9.4590 C.2   600  BMB600      0.2576
      2  N        -14.7320  -29.0990   -9.9240 N.3   600  BMB600     -0.2087
      3  O        -17.0450  -29.8990   -8.2450 O.2   600  BMB600     -0.2718
      4  CA       -15.5080  -30.3450  -10.0310 C.3   600  BMB600      0.1504
      5  CB       -14.8390  -31.5230   -9.2880 C.3   600  BMB600      0.0268
      6  CAA      -15.7880  -32.7150   -9.1350 C.3   600  BMB600      0.0020
      7  CAB      -14.3400  -28.7890   -8.5300 C.3   600  BMB600      0.1080
      8  OAD      -22.6810  -31.8650  -11.5930 O.2   600  BMB600     -0.2715
      9  OAE      -19.5850  -32.1690  -10.5790 O.2   600  BMB600     -0.2730
     10  CAF      -14.7170  -23.7300   -8.5040 C.ar  600  BMB600     -0.0000
     11  CAG      -22.4880  -38.3340  -13.6650 C.ar  600  BMB600     -0.0000
     12  CAH      -27.7380  -33.1430  -12.3770 C.ar  600  BMB600     -0.0000
     13  CAI      -14.4090  -23.3610   -9.8170 C.ar  600  BMB600     -0.0003
     14  CAJ      -15.7670  -24.6210   -8.2620 C.ar  600  BMB600     -0.0003
     15  CAK      -21.5240  -37.3920  -13.3160 C.ar  600  BMB600     -0.0003
     16  CAL      -23.8290  -37.9940  -13.6010 C.ar  600  BMB600     -0.0003
     17  CAM      -26.7730  -32.3650  -13.0240 C.ar  600  BMB600     -0.0003
     18  CAN      -27.3740  -34.3230  -11.7170 C.ar  600  BMB600     -0.0003
     19  CAO      -15.1710  -23.8670  -10.8760 C.ar  600  BMB600     -0.0029
     20  CAP      -16.5200  -25.1320   -9.3260 C.ar  600  BMB600     -0.0029
     21  CAQ      -21.9080  -36.1200  -12.9070 C.ar  600  BMB600     -0.0023
     22  CAR      -24.2130  -36.7240  -13.1760 C.ar  600  BMB600     -0.0023
     23  CAS      -25.4500  -32.8020  -13.0230 C.ar  600  BMB600     -0.0023
     24  CAT      -26.0390  -34.7380  -11.6870 C.ar  600  BMB600     -0.0023
     25  CAV      -18.8630  -26.8580  -12.0260 C.3   600  BMB600      0.0892
     26  CAW      -19.3140  -28.3260  -11.9950 C.3   600  BMB600      0.0210
     27  CAX      -21.4690  -28.8680  -10.6950 C.3   600  BMB600      0.0040
     28  CAY      -22.1110  -28.9470   -9.2950 C.3   600  BMB600      0.0199
     29  CAZ      -23.3620  -30.9290   -8.4770 C.3   600  BMB600      0.0220
     30  CBA      -23.0600  -32.4200   -8.3580 C.3   600  BMB600      0.0310
     31  CBB      -17.0260  -25.3160  -11.8390 C.3   600  BMB600      0.1150
     32  NBD      -17.4410  -26.7240  -11.6580 N.3   600  BMB600     -0.2133
     33  NBE      -17.8630  -30.0840  -10.3510 N.am  600  BMB600     -0.1967
     34  NBF      -23.0110  -34.0360  -11.0570 N.am  600  BMB600     -0.1967
     35  CBH      -22.6040  -32.7950  -10.7910 C.2   600  BMB600      0.2600
     36  CBI      -20.0500  -31.1930   -9.9770 C.2   600  BMB600      0.2458
     37  CBJ      -16.2080  -24.7770  -10.6440 C.ar  600  BMB600     -0.0048
     38  CBK      -23.2540  -35.7850  -12.8170 C.ar  600  BMB600      0.0016
     39  CBL      -25.0850  -33.9880  -12.3720 C.ar  600  BMB600      0.0016
     40  CBM      -19.9380  -28.6880  -10.6190 C.3   600  BMB600      0.0304
     41  CBO      -21.9790  -30.3160   -8.5970 C.3   600  BMB600      0.0759
     42  CBP      -21.9760  -32.6000   -9.4130 C.3   600  BMB600      0.1535
     43  CBQ      -19.2520  -29.8770   -9.9210 C.3   600  BMB600      0.1712
     44  CBR      -23.6090  -34.3670  -12.3590 C.3   600  BMB600      0.1397
     45  NBS      -21.2340  -31.3260   -9.3810 N.am  600  BMB600     -0.2732
@<TRIPOS>BOND
     1    11    16   ar
     2    11    15   ar
     3    16    22   ar
     4    15    21   ar
     5    22    38   ar
     6    17    23   ar
     7    17    12   ar
     8    23    39   ar
     9    21    38   ar
    10    38    44    1
    11    12    18   ar
    12    39    44    1
    13    39    24   ar
    14    44    34    1
    15    25    26    1
    16    25    32    1
    17    26    40    1
    18    31    32    1
    19    31    37    1
    20    18    24   ar
    21     8    35    2
    22    34    35   am
    23    19    37   ar
    24    19    13   ar
    25    35    42    1
    26    27    40    1
    27    27    28    1
    28    37    20   ar
    29    40    43    1
    30     9    36    2
    31    33    43    1
    32    33     1   am
    33     4     2    1
    34     4     1    1
    35     4     5    1
    36    36    43    1
    37    36    45   am
    38     2     7    1
    39    13    10   ar
    40     1     3    2
    41    42    45    1
    42    42    30    1
    43    45    41    1
    44    20    14   ar
    45    28    41    1
    46     5     6    1
    47    41    29    1
    48    10    14   ar
    49    29    30    1
