@<TRIPOS>MOLECULE
3oz2_OZ2_A_1.pdb
 48 47 0 0 0
SMALL
GASTEIGER

@<TRIPOS>ATOM
      1  P          8.0300   57.2180   34.0960 P.3   502  OZ2502      0.2142
      2  C1        10.7540   51.4770   34.0440 C.2   502  OZ2502      0.3171
      3  O1        11.5490   52.2120   34.6070 O.2   502  OZ2502     -0.2501
      4  C2        11.1350   50.0040   33.8830 C.3   502  OZ2502      0.1096
      5  C3        12.3790   49.8380   33.0210 C.3   502  OZ2502      0.0116
      6  C4        13.4380   48.8430   33.5220 C.3   502  OZ2502      0.0006
      7  C5        14.6350   48.9420   32.5800 C.3   502  OZ2502      0.0000
      8  C6        15.8080   48.0570   32.9600 C.3   502  OZ2502      0.0003
      9  C7        16.9840   48.3690   32.0490 C.3   502  OZ2502      0.0047
     10  C8        18.1830   47.5300   32.3770 C.3   502  OZ2502      0.0257
     11  C9        19.3740   47.9500   31.5250 C.2   502  OZ2502     -0.0307
     12  C10       20.2940   48.8440   31.9250 C.2   502  OZ2502     -0.0307
     13  C11       20.2340   49.4830   33.2890 C.3   502  OZ2502      0.0257
     14  C12       21.1670   50.6790   33.4050 C.3   502  OZ2502      0.0047
     15  C13       20.4910   51.9870   33.0080 C.3   502  OZ2502      0.0003
     16  C14       21.1610   53.1510   33.7280 C.3   502  OZ2502      0.0000
     17  C15       20.5720   54.4880   33.3000 C.3   502  OZ2502      0.0000
     18  C16       21.2400   55.6590   34.0300 C.3   502  OZ2502      0.0000
     19  C17       20.6460   55.8580   35.4380 C.3   502  OZ2502      0.0000
     20  C18       21.6510   56.3490   36.4780 C.3   502  OZ2502      0.0000
     21  C1B        9.8360   53.7700   37.7260 C.2   502  OZ2502      0.3171
     22  O1B        9.1870   54.7040   38.1710 O.2   502  OZ2502     -0.2501
     23  C1G        9.2030   53.4510   34.0560 C.3   502  OZ2502      0.2543
     24  O1G        9.4940   52.0960   33.6150 O.3   502  OZ2502     -0.4444
     25  C2B       11.0440   53.2540   38.5120 C.3   502  OZ2502      0.1096
     26  C2G        8.5300   53.5330   35.4420 C.3   502  OZ2502      0.2420
     27  O2G        9.4650   53.0930   36.4710 O.3   502  OZ2502     -0.4457
     28  C3B       12.3790   53.8770   38.0700 C.3   502  OZ2502      0.0120
     29  C3G        7.8430   54.9060   35.5890 C.3   502  OZ2502      0.1964
     30  O3G        8.5980   55.9840   35.0110 O.3   502  OZ2502     -0.3100
     31  C4B       13.6330   53.1780   38.6260 C.3   502  OZ2502      0.0052
     32  C5B       14.9070   53.7280   37.9820 C.3   502  OZ2502      0.0257
     33  C6B       16.1720   53.4780   38.7770 C.2   502  OZ2502     -0.0307
     34  C7B       17.0370   54.4320   39.1500 C.2   502  OZ2502     -0.0307
     35  C8B       16.8250   55.9070   38.8720 C.3   502  OZ2502      0.0257
     36  C9B       17.6730   56.7830   39.8000 C.3   502  OZ2502      0.0047
     37  CB0       16.8470   57.5990   40.8020 C.3   502  OZ2502      0.0003
     38  CB1       17.7150   58.5740   41.6110 C.3   502  OZ2502      0.0000
     39  CB2       17.5370   58.4220   43.1250 C.3   502  OZ2502      0.0000
     40  CB3       18.5610   59.2080   43.9260 C.3   502  OZ2502      0.0000
     41  CG1        5.9410   58.8390   34.1640 C.3   502  OZ2502      0.1846
     42  CG2        5.4810   59.0070   32.7110 C.3   502  OZ2502      0.2146
     43  OG2        4.0630   58.8400   32.6760 O.3   502  OZ2502     -0.2176
     44  CG3        5.8130   60.3730   32.0950 C.3   502  OZ2502      0.2174
     45  OG3        6.0880   61.3780   33.0820 O.3   502  OZ2502     -0.2175
     46  OP1        8.1060   56.8760   32.5140 O.2   502  OZ2502     -0.5172
     47  OP2        8.9180   58.5270   34.4300 O.3   502  OZ2502     -0.4373
     48  OP3        6.4770   57.5300   34.4270 O.3   502  OZ2502     -0.3112
@<TRIPOS>BOND
     1    11    12    2
     2    11    10    1
     3    12    13    1
     4     9    10    1
     5     9     8    1
     6    44    42    1
     7    44    45    1
     8    46     1    2
     9     7     8    1
    10     7     6    1
    11    43    42    1
    12    42    41    1
    13    15    14    1
    14    15    16    1
    15     5     6    1
    16     5     4    1
    17    13    14    1
    18    17    16    1
    19    17    18    1
    20    24     2    1
    21    24    23    1
    22     4     2    1
    23    18    19    1
    24     2     3    2
    25    23    26    1
    26     1    48    1
    27     1    47    1
    28     1    30    1
    29    41    48    1
    30    30    29    1
    31    19    20    1
    32    26    29    1
    33    26    27    1
    34    27    21    1
    35    21    22    2
    36    21    25    1
    37    32    31    1
    38    32    33    1
    39    28    25    1
    40    28    31    1
    41    33    34    2
    42    35    34    1
    43    35    36    1
    44    36    37    1
    45    37    38    1
    46    38    39    1
    47    39    40    1
