@<TRIPOS>MOLECULE
3ozb_HPA_A_1.pdb
 10 11 0 0 0
SMALL
GASTEIGER

@<TRIPOS>ATOM
      1  N1        43.3970   -0.7590  148.5780 N.2   260  HPA260     -0.1726
      2  C2        43.3810    0.1810  149.5960 C.3   260  HPA260      0.2725
      3  N3        42.7190   -0.1100  150.7550 N.2   260  HPA260     -0.1902
      4  C4        42.0710   -1.2940  150.9030 C.1   260  HPA260      0.0598
      5  C5        42.0850   -2.2510  149.8940 C.2   260  HPA260      0.2226
      6  C6        42.7550   -1.9860  148.7120 C.1   260  HPA260      0.1796
      7  O6        42.7150   -2.8030  147.7860 O.2   260  HPA260     -0.2200
      8  N7        41.3910   -3.3220  150.3090 N.2   260  HPA260     -0.2230
      9  C8        40.9380   -3.0300  151.5530 C.3   260  HPA260      0.2622
     10  N9        41.3530   -1.8010  151.9260 N.2   260  HPA260     -0.1910
@<TRIPOS>BOND
     1     7     6    2
     2     1     6    2
     3     1     2    1
     4     6     5    1
     5     2     3    1
     6     5     8    2
     7     5     4    1
     8     8     9    1
     9     3     4    2
    10     4    10    2
    11     9    10    1
