@<TRIPOS>MOLECULE
3ozc_4CT_A_1.pdb
 26 29 0 0 0
SMALL
GASTEIGER

@<TRIPOS>ATOM
      1  N1        63.9110  -19.8170    3.4550 N.2   284  4CT284     -0.0278
      2 CL1        63.6140   -9.9800   13.2210 Cl    284  4CT284     -0.0822
      3  C2        63.1310  -20.1890    4.4940 C.3   284  4CT284      0.3922
      4  N3        62.3860  -19.2690    5.1230 N.2   284  4CT284     -0.2171
      5  C4        62.4300  -17.9720    4.7120 C.2   284  4CT284      0.1045
      6  C5        63.1970  -17.5680    3.6370 C.2   284  4CT284      0.1884
      7  C6        63.9600  -18.5410    2.9930 C.2   284  4CT284      0.4315
      8  N6        64.7590  -18.2360    1.9390 N.pl3 284  4CT284      0.2177
      9  N7        63.0090  -16.2320    3.4970 N.2   284  4CT284     -0.2350
     10  C8        62.1250  -15.8000    4.4290 C.2   284  4CT284      0.0978
     11  C9        61.7460  -16.8800    5.2270 C.2   284  4CT284      0.0321
     12  C1'       62.0870  -15.4460    8.0200 C.3   284  4CT284      0.0759
     13  N1'       61.2300  -16.6220    7.7780 N.3   284  4CT284     -0.2666
     14  C10       60.7570  -16.8290    6.3690 C.3   284  4CT284      0.1023
     15  C11       63.9850  -11.1910   11.9540 C.ar  284  4CT284      0.0577
     16  C13       64.2270  -10.7390   10.6600 C.ar  284  4CT284      0.0119
     17  C14       64.4940  -11.6460    9.6490 C.ar  284  4CT284      0.0070
     18  C2'       61.9770  -17.7810    8.2870 C.3   284  4CT284      0.1057
     19  C3'       62.5000  -17.2400    9.6130 C.3   284  4CT284      0.1700
     20  O3'       61.4290  -17.3240   10.5550 O.3   284  4CT284     -0.2216
     21  C4'       62.8420  -15.8000    9.3040 C.3   284  4CT284      0.0589
     22  C5'       64.3520  -15.6860    9.0830 C.3   284  4CT284      0.0661
     23  S6'       64.8690  -14.0590    8.6730 S.3   284  4CT284     -0.1135
     24  C7'       64.5430  -13.0060    9.9470 C.ar  284  4CT284      0.0253
     25  C8'       64.3130  -13.4690   11.2460 C.ar  284  4CT284      0.0070
     26  C9'       64.0230  -12.5500   12.2590 C.ar  284  4CT284      0.0119
@<TRIPOS>BOND
     1     8     7    1
     2     7     1    2
     3     7     6    1
     4     1     3    1
     5     9     6    2
     6     9    10    1
     7     6     5    1
     8    10    11    2
     9     3     4    1
    10     5     4    2
    11     5    11    1
    12    11    14    1
    13    14    13    1
    14    13    12    1
    15    13    18    1
    16    12    21    1
    17    18    19    1
    18    23    22    1
    19    23    24    1
    20    22    21    1
    21    21    19    1
    22    19    20    1
    23    17    24   ar
    24    17    16   ar
    25    24    25   ar
    26    16    15   ar
    27    25    26   ar
    28    15    26   ar
    29    15     2    1
