@<TRIPOS>MOLECULE
3ozd_4CT_A_1.pdb
 26 29 0 0 0
SMALL
GASTEIGER

@<TRIPOS>ATOM
      1  N1        14.5880    6.2360   -4.1590 N.2   284  4CT284     -0.0278
      2 CL1        21.6570   13.0990    5.2830 Cl    284  4CT284     -0.0822
      3  C2        13.9370    6.7310   -3.1050 C.3   284  4CT284      0.3922
      4  N3        14.3480    7.8610   -2.5160 N.2   284  4CT284     -0.2171
      5  C4        15.4490    8.4900   -3.0120 C.2   284  4CT284      0.1045
      6  C5        16.1540    8.0330   -4.1030 C.2   284  4CT284      0.1884
      7  C6        15.6930    6.8420   -4.6750 C.2   284  4CT284      0.4315
      8  N6        16.2500    6.2890   -5.7530 N.pl3 284  4CT284      0.2177
      9  N7        17.1630    8.9090   -4.3140 N.2   284  4CT284     -0.2350
     10  C8        17.1120    9.8850   -3.3880 C.2   284  4CT284      0.0978
     11  C9        16.0320    9.6350   -2.5250 C.2   284  4CT284      0.0321
     12  C1'       17.5070    9.9480    0.1020 C.3   284  4CT284      0.0759
     13  N1'       16.0780   10.3050   -0.0100 N.3   284  4CT284     -0.2666
     14  C10       15.5490   10.4990   -1.3780 C.3   284  4CT284      0.1023
     15  C11       21.2370   11.7870    4.1160 C.ar  284  4CT284      0.0577
     16  C13       20.7260   10.5710    4.5790 C.ar  284  4CT284      0.0119
     17  C14       20.4170    9.5440    3.6840 C.ar  284  4CT284      0.0070
     18  C2'       15.3350    9.2550    0.7050 C.3   284  4CT284      0.1057
     19  C3'       16.1840    8.9950    1.9330 C.3   284  4CT284      0.1700
     20  O3'       15.7140    9.9950    2.8520 O.3   284  4CT284     -0.2216
     21  C4'       17.6150    9.3000    1.4890 C.3   284  4CT284      0.0589
     22  C5'       18.5140    8.0690    1.3830 C.3   284  4CT284      0.0661
     23  S6'       20.2100    8.5280    1.2230 S.3   284  4CT284     -0.1135
     24  C7'       20.6020    9.7540    2.3240 C.ar  284  4CT284      0.0253
     25  C8'       21.0890   10.9640    1.8570 C.ar  284  4CT284      0.0070
     26  C9'       21.4150   11.9830    2.7490 C.ar  284  4CT284      0.0119
@<TRIPOS>BOND
     1     8     7    1
     2     7     1    2
     3     7     6    1
     4     9     6    2
     5     9    10    1
     6     1     3    1
     7     6     5    1
     8    10    11    2
     9     3     4    1
    10     5    11    1
    11     5     4    2
    12    11    14    1
    13    14    13    1
    14    13    12    1
    15    13    18    1
    16    12    21    1
    17    18    19    1
    18    23    22    1
    19    23    24    1
    20    22    21    1
    21    21    19    1
    22    25    24   ar
    23    25    26   ar
    24    19    20    1
    25    24    17   ar
    26    26    15   ar
    27    17    16   ar
    28    15    16   ar
    29    15     2    1
