@<TRIPOS>MOLECULE
3ozf_HPA_A_1.pdb
 10 11 0 0 0
SMALL
GASTEIGER

@<TRIPOS>ATOM
      1  N1        17.1900   -3.1010   23.5300 N.2   232  HPA232     -0.1726
      2  C2        16.3360   -3.9940   22.8870 C.3   232  HPA232      0.2725
      3  N3        15.6410   -3.6080   21.7770 N.2   232  HPA232     -0.1902
      4  C4        15.7860   -2.3530   21.3040 C.1   232  HPA232      0.0598
      5  C5        16.6330   -1.4390   21.9400 C.2   232  HPA232      0.2226
      6  C6        17.3620   -1.8230   23.0730 C.1   232  HPA232      0.1796
      7  O6        18.1700   -1.0680   23.6540 O.2   232  HPA232     -0.2200
      8  N7        16.5440   -0.2800   21.2500 N.2   232  HPA232     -0.2230
      9  C8        15.6840   -0.4590   20.2080 C.3   232  HPA232      0.2622
     10  N9        15.2270   -1.7250   20.2360 N.2   232  HPA232     -0.1910
@<TRIPOS>BOND
     1     9    10    1
     2     9     8    1
     3    10     4    2
     4     8     5    2
     5     4     3    2
     6     4     5    1
     7     3     2    1
     8     5     6    1
     9     2     1    1
    10     6     1    2
    11     6     7    2
