@<TRIPOS>MOLECULE
3ozg_SSI_A_1.pdb
 21 22 0 0 0
SMALL
GASTEIGER

@<TRIPOS>ATOM
      1  P         65.7260   35.7830   71.4690 P.3   232  SSI232      0.1172
      2  N1        64.4740   37.4540   80.4880 N.2   232  SSI232     -0.1739
      3  C2        63.3060   36.8340   80.2540 C.3   232  SSI232      0.2626
      4  N3        63.0160   36.2470   79.0900 N.2   232  SSI232     -0.2415
      5  C4        63.9470   36.2890   78.1100 C.2   232  SSI232      0.1059
      6  C5        65.2460   36.9460   78.2820 C.2   232  SSI232      0.1804
      7  C6        65.4750   37.5640   79.6040 C.1   232  SSI232      0.1716
      8  O6        66.5660   38.1620   79.8780 O.2   232  SSI232     -0.2206
      9  N7        65.9200   36.8070   77.1280 N.2   232  SSI232     -0.2310
     10  C8        65.1680   36.0890   76.2310 C.2   232  SSI232      0.0984
     11  C9        63.9170   35.7300   76.7400 C.2   232  SSI232      0.0339
     12  C1'       62.8070   34.9170   76.0880 C.3   232  SSI232      0.1181
     13  O1P       65.1000   34.6660   70.6430 O.2   232  SSI232     -0.4601
     14  O2P       66.3680   36.8810   70.6700 O.3   232  SSI232     -0.3571
     15  C3'       61.2720   36.6510   73.0790 C.3   232  SSI232      0.1993
     16  O3'       60.1080   37.0790   73.8070 O.3   232  SSI232     -0.2189
     17  O3P       66.6050   35.3450   72.6090 O.3   232  SSI232     -0.3571
     18  C4'       62.4480   36.3670   74.0060 C.3   232  SSI232      0.1065
     19  N4'       61.9480   35.6070   75.1490 N.3   232  SSI232     -0.2119
     20  C5'       63.5530   35.6340   73.2260 C.3   232  SSI232      0.0278
     21  C6'       64.3020   36.5820   72.2800 C.3   232  SSI232      0.0605
@<TRIPOS>BOND
     1    13     1    2
     2    14     1    1
     3     1    21    1
     4     1    17    1
     5    21    20    1
     6    15    16    1
     7    15    18    1
     8    20    18    1
     9    18    19    1
    10    19    12    1
    11    12    11    1
    12    10    11    2
    13    10     9    1
    14    11     5    1
    15     9     6    2
    16     5     6    1
    17     5     4    2
    18     6     7    1
    19     4     3    1
    20     7     8    2
    21     7     2    2
    22     3     2    1
