@<TRIPOS>MOLECULE
3ozj_BGV_A_1.pdb
 22 24 0 0 0
SMALL
GASTEIGER

@<TRIPOS>ATOM
      1  CAA       13.0420   16.0390   17.3800 C.2     1  BGV1        0.0022
      2  CAB       15.4340   15.4700   21.9040 C.3     1  BGV1        0.1212
      3  CAC       18.4990   13.1170   16.0970 C.3     1  BGV1        0.0005
      4  CAD       15.6190   11.7880   18.2830 C.3     1  BGV1        0.0117
      5  OAE       13.3210   15.0710   21.0410 O.2     1  BGV1       -0.2501
      6  OAF       16.3490   12.4080   20.9100 O.2     1  BGV1       -0.2912
      7  OAG       12.4140   15.0020   14.7100 O.2     1  BGV1       -0.2452
      8  CAH       18.0280   13.3010   19.8720 C.2     1  BGV1        0.0330
      9  CAI       18.2330   13.8740   18.7290 C.2     1  BGV1       -0.0230
     10  CAJ       16.0410   13.2610   15.6990 C.3     1  BGV1        0.0444
     11  OAK       14.9550   15.1080   19.6130 O.3     1  BGV1       -0.4513
     12  OAL       14.0950   13.6230   15.1190 O.3     1  BGV1       -0.4490
     13  CAM       14.4900   15.1610   20.8200 C.2     1  BGV1        0.3175
     14  CAN       13.6460   15.0340   16.6800 C.2     1  BGV1        0.0601
     15  CAO       16.7900   12.9760   19.9620 C.2     1  BGV1        0.1757
     16  CAP       13.2920   14.5870   15.4350 C.2     1  BGV1        0.3373
     17  CAQ       17.1310   12.9530   16.6890 C.3     1  BGV1        0.0082
     18  CAR       14.6950   13.1470   16.2630 C.3     1  BGV1        0.1768
     19  CAS       16.9690   13.8290   17.8730 C.3     1  BGV1        0.0325
     20  CAT       14.7780   14.0080   18.7290 C.3     1  BGV1        0.1833
     21  CAU       14.8210   14.2920   17.1850 C.3     1  BGV1        0.1092
     22  CAV       16.0050   13.1740   18.7460 C.3     1  BGV1        0.0964
@<TRIPOS>BOND
     1     7    16    2
     2    12    16    1
     3    12    18    1
     4    16    14    1
     5    10    18    1
     6    10    17    1
     7     3    17    1
     8    18    21    1
     9    14    21    1
    10    14     1    2
    11    17    19    1
    12    21    20    1
    13    19     9    1
    14    19    22    1
    15     4    22    1
    16    20    22    1
    17    20    11    1
    18     9     8    2
    19    22    15    1
    20    11    13    1
    21     8    15    1
    22    15     6    2
    23    13     5    2
    24    13     2    1
