@<TRIPOS>MOLECULE
3ozk_T44_A_1.pdb
 24 25 0 0 0
SMALL
GASTEIGER

@<TRIPOS>ATOM
      1  C1       -23.5890   -1.2740  -28.7270 C.ar  128  T44128     -0.0191
      2  C2       -23.9660   -1.1870  -27.3920 C.ar  128  T44128      0.0047
      3  C3       -23.0970   -0.6580  -26.4400 C.ar  128  T44128      0.0647
      4  C4       -21.8460   -0.2170  -26.8250 C.ar  128  T44128      0.1558
      5  C5       -21.4640   -0.3010  -28.1540 C.ar  128  T44128      0.0647
      6  C6       -22.3260   -0.8310  -29.1080 C.ar  128  T44128      0.0047
      7  C7       -24.5820   -1.8550  -29.7400 C.3   128  T44128      0.0570
      8  C8       -24.0130   -2.0210  -31.1440 C.3   128  T44128      0.1986
      9  C9       -25.1880   -2.1120  -32.1240 C.2   128  T44128      0.3822
     10  C1'      -21.1360    0.1400  -24.5940 C.ar  128  T44128      0.1464
     11  C2'      -20.9660    1.2630  -23.8060 C.ar  128  T44128      0.0465
     12  C3'      -21.1040    1.2140  -22.4320 C.ar  128  T44128      0.0724
     13  C4'      -21.4190   -0.0030  -21.8220 C.ar  128  T44128      0.2064
     14  C5'      -21.5850   -1.1520  -22.6140 C.ar  128  T44128      0.0724
     15  C6'      -21.4360   -1.0770  -23.9960 C.ar  128  T44128      0.0465
     16  N8       -23.1380   -0.8910  -31.4860 N.3   128  T44128     -0.1205
     17  O4       -20.9580    0.3020  -25.9360 O.3   128  T44128     -0.4526
     18  O4'      -21.5580   -0.0690  -20.4680 O.3   128  T44128     -0.2857
     19  O9       -25.0200   -2.8070  -33.1520 O.co2 128  T44128     -0.2440
     20  O10      -26.2360   -1.5040  -31.8100 O.co2 128  T44128     -0.2440
     21  I3       -23.6370   -0.5030  -24.4270 I     128  T44128     -0.0393
     22  I3'      -20.8090    3.0270  -21.3860 I     128  T44128     -0.0391
     23  I5       -19.5610    0.3830  -28.6940 I     128  T44128     -0.0393
     24  I5'      -22.0550   -3.0410  -21.8060 I     128  T44128     -0.0391
@<TRIPOS>BOND
     1    19     9   ar
     2     9    20   ar
     3     9     8    1
     4    16     8    1
     5     8     7    1
     6     7     1    1
     7     6     1   ar
     8     6     5   ar
     9     1     2   ar
    10    23     5    1
    11     5     4   ar
    12     2     3   ar
    13     4     3   ar
    14     4    17    1
    15     3    21    1
    16    17    10    1
    17    10    15   ar
    18    10    11   ar
    19    15    14   ar
    20    11    12   ar
    21    14    13   ar
    22    14    24    1
    23    12    13   ar
    24    12    22    1
    25    13    18    1
