@<TRIPOS>MOLECULE
3ozl_FLF_A_1.pdb
 20 21 0 0 0
SMALL
GASTEIGER

@<TRIPOS>ATOM
      1  C1       -22.8070   -0.7010  -28.7650 C.ar  501  FLF501      0.0950
      2  O1       -21.6340    0.5870  -30.4020 O.co2 501  FLF501     -0.2405
      3  C2       -23.5460   -1.4230  -29.6660 C.ar  501  FLF501      0.0079
      4  C3       -24.5900   -2.2270  -29.1930 C.ar  501  FLF501      0.0003
      5  O2       -20.7040    0.4880  -28.4380 O.co2 501  FLF501     -0.2405
      6  C4       -24.9370   -2.3480  -27.8440 C.ar  501  FLF501      0.0013
      7  C5       -24.2270   -1.6470  -26.9340 C.ar  501  FLF501      0.0167
      8  C6       -23.2520   -0.9280  -27.4880 C.ar  501  FLF501      0.0768
      9  C7       -21.6450    0.1910  -29.2120 C.2   501  FLF501      0.3890
     10  N        -22.6570   -0.3460  -26.7640 N.pl3 501  FLF501     -0.2123
     11  C1'      -22.4540   -0.3340  -25.2380 C.ar  501  FLF501      0.0704
     12  C2'      -22.0670    0.8730  -24.4180 C.ar  501  FLF501      0.0204
     13  C3'      -21.7600    0.9040  -22.9810 C.ar  501  FLF501      0.0727
     14  C4'      -21.7720   -0.3230  -22.3140 C.ar  501  FLF501      0.0039
     15  C5'      -22.0700   -1.4790  -23.0370 C.ar  501  FLF501      0.0013
     16  C6'      -22.3680   -1.4840  -24.4260 C.ar  501  FLF501      0.0165
     17  C7'      -21.4400    2.1510  -22.1520 C.3   501  FLF501      0.4186
     18  F1       -20.1440    2.4050  -22.1880 F     501  FLF501     -0.1659
     19  F2       -22.0940    3.1880  -22.6380 F     501  FLF501     -0.1659
     20  F3       -21.8020    2.0030  -20.8840 F     501  FLF501     -0.1659
@<TRIPOS>BOND
     1     2     9   ar
     2     3     4   ar
     3     3     1   ar
     4     9     1    1
     5     9     5   ar
     6     4     6   ar
     7     1     8   ar
     8     6     7   ar
     9     8     7   ar
    10     8    10    1
    11    10    11    1
    12    11    16   ar
    13    11    12   ar
    14    16    15   ar
    15    12    13   ar
    16    15    14   ar
    17    13    14   ar
    18    13    17    1
    19    19    17    1
    20    18    17    1
    21    17    20    1
