@<TRIPOS>MOLECULE
3ozm_DXL_A_1.pdb
 12 11 0 0 0
SMALL
GASTEIGER

@<TRIPOS>ATOM
      1  OAA       24.8810   19.8230   68.5020 O.co2 391  DXL391     -0.2427
      2  OAB       22.2670   20.2570   67.8600 O.3   391  DXL391     -0.2080
      3  OAC       23.7340   16.9480   65.4330 O.3   391  DXL391     -0.2080
      4  OAD       23.0790   15.3700   68.6090 O.co2 391  DXL391     -0.2427
      5  OAE       25.3130   19.4380   66.3650 O.co2 391  DXL391     -0.2427
      6  CAF       24.5340   19.5590   67.3390 C.2   391  DXL391      0.3973
      7  CAG       23.0430   19.3470   67.0610 C.3   391  DXL391      0.2870
      8  CAH       22.6400   17.9090   67.4360 C.3   391  DXL391      0.2346
      9  CAI       23.6410   16.8880   66.8640 C.3   391  DXL391      0.2870
     10  CAJ       23.4350   15.4580   67.4150 C.2   391  DXL391      0.3973
     11  OAK       23.6670   14.4740   66.6730 O.co2 391  DXL391     -0.2427
     12  OAL       21.2860   17.6790   67.0300 O.3   391  DXL391     -0.2164
@<TRIPOS>BOND
     1     3     9    1
     2     5     6   ar
     3    11    10   ar
     4     9    10    1
     5     9     8    1
     6    12     8    1
     7     7     6    1
     8     7     8    1
     9     7     2    1
    10     6     1   ar
    11    10     4   ar
