@<TRIPOS>MOLECULE
3ozm_LY9_D_1.pdb
 12 11 0 0 0
SMALL
GASTEIGER

@<TRIPOS>ATOM
      1  OAA       28.5100  -27.7550   63.5900 O.co2 391  LY9391     -0.2427
      2  OAB       26.2640  -26.4690   62.1570 O.3   391  LY9391     -0.2080
      3  OAC       27.4230  -24.9250   59.6040 O.3   391  LY9391     -0.2080
      4  OAD       28.8280  -28.1120   58.6810 O.co2 391  LY9391     -0.2427
      5  OAE       28.4580  -25.6940   64.4690 O.co2 391  LY9391     -0.2427
      6  CAF       28.2500  -26.5360   63.5580 C.2   391  LY9391      0.3973
      7  CAG       27.6210  -26.0010   62.2750 C.3   391  LY9391      0.2870
      8  CAH       28.4420  -26.5110   61.0830 C.3   391  LY9391      0.2346
      9  CAI       27.6700  -26.3270   59.7780 C.3   391  LY9391      0.2870
     10  CAJ       28.5110  -26.9050   58.6250 C.2   391  LY9391      0.3973
     11  OAK       28.8250  -26.1330   57.6970 O.co2 391  LY9391     -0.2427
     12  OAL       29.6410  -25.7210   61.0370 O.3   391  LY9391     -0.2164
@<TRIPOS>BOND
     1    11    10   ar
     2    10     4   ar
     3    10     9    1
     4     3     9    1
     5     9     8    1
     6    12     8    1
     7     8     7    1
     8     2     7    1
     9     7     6    1
    10     6     1   ar
    11     6     5   ar
