@<TRIPOS>MOLECULE
3ozo_NGT_A_1.pdb
 14 15 0 0 0
SMALL
GASTEIGER

@<TRIPOS>ATOM
      1  C1        21.7120  -33.0340  -11.6960 C.3     1  NGT1        0.1925
      2  C2        21.6340  -34.0880  -10.5500 C.3     1  NGT1        0.1740
      3  C3        21.9260  -35.5310  -11.0260 C.3     1  NGT1        0.2101
      4  C4        21.1790  -35.8680  -12.3060 C.3     1  NGT1        0.2137
      5  C5        21.6040  -34.8610  -13.3680 C.3     1  NGT1        0.1820
      6  C6        20.9610  -35.1830  -14.7140 C.3     1  NGT1        0.2142
      7  C7        23.6590  -32.9500  -10.0430 C.2     1  NGT1        0.0815
      8  C8        24.8230  -32.4180   -9.2350 C.3     1  NGT1        0.0587
      9  N2        22.6690  -33.6920   -9.5300 N.2     1  NGT1       -0.2643
     10  S1        23.4390  -32.6160  -11.6810 S.3     1  NGT1       -0.0689
     11  O3        21.5530  -36.4470  -10.0020 O.3     1  NGT1       -0.2181
     12  O4        21.5480  -37.1890  -12.6990 O.3     1  NGT1       -0.2176
     13  O5        21.1840  -33.5340  -12.9760 O.3     1  NGT1       -0.3400
     14  O6        21.4270  -34.2480  -15.6930 O.3     1  NGT1       -0.2176
@<TRIPOS>BOND
     1    14     6    1
     2     6     5    1
     3     5    13    1
     4     5     4    1
     5    13     1    1
     6    12     4    1
     7     4     3    1
     8     1    10    1
     9     1     2    1
    10    10     7    1
    11     3     2    1
    12     3    11    1
    13     2     9    1
    14     7     9    2
    15     7     8    1
