@<TRIPOS>MOLECULE
3ozp_OAN_A_1.pdb
 25 26 0 0 0
SMALL
GASTEIGER

@<TRIPOS>ATOM
      1  CAH       38.3340  -56.1750   38.8300 C.3     1  OAN1        0.0964
      2  CAG       37.2970  -56.7690   39.7830 C.2     1  OAN1        0.2423
      3  OAN       37.4520  -56.6830   41.0000 O.2     1  OAN1       -0.2733
      4  NAI       36.2550  -57.3850   39.1810 N.am    1  OAN1       -0.1948
      5  CAB       35.1190  -57.9990   39.9070 C.3     1  OAN1        0.2065
      6  CAC       34.1790  -56.8470   40.3410 C.3     1  OAN1        0.2146
      7  OAJ       33.2280  -56.5890   39.3060 O.3     1  OAN1       -0.2179
      8  CAD       33.4700  -57.1930   41.6300 C.3     1  OAN1        0.2266
      9  OAK       32.5850  -56.1280   41.9950 O.3     1  OAN1       -0.2163
     10  CAE       34.5520  -57.3820   42.6700 C.3     1  OAN1        0.2328
     11  CAF       33.9400  -57.6470   44.0420 C.3     1  OAN1        0.2281
     12  OAM       34.9760  -57.8040   45.0140 O.3     1  OAN1       -0.2163
     13  OAL       35.3700  -58.5190   42.2990 O.2     1  OAN1       -0.4583
     14  CAA       35.5690  -58.8370   40.9700 C.2     1  OAN1        0.2599
     15  NAY       36.2050  -59.9600   40.6350 N.2     1  OAN1       -0.0369
     16  OAQ       36.7030  -60.7930   41.7570 O.3     1  OAN1       -0.2944
     17  CAP       36.3650  -62.1170   41.7330 C.2     1  OAN1        0.4504
     18  OAR       36.5270  -62.7930   40.7140 O.2     1  OAN1       -0.2218
     19  NAO       35.8950  -62.6550   42.8740 N.am    1  OAN1       -0.1406
     20  CAS       35.5520  -63.9420   42.9990 C.ar    1  OAN1        0.0768
     21  CAT       36.5310  -64.9180   43.2090 C.ar    1  OAN1        0.0167
     22  CAU       36.1600  -66.2550   43.3710 C.ar    1  OAN1        0.0013
     23  CAV       34.8100  -66.6140   43.3370 C.ar    1  OAN1        0.0001
     24  CAW       33.8290  -65.6410   43.1430 C.ar    1  OAN1        0.0013
     25  CAX       34.2010  -64.3040   42.9820 C.ar    1  OAN1        0.0167
@<TRIPOS>BOND
     1     1     2    1
     2     4     2   am
     3     4     5    1
     4     7     6    1
     5     2     3    2
     6     5     6    1
     7     5    14    1
     8     6     8    1
     9    15    14    2
    10    15    16    1
    11    18    17    2
    12    14    13    1
    13     8     9    1
    14     8    10    1
    15    17    16    1
    16    17    19   am
    17    13    10    1
    18    10    11    1
    19    19    20    1
    20    25    20   ar
    21    25    24   ar
    22    20    21   ar
    23    24    23   ar
    24    21    22   ar
    25    23    22   ar
    26    11    12    1
